@<TRIPOS>MOLECULE
tmp/5u5hA00.pdb
 115 108 0 0 0
SMALL
GASTEIGER

@<TRIPOS>ATOM
      1  N          2.4520    2.4460   26.0460 N.3    19  PHE19      -0.1241
      2  CA         1.3220    2.7130   25.1590 C.3    19  PHE19       0.1605
      3  C          1.1550    1.7290   24.0200 C.2    19  PHE19       0.2264
      4  O          0.0660    1.6180   23.4580 O.2    19  PHE19      -0.2867
      5  CB         1.3790    4.1410   24.5920 C.3    19  PHE19       0.0534
      6  CG         1.0160    5.2070   25.6040 C.ar   19  PHE19      -0.0203
      7  CD1       -0.2790    5.3010   26.1060 C.ar   19  PHE19      -0.0042
      8  CD2        1.9700    6.1150   26.0540 C.ar   19  PHE19      -0.0042
      9  CE1       -0.6180    6.2970   27.0390 C.ar   19  PHE19      -0.0003
     10  CE2        1.6280    7.1240   26.9720 C.ar   19  PHE19      -0.0003
     11  CZ         0.3390    7.1980   27.4690 C.ar   19  PHE19      -0.0000
     12  N          4.4490    6.4220   21.2980 N.3    70  TYR70      -0.1241
     13  CA         3.0230    6.1160   21.3980 C.3    70  TYR70       0.1605
     14  C          2.6550    4.8850   20.6310 C.2    70  TYR70       0.2264
     15  O          1.5880    4.2900   20.8660 O.2    70  TYR70      -0.2867
     16  CB         2.2280    7.3090   20.8120 C.3    70  TYR70       0.0534
     17  CG         2.2310    8.5940   21.6250 C.ar   70  TYR70      -0.0201
     18  CD1        2.3820    8.5700   23.0110 C.ar   70  TYR70      -0.0009
     19  CD2        1.8990    9.8090   21.0350 C.ar   70  TYR70      -0.0009
     20  CE1        2.3100    9.7490   23.7720 C.ar   70  TYR70       0.0417
     21  CE2        1.8100   10.9810   21.7820 C.ar   70  TYR70       0.0417
     22  CZ         2.0110   10.9450   23.1490 C.ar   70  TYR70       0.1957
     23  OH         1.9100   12.1130   23.8590 O.3    70  TYR70      -0.2866
     24  N          0.3180    9.4300   16.5280 N.3   116  ASN116     -0.1240
     25  CA        -0.4730    8.5710   17.4060 C.3   116  ASN116      0.1653
     26  C         -0.4830    7.1100   17.0040 C.2   116  ASN116      0.2266
     27  O         -0.6150    6.2430   17.8610 O.2   116  ASN116     -0.2867
     28  CB        -1.8880    9.1520   17.5120 C.3   116  ASN116      0.1155
     29  CG        -1.8850   10.4980   18.1840 C.2   116  ASN116      0.2627
     30  OD1       -1.1680   10.7130   19.1720 O.2   116  ASN116     -0.2716
     31  ND2       -2.6410   11.4610   17.6450 N.am  116  ASN116     -0.0877
     32  N         -1.4210   14.1850   15.4790 N.3   133  LYS133     -0.1245
     33  CA        -2.0480   15.1930   16.3020 C.3   133  LYS133      0.1561
     34  C         -2.4100   16.3980   15.4040 C.2   133  LYS133      0.2260
     35  O         -3.3800   17.0980   15.7130 O.2   133  LYS133     -0.2867
     36  CB        -1.0650   15.6140   17.4180 C.3   133  LYS133      0.0271
     37  CG        -1.5450   16.7430   18.3350 C.3   133  LYS133      0.0035
     38  CD        -0.7790   16.7210   19.6320 C.3   133  LYS133      0.0206
     39  CE        -1.1050   17.9230   20.4900 C.3   133  LYS133      0.1093
     40  NZ         0.0870   18.3300   21.2620 N.3   133  LYS133     -0.1314
     41  N         -7.1100   15.7300   16.2030 N.3   160  GLU160     -0.1245
     42  CA        -6.1070   14.6490   16.1930 C.3   160  GLU160      0.1567
     43  C         -6.6130   13.3620   15.5470 C.2   160  GLU160      0.2260
     44  O         -7.7120   12.9080   15.8800 O.2   160  GLU160     -0.2867
     45  CB        -5.6910   14.2930   17.6310 C.3   160  GLU160      0.0388
     46  CG        -5.0980   15.4380   18.4490 C.3   160  GLU160      0.1160
     47  CD        -4.1290   14.9350   19.5110 C.2   160  GLU160      0.3649
     48  OE1       -3.9320   15.6460   20.5190 O.co2 160  GLU160     -0.2457
     49  OE2       -3.5560   13.8360   19.3360 O.co2 160  GLU160     -0.2457
     50  N         -6.3000    9.5480   15.6740 N.3   162  LEU162     -0.1245
     51  CA        -5.8030    8.6550   16.7460 C.3   162  LEU162      0.1561
     52  C         -5.4540    7.2570   16.3120 C.2   162  LEU162      0.2260
     53  O         -4.6390    6.6070   16.9750 O.2   162  LEU162     -0.2867
     54  CB        -6.7900    8.5900   17.9220 C.3   162  LEU162      0.0270
     55  CG        -7.1530    9.8990   18.6020 C.3   162  LEU162      0.0019
     56  CD1       -8.2800    9.6850   19.5930 C.3   162  LEU162      0.0001
     57  CD2       -5.9450   10.5750   19.2850 C.3   162  LEU162      0.0001
     58  N        -10.1910   12.2790   17.4190 N.3   178  MET178     -0.1245
     59  CA       -10.7910   13.1250   18.4480 C.3   178  MET178      0.1570
     60  C        -12.0390   13.8240   17.9480 C.2   178  MET178      0.2261
     61  O        -12.8980   14.1620   18.7540 O.2   178  MET178     -0.2867
     62  CB        -9.7800   14.1770   18.8750 C.3   178  MET178      0.0387
     63  CG        -8.7180   13.6540   19.7890 C.3   178  MET178      0.0595
     64  SD        -8.0590   15.0480   20.7400 S.3   178  MET178     -0.1393
     65  CE        -6.8030   14.2130   21.5670 C.3   178  MET178      0.0692
     66  N        -10.5600    6.0690   19.2510 N.3   232  ASP232     -0.1239
     67  CA        -9.1490    5.8090   19.5190 C.3   232  ASP232      0.1674
     68  C         -8.6120    4.4970   18.9520 C.2   232  ASP232      0.2266
     69  O         -7.4350    4.2190   19.1130 O.2   232  ASP232     -0.2867
     70  CB        -8.8700    5.9100   21.0520 C.3   232  ASP232      0.1410
     71  CG        -9.6820    5.0000   21.9670 C.2   232  ASP232      0.3668
     72  OD1      -10.6030    4.3090   21.4700 O.co2 232  ASP232     -0.2456
     73  OD2       -9.4110    4.9900   23.1700 O.co2 232  ASP232     -0.2456
     74  N         -7.7400    6.4750   25.0230 N.3   287  TYR287     -0.1227
     75  CA        -6.4880    5.8710   24.5240 C.3   287  TYR287      0.1736
     76  C         -6.2690    4.4430   25.0220 C.2   287  TYR287      0.2595
     77  O         -5.3110    4.1390   25.7330 O.2   287  TYR287     -0.2718
     78  CB        -5.2640    6.7900   24.7940 C.3   287  TYR287      0.0548
     79  CG        -5.5620    8.2610   24.5680 C.ar  287  TYR287     -0.0200
     80  CD1       -6.0680    8.7130   23.3460 C.ar  287  TYR287     -0.0009
     81  CD2       -5.3960    9.1920   25.5910 C.ar  287  TYR287     -0.0009
     82  CE1       -6.4170   10.0460   23.1540 C.ar  287  TYR287      0.0417
     83  CE2       -5.7080   10.5430   25.3970 C.ar  287  TYR287      0.0417
     84  CZ        -6.2290   10.9580   24.1810 C.ar  287  TYR287      0.1957
     85  OH        -6.5530   12.2670   23.9730 O.3   287  TYR287     -0.2866
     86  N         -7.1780    3.5590   24.6050 N.am  288  MET288     -0.1965
     87  CA        -7.1690    2.1290   24.9050 C.3   288  MET288      0.1736
     88  C         -7.3810    1.4340   23.5710 C.2   288  MET288      0.2616
     89  O         -8.3660    1.7060   22.8850 O.2   288  MET288     -0.2715
     90  CB        -8.2910    1.7750   25.9080 C.3   288  MET288      0.0427
     91  CG        -8.1380    2.5180   27.2560 C.3   288  MET288      0.0599
     92  SD        -6.7330    1.9610   28.2600 S.3   288  MET288     -0.1393
     93  CE        -7.4870    0.5960   29.1060 C.3   288  MET288      0.0692
     94  N         -6.4400    0.6020   23.1850 N.am  289  ARG289     -0.1977
     95  CA        -6.4740   -0.1250   21.9240 C.3   289  ARG289      0.1597
     96  C         -7.0270   -1.5160   22.0810 C.2   289  ARG289      0.2287
     97  O         -6.6900   -2.2020   23.0490 O.2   289  ARG289     -0.2864
     98  CB        -5.0570   -0.3250   21.3710 C.3   289  ARG289      0.0334
     99  CG        -4.1950    0.9000   21.1970 C.3   289  ARG289      0.0492
    100  CD        -4.4290    1.5960   19.8950 C.3   289  ARG289      0.2205
    101  NE        -3.3480    2.5350   19.6390 N.pl3 289  ARG289     -0.0865
    102  CZ        -3.4510    3.5920   18.8480 C.cat 289  ARG289      0.5346
    103  NH1       -2.4210    4.3900   18.6710 N.pl3 289  ARG289      0.1354
    104  NH2       -4.5880    3.8500   18.2160 N.pl3 289  ARG289      0.1354
    105  N         -3.1790   -0.7040   28.1580 N.3   329  ARG329     -0.1245
    106  CA        -3.2280    0.1910   26.9990 C.3   329  ARG329      0.1563
    107  C         -3.3350   -0.5360   25.6580 C.2   329  ARG329      0.2260
    108  O         -4.1070   -0.1330   24.7940 O.2   329  ARG329     -0.2867
    109  CB        -2.0060    1.1260   26.9980 C.3   329  ARG329      0.0307
    110  CG        -2.0050    2.1720   28.1240 C.3   329  ARG329      0.0489
    111  CD        -3.0810    3.2530   27.9200 C.3   329  ARG329      0.2205
    112  NE        -3.2130    4.1310   29.0880 N.pl3 329  ARG329     -0.0865
    113  CZ        -4.1130    5.1050   29.2100 C.cat 329  ARG329      0.5346
    114  NH1       -4.1570    5.8410   30.3150 N.pl3 329  ARG329      0.1354
    115  NH2       -4.9640    5.3580   28.2280 N.pl3 329  ARG329      0.1354
@<TRIPOS>BOND
     1    34    35    2
     2    34    33    1
     3    32    33    1
     4    43    44    2
     5    43    42    1
     6    50    51    1
     7    42    41    1
     8    42    45    1
     9    33    36    1
    10    52    51    1
    11    52    53    2
    12    24    25    1
    13    51    54    1
    14    26    25    1
    15    26    27    2
    16    25    28    1
    17    36    37    1
    18    58    59    1
    19    28    29    1
    20    45    46    1
    21    31    29   am
    22    54    55    1
    23    60    59    1
    24    60    61    2
    25    29    30    2
    26   104   102    1
    27    37    38    1
    28    59    62    1
    29    46    47    1
    30    55    57    1
    31    55    56    1
    32   103   102    1
    33   102   101    2
    34    62    63    1
    35    68    69    2
    36    68    67    1
    37    66    67    1
    38    49    47   ar
    39    47    48   ar
    40    67    70    1
    41    38    39    1
    42   101   100    1
    43    63    64    1
    44   100    99    1
    45    39    40    1
    46    14    15    2
    47    14    13    1
    48    64    65    1
    49    16    13    1
    50    16    17    1
    51    19    17   ar
    52    19    21   ar
    53    70    71    1
    54    99    98    1
    55    12    13    1
    56    98    95    1
    57    72    71   ar
    58    17    18   ar
    59    21    22   ar
    60    95    96    1
    61    95    94    1
    62    71    73   ar
    63    96    97    2
    64    89    88    2
    65    18    20   ar
    66    22    20   ar
    67    22    23    1
    68    82    80   ar
    69    82    84   ar
    70    94    88   am
    71    80    79   ar
    72     4     3    2
    73    88    87    1
    74    85    84    1
    75     3     2    1
    76    84    83   ar
    77    75    78    1
    78    75    76    1
    79    75    74    1
    80    79    78    1
    81    79    81   ar
    82     5     2    1
    83     5     6    1
    84    86    87    1
    85    86    76   am
    86   108   107    2
    87    87    90    1
    88    76    77    2
    89     2     1    1
    90    83    81   ar
    91     6     8   ar
    92     6     7   ar
    93   107   106    1
    94    90    91    1
    95     8    10   ar
    96     7     9   ar
    97    10    11   ar
    98   109   106    1
    99   109   110    1
   100   106   105    1
   101     9    11   ar
   102    91    92    1
   103   111   110    1
   104   111   112    1
   105   115   113    1
   106    92    93    1
   107   112   113    2
   108   113   114    1
