@<TRIPOS>MOLECULE
tmp/5u5kA00.pdb
 98 93 0 0 0
SMALL
GASTEIGER

@<TRIPOS>ATOM
      1  N         14.6780   -7.5650    6.0360 N.3    19  PHE19      -0.1241
      2  CA        15.7770   -7.3020    6.9520 C.3    19  PHE19       0.1605
      3  C         15.9020   -8.3100    8.0910 C.2    19  PHE19       0.2264
      4  O         16.9300   -8.3530    8.7640 O.2    19  PHE19      -0.2867
      5  CB        15.6700   -5.8630    7.4920 C.3    19  PHE19       0.0534
      6  CG        16.0160   -4.7750    6.4890 C.ar   19  PHE19      -0.0203
      7  CD1       17.3250   -4.5950    6.0570 C.ar   19  PHE19      -0.0042
      8  CD2       15.0490   -3.8800    6.0510 C.ar   19  PHE19      -0.0042
      9  CE1       17.6510   -3.5670    5.1700 C.ar   19  PHE19      -0.0003
     10  CE2       15.3810   -2.8300    5.1870 C.ar   19  PHE19      -0.0003
     11  CZ        16.6740   -2.6900    4.7390 C.ar   19  PHE19      -0.0000
     12  N         12.5520   -3.5530   10.7940 N.3    70  TYR70      -0.1241
     13  CA        13.9430   -3.9880   10.6670 C.3    70  TYR70       0.1605
     14  C         14.2440   -5.2610   11.4510 C.2    70  TYR70       0.2264
     15  O         15.2600   -5.9110   11.1880 O.2    70  TYR70      -0.2867
     16  CB        14.8990   -2.8860   11.1800 C.3    70  TYR70       0.0534
     17  CG        14.8840   -1.5650   10.4410 C.ar   70  TYR70      -0.0201
     18  CD1       14.6430   -1.5100    9.0690 C.ar   70  TYR70      -0.0009
     19  CD2       15.1930   -0.3740   11.0970 C.ar   70  TYR70      -0.0009
     20  CE1       14.6660   -0.2980    8.3760 C.ar   70  TYR70       0.0417
     21  CE2       15.2220    0.8450   10.4110 C.ar   70  TYR70       0.0417
     22  CZ        14.9660    0.8750    9.0500 C.ar   70  TYR70       0.1957
     23  OH        14.9820    2.0680    8.3660 O.3    70  TYR70      -0.2866
     24  N         16.8230   -0.7810   15.5570 N.3   116  ASN116     -0.1240
     25  CA        17.6470   -1.6670   14.7320 C.3   116  ASN116      0.1653
     26  C         17.5940   -3.1150   15.1290 C.2   116  ASN116      0.2266
     27  O         17.7080   -3.9900   14.2760 O.2   116  ASN116     -0.2867
     28  CB        19.0980   -1.1550   14.7260 C.3   116  ASN116      0.1155
     29  CG        19.1890    0.2070   14.0760 C.2   116  ASN116      0.2627
     30  OD1       18.4440    0.5200   13.1540 O.2   116  ASN116     -0.2716
     31  ND2       20.0210    1.0750   14.5960 N.am  116  ASN116     -0.0877
     32  N         24.4430    5.4670   16.2050 N.3   160  GLU160     -0.1245
     33  CA        23.3930    4.4430   16.1510 C.3   160  GLU160      0.1567
     34  C         23.8690    3.1110   16.6990 C.2   160  GLU160      0.2260
     35  O         24.9710    2.6760   16.3530 O.2   160  GLU160     -0.2867
     36  CB        22.9300    4.1870   14.7040 C.3   160  GLU160      0.0388
     37  CG        22.2440    5.3310   13.9740 C.3   160  GLU160      0.1160
     38  CD        21.4660    4.8460   12.7590 C.2   160  GLU160      0.3649
     39  OE1       20.9300    3.7120   12.8010 O.co2 160  GLU160     -0.2457
     40  OE2       21.3590    5.6160   11.7780 O.co2 160  GLU160     -0.2457
     41  N         23.5550   -0.6660   16.3710 N.3   162  LEU162     -0.1245
     42  CA        23.1010   -1.5830   15.3190 C.3   162  LEU162      0.1561
     43  C         22.7130   -2.9820   15.7980 C.2   162  LEU162      0.2260
     44  O         21.9060   -3.6450   15.1380 O.2   162  LEU162     -0.2867
     45  CB        24.1480   -1.6840   14.2010 C.3   162  LEU162      0.0270
     46  CG        24.4370   -0.3990   13.4160 C.3   162  LEU162      0.0019
     47  CD1       25.4960   -0.6420   12.3770 C.3   162  LEU162      0.0001
     48  CD2       23.1880    0.1580   12.7700 C.3   162  LEU162      0.0001
     49  N         27.8580   -4.2830   12.9010 N.3   232  ASP232     -0.1239
     50  CA        26.4330   -4.5370   12.6140 C.3   232  ASP232      0.1674
     51  C         25.8820   -5.8460   13.1650 C.2   232  ASP232      0.2266
     52  O         24.6980   -6.1300   12.9820 O.2   232  ASP232     -0.2867
     53  CB        26.1480   -4.4300   11.0990 C.3   232  ASP232      0.1410
     54  CG        27.0240   -5.2770   10.1780 C.2   232  ASP232      0.3668
     55  OD1       27.8810   -6.0510   10.6950 O.co2 232  ASP232     -0.2456
     56  OD2       26.8870   -5.1380    8.9480 O.co2 232  ASP232     -0.2456
     57  N         25.0730   -3.7350    7.0770 N.3   287  TYR287     -0.1227
     58  CA        23.8180   -4.3080    7.5740 C.3   287  TYR287      0.1736
     59  C         23.5870   -5.7700    7.0970 C.2   287  TYR287      0.2595
     60  O         22.6060   -6.0960    6.4160 O.2   287  TYR287     -0.2718
     61  CB        22.6190   -3.3580    7.2940 C.3   287  TYR287      0.0548
     62  CG        22.9650   -1.8980    7.5520 C.ar  287  TYR287     -0.0200
     63  CD1       23.4410   -1.4800    8.7980 C.ar  287  TYR287     -0.0009
     64  CD2       22.8870   -0.9480    6.5320 C.ar  287  TYR287     -0.0009
     65  CE1       23.8420   -0.1600    9.0170 C.ar  287  TYR287      0.0417
     66  CE2       23.2590    0.3830    6.7500 C.ar  287  TYR287      0.0417
     67  CZ        23.7360    0.7710    7.9950 C.ar  287  TYR287      0.1957
     68  OH        24.1150    2.0710    8.2300 O.3   287  TYR287     -0.2866
     69  N         24.5010   -6.6540    7.5270 N.am  288  MET288     -0.1965
     70  CA        24.4760   -8.0760    7.2240 C.3   288  MET288      0.1736
     71  C         24.7150   -8.8140    8.5380 C.2   288  MET288      0.2616
     72  O         25.7730   -8.6610    9.1520 O.2   288  MET288     -0.2715
     73  CB        25.5510   -8.4490    6.1810 C.3   288  MET288      0.0427
     74  CG        25.4260   -7.7200    4.8510 C.3   288  MET288      0.0599
     75  SD        24.0380   -8.2690    3.8350 S.3   288  MET288     -0.1393
     76  CE        24.8170   -9.5010    2.9650 C.3   288  MET288      0.0692
     77  N         23.7230   -9.5800    8.9790 N.am  289  ARG289     -0.1977
     78  CA        23.7850  -10.3140   10.2270 C.3   289  ARG289      0.1597
     79  C         24.3290  -11.7130   10.0740 C.2   289  ARG289      0.2287
     80  O         24.1190  -12.3570    9.0500 O.2   289  ARG289     -0.2864
     81  CB        22.3720  -10.4610   10.8170 C.3   289  ARG289      0.0334
     82  CG        21.5210   -9.2070   10.7920 C.3   289  ARG289      0.0492
     83  CD        21.8150   -8.3220   11.9620 C.3   289  ARG289      0.2205
     84  NE        20.6560   -7.4990   12.2670 N.pl3 289  ARG289     -0.0865
     85  CZ        20.6840   -6.4760   13.1100 C.cat 289  ARG289      0.5346
     86  NH1       21.8110   -6.1570   13.7400 N.pl3 289  ARG289      0.1354
     87  NH2       19.5990   -5.7450   13.3090 N.pl3 289  ARG289      0.1354
     88  N         20.2630  -10.7600    3.9650 N.3   332  ARG332     -0.1245
     89  CA        20.3010   -9.8630    5.1160 C.3   332  ARG332      0.1563
     90  C         20.4100  -10.5790    6.4350 C.2   332  ARG332      0.2260
     91  O         21.1550  -10.1150    7.2870 O.2   332  ARG332     -0.2867
     92  CB        19.1150   -8.8930    5.1020 C.3   332  ARG332      0.0307
     93  CG        19.1450   -7.8770    3.9580 C.3   332  ARG332      0.0489
     94  CD        20.1990   -6.8060    4.1980 C.3   332  ARG332      0.2205
     95  NE        20.4740   -6.0290    2.9950 N.pl3 332  ARG332     -0.0865
     96  CZ        21.3870   -5.0630    2.9050 C.cat 332  ARG332      0.5346
     97  NH1       22.1390   -4.7460    3.9540 N.pl3 332  ARG332      0.1354
     98  NH2       21.5740   -4.4240    1.7540 N.pl3 332  ARG332      0.1354
@<TRIPOS>BOND
     1    98    96    1
     2    96    95    2
     3    96    97    1
     4    76    75    1
     5    95    94    1
     6    75    74    1
     7    93    94    1
     8    93    92    1
     9    88    89    1
    10    11     9   ar
    11    11    10   ar
    12    74    73    1
    13    92    89    1
    14    89    90    1
    15     9     7   ar
    16    10     8   ar
    17     1     2    1
    18     8     6   ar
    19     7     6   ar
    20    73    70    1
    21    60    59    2
    22    90    91    2
    23     6     5    1
    24    64    66   ar
    25    64    62   ar
    26    66    67   ar
    27     2     5    1
    28     2     3    1
    29    57    58    1
    30    59    69   am
    31    59    58    1
    32    70    69    1
    33    70    71    1
    34    61    62    1
    35    61    58    1
    36    62    63   ar
    37    67    68    1
    38    67    65   ar
    39     3     4    2
    40    23    22    1
    41    20    22   ar
    42    20    18   ar
    43    71    77   am
    44    71    72    2
    45    63    65   ar
    46    56    54   ar
    47    77    78    1
    48    22    21   ar
    49    80    79    2
    50    18    17   ar
    51    79    78    1
    52    54    55   ar
    53    54    53    1
    54    78    81    1
    55    21    19   ar
    56    17    19   ar
    57    17    16    1
    58    13    12    1
    59    13    16    1
    60    13    14    1
    61    82    81    1
    62    82    83    1
    63    53    50    1
    64    15    14    2
    65    40    38   ar
    66    83    84    1
    67    84    85    2
    68    47    46    1
    69    50    49    1
    70    50    51    1
    71    38    39   ar
    72    38    37    1
    73    48    46    1
    74    52    51    2
    75    85    87    1
    76    85    86    1
    77    30    29    2
    78    46    45    1
    79    37    36    1
    80    29    31   am
    81    29    28    1
    82    45    42    1
    83    27    26    2
    84    36    33    1
    85    28    25    1
    86    25    26    1
    87    25    24    1
    88    44    43    2
    89    42    43    1
    90    42    41    1
    91    33    32    1
    92    33    34    1
    93    35    34    2
