@<TRIPOS>MOLECULE
tmp/5u5lA00.pdb
 251 241 0 0 0
SMALL
GASTEIGER

@<TRIPOS>ATOM
      1  N         -3.7520   37.3480  114.3370 N.3    51  LEU51      -0.1245
      2  CA        -4.2530   37.8610  115.6070 C.3    51  LEU51       0.1561
      3  C         -4.8110   39.2690  115.4420 C.2    51  LEU51       0.2260
      4  O         -5.9500   39.5480  115.8340 O.2    51  LEU51      -0.2867
      5  CB        -3.1380   37.8430  116.6510 C.3    51  LEU51       0.0270
      6  CG        -3.4700   38.4660  118.0040 C.3    51  LEU51       0.0019
      7  CD1       -4.3830   37.5480  118.8080 C.3    51  LEU51       0.0001
      8  CD2       -2.1960   38.7810  118.7660 C.3    51  LEU51       0.0001
      9  N         -8.7770   40.2710  115.9070 N.3    55  GLU55      -0.1245
     10  CA        -9.2040   41.1210  117.0090 C.3    55  GLU55       0.1567
     11  C        -10.3690   42.0310  116.6450 C.2    55  GLU55       0.2260
     12  O        -10.7760   42.8490  117.4770 O.2    55  GLU55      -0.2867
     13  CB        -8.0260   41.9530  117.5170 C.3    55  GLU55       0.0388
     14  CG        -7.0430   41.1510  118.3490 C.3    55  GLU55       0.1160
     15  CD        -6.1110   42.0240  119.1570 C.2    55  GLU55       0.3649
     16  OE1       -5.8510   43.1700  118.7360 O.co2  55  GLU55      -0.2457
     17  OE2       -5.6430   41.5660  120.2210 O.co2  55  GLU55      -0.2457
     18  N         -1.6580   40.3310  126.3950 N.3    63  ARG63      -0.1231
     19  CA        -3.0580   40.3970  125.9820 C.3    63  ARG63       0.1694
     20  C         -3.6950   39.0110  125.9660 C.2    63  ARG63       0.2592
     21  O         -4.8020   38.8160  126.4840 O.2    63  ARG63      -0.2718
     22  CB        -3.1670   41.0620  124.6100 C.3    63  ARG63       0.0321
     23  CG        -3.4570   42.5540  124.6700 C.3    63  ARG63       0.0489
     24  CD        -2.8770   43.2800  123.4700 C.3    63  ARG63       0.2205
     25  NE        -3.2880   42.6830  122.2030 N.pl3  63  ARG63      -0.0865
     26  CZ        -2.6860   42.9160  121.0420 C.cat  63  ARG63       0.5346
     27  NH1       -1.6390   43.7280  120.9880 N.pl3  63  ARG63       0.1354
     28  NH2       -3.1230   42.3320  119.9360 N.pl3  63  ARG63       0.1354
     29  N         -3.0040   38.0330  125.3780 N.am   64  ILE64      -0.1966
     30  CA        -3.5190   36.6660  125.3600 C.3    64  ILE64       0.1727
     31  C         -3.6890   36.1430  126.7800 C.2    64  ILE64       0.2616
     32  O         -4.6940   35.4940  127.1070 O.2    64  ILE64      -0.2715
     33  CB        -2.5920   35.7630  124.5270 C.3    64  ILE64       0.0290
     34  CG1       -2.4780   36.2980  123.0970 C.3    64  ILE64       0.0022
     35  CG2       -3.0940   34.3270  124.5340 C.3    64  ILE64       0.0023
     36  CD1       -1.5460   35.5020  122.2160 C.3    64  ILE64       0.0001
     37  N         -2.7200   36.4330  127.6520 N.am   65  PHE65      -0.1974
     38  CA        -2.8040   35.9670  129.0330 C.3    65  PHE65       0.1639
     39  C         -4.0070   36.5710  129.7500 C.2    65  PHE65       0.2290
     40  O         -4.7410   35.8640  130.4530 O.2    65  PHE65      -0.2864
     41  CB        -1.5070   36.2980  129.7710 C.3    65  PHE65       0.0560
     42  CG        -1.3510   35.5780  131.0770 C.ar   65  PHE65      -0.0200
     43  CD1       -0.8620   34.2820  131.1140 C.ar   65  PHE65      -0.0042
     44  CD2       -1.6880   36.1960  132.2700 C.ar   65  PHE65      -0.0042
     45  CE1       -0.7160   33.6160  132.3140 C.ar   65  PHE65      -0.0003
     46  CE2       -1.5430   35.5340  133.4740 C.ar   65  PHE65      -0.0003
     47  CZ        -1.0560   34.2430  133.4960 C.ar   65  PHE65      -0.0000
     48  N         -6.7230   37.6110  128.3530 N.3    67  GLY67      -0.1210
     49  CA        -7.8900   36.9390  127.8040 C.3    67  GLY67       0.1956
     50  C         -8.1500   35.6020  128.4710 C.2    67  GLY67       0.2612
     51  O         -9.2930   35.2790  128.8170 O.2    67  GLY67      -0.2717
     52  N         -7.0910   34.8120  128.6740 N.am   68  CYS68      -0.1956
     53  CA        -7.2350   33.5670  129.4230 C.3    68  CYS68       0.1843
     54  C         -7.7580   33.8260  130.8330 C.2    68  CYS68       0.2625
     55  O         -8.5650   33.0470  131.3540 O.2    68  CYS68      -0.2714
     56  CB        -5.9000   32.8230  129.4760 C.3    68  CYS68       0.0997
     57  SG        -5.3540   32.1400  127.8970 S.3    68  CYS68      -0.0797
     58  N         -7.3150   34.9180  131.4640 N.am   69  GLN69      -0.1963
     59  CA        -7.7730   35.2290  132.8170 C.3    69  GLN69       0.1733
     60  C         -9.2640   35.5460  132.8390 C.2    69  GLN69       0.2616
     61  O        -10.0080   35.0300  133.6840 O.2    69  GLN69      -0.2715
     62  CB        -6.9740   36.3990  133.3920 C.3    69  GLN69       0.0408
     63  CG        -5.5240   36.0810  133.7140 C.3    69  GLN69       0.0908
     64  CD        -4.9070   37.1030  134.6490 C.2    69  GLN69       0.2608
     65  OE1       -5.4190   37.3500  135.7420 O.2    69  GLN69      -0.2717
     66  NE2       -3.8050   37.7090  134.2230 N.am   69  GLN69      -0.0878
     67  N         -9.7160   36.4070  131.9230 N.am   70  PHE70      -0.1960
     68  CA       -11.1340   36.7460  131.8520 C.3    70  PHE70       0.1771
     69  C        -11.9800   35.5060  131.5860 C.2    70  PHE70       0.2619
     70  O        -13.0070   35.2840  132.2440 O.2    70  PHE70      -0.2715
     71  CB       -11.3610   37.8040  130.7710 C.3    70  PHE70       0.0574
     72  CG       -12.7620   37.8290  130.2300 C.ar   70  PHE70      -0.0200
     73  CD1      -13.7970   38.3790  130.9700 C.ar   70  PHE70      -0.0042
     74  CD2      -13.0430   37.3100  128.9750 C.ar   70  PHE70      -0.0042
     75  CE1      -15.0870   38.4060  130.4720 C.ar   70  PHE70      -0.0003
     76  CE2      -14.3310   37.3340  128.4710 C.ar   70  PHE70      -0.0003
     77  CZ       -15.3540   37.8830  129.2210 C.ar   70  PHE70      -0.0000
     78  N        -11.5560   34.6800  130.6240 N.am   71  ARG71      -0.1963
     79  CA       -12.2680   33.4320  130.3640 C.3    71  ARG71       0.1729
     80  C        -12.2920   32.5440  131.6040 C.2    71  ARG71       0.2616
     81  O        -13.2800   31.8440  131.8570 O.2    71  ARG71      -0.2715
     82  CB       -11.6320   32.7030  129.1780 C.3    71  ARG71       0.0348
     83  CG       -12.1890   31.3100  128.9260 C.3    71  ARG71       0.0492
     84  CD       -13.7000   31.3370  128.7390 C.3    71  ARG71       0.2205
     85  NE       -14.2970   30.0290  128.9900 N.pl3  71  ARG71      -0.0865
     86  CZ       -15.5470   29.8460  129.4020 C.cat  71  ARG71       0.5346
     87  NH1      -16.3350   30.8900  129.6160 N.pl3  71  ARG71       0.1354
     88  NH2      -16.0080   28.6190  129.6100 N.pl3  71  ARG71       0.1354
     89  N        -11.2210   32.5790  132.4030 N.am   72  SER72      -0.1950
     90  CA       -11.1920   31.8010  133.6380 C.3    72  SER72       0.1924
     91  C        -12.2120   32.3160  134.6430 C.2    72  SER72       0.2314
     92  O        -12.8810   31.5220  135.3110 O.2    72  SER72      -0.2863
     93  CB        -9.7910   31.8220  134.2490 C.3    72  SER72       0.2116
     94  OG        -8.9580   30.8480  133.6490 O.3    72  SER72      -0.2180
     95  N        -10.2410   24.8260  138.9410 N.3   106  HIS106     -0.1241
     96  CA        -9.2700   24.7360  137.8560 C.3   106  HIS106      0.1621
     97  C         -9.1930   23.3380  137.2650 C.2   106  HIS106      0.2264
     98  O         -8.9670   23.1930  136.0570 O.2   106  HIS106     -0.2867
     99  CB        -7.8890   25.1840  138.3330 C.3   106  HIS106      0.0745
    100  CG        -7.7190   26.6690  138.3390 C.ar  106  HIS106      0.0817
    101  ND1       -7.7320   27.4160  139.4970 N.ar  106  HIS106     -0.2268
    102  CD2       -7.5630   27.5510  137.3230 C.ar  106  HIS106      0.1154
    103  CE1       -7.5780   28.6930  139.1950 C.ar  106  HIS106      0.1986
    104  NE2       -7.4740   28.8020  137.8820 N.ar  106  HIS106     -0.2212
    105  N        -11.8660   23.4520  134.9750 N.3   109  ILE109     -0.1231
    106  CA       -11.5710   24.3540  133.8640 C.3   109  ILE109      0.1692
    107  C        -10.7240   23.6490  132.8120 C.2   109  ILE109      0.2592
    108  O        -10.9910   23.7530  131.6090 O.2   109  ILE109     -0.2718
    109  CB       -10.8960   25.6400  134.3770 C.3   109  ILE109      0.0266
    110  CG1      -11.9540   26.6670  134.7840 C.3   109  ILE109      0.0019
    111  CG2       -9.9760   26.2320  133.3210 C.3   109  ILE109      0.0020
    112  CD1      -11.3810   27.9660  135.3200 C.3   109  ILE109      0.0001
    113  N         -9.7050   22.9040  133.2420 N.am  110  TYR110     -0.1976
    114  CA        -8.8780   22.1870  132.2790 C.3   110  TYR110      0.1639
    115  C         -9.6070   20.9800  131.6950 C.2   110  TYR110      0.2290
    116  O         -9.4370   20.6750  130.5040 O.2   110  TYR110     -0.2864
    117  CB        -7.5570   21.7870  132.9390 C.3   110  TYR110      0.0560
    118  CG        -6.7830   22.9920  133.4300 C.ar  110  TYR110     -0.0198
    119  CD1       -6.7550   24.1640  132.6870 C.ar  110  TYR110     -0.0009
    120  CD2       -6.1080   22.9710  134.6420 C.ar  110  TYR110     -0.0009
    121  CE1       -6.0640   25.2720  133.1240 C.ar  110  TYR110      0.0417
    122  CE2       -5.4110   24.0820  135.0900 C.ar  110  TYR110      0.0417
    123  CZ        -5.3960   25.2280  134.3230 C.ar  110  TYR110      0.1957
    124  OH        -4.7100   26.3410  134.7470 O.3   110  TYR110     -0.2866
    125  N        -11.7570   22.4600  129.1630 N.3   113  LEU113     -0.1245
    126  CA       -10.8840   22.9980  128.1280 C.3   113  LEU113      0.1561
    127  C        -10.4430   21.9090  127.1620 C.2   113  LEU113      0.2260
    128  O        -10.2240   22.1820  125.9750 O.2   113  LEU113     -0.2867
    129  CB        -9.6700   23.6740  128.7670 C.3   113  LEU113      0.0270
    130  CG        -8.6430   24.3410  127.8480 C.3   113  LEU113      0.0019
    131  CD1       -9.2710   25.5000  127.0870 C.3   113  LEU113      0.0001
    132  CD2       -7.4390   24.8100  128.6500 C.3   113  LEU113      0.0001
    133  N         -7.0110   25.3800  120.0670 N.3   122  VAL122     -0.1231
    134  CA        -8.1080   25.4660  121.0240 C.3   122  VAL122      0.1692
    135  C         -9.0850   26.5510  120.5850 C.2   122  VAL122      0.2592
    136  O         -8.6780   27.6340  120.1520 O.2   122  VAL122     -0.2718
    137  CB        -7.5810   25.7410  122.4500 C.3   122  VAL122      0.0266
    138  CG1       -6.6750   26.9690  122.4640 C.3   122  VAL122      0.0020
    139  CG2       -8.7330   25.9080  123.4320 C.3   122  VAL122      0.0020
    140  N        -10.3790   26.2560  120.7010 N.am  123  LEU123     -0.1966
    141  CA       -11.4100   27.2470  120.4300 C.3   123  LEU123      0.1728
    142  C        -11.3720   28.3650  121.4670 C.2   123  LEU123      0.2616
    143  O        -11.0540   28.1460  122.6370 O.2   123  LEU123     -0.2715
    144  CB       -12.7920   26.5920  120.4250 C.3   123  LEU123      0.0311
    145  CG       -13.1030   25.6170  119.2890 C.3   123  LEU123      0.0022
    146  CD1      -14.4640   24.9780  119.4940 C.3   123  LEU123      0.0001
    147  CD2      -13.0350   26.3250  117.9420 C.3   123  LEU123      0.0001
    148  N        -11.7000   29.5810  121.0220 N.am  124  ILE124     -0.1963
    149  CA       -11.7380   30.7550  121.8850 C.3   124  ILE124      0.1727
    150  C        -12.9460   31.6060  121.5190 C.2   124  ILE124      0.2616
    151  O        -13.5100   31.4940  120.4270 O.2   124  ILE124     -0.2715
    152  CB       -10.4560   31.6160  121.7850 C.3   124  ILE124      0.0290
    153  CG1      -10.2640   32.1140  120.3480 C.3   124  ILE124      0.0022
    154  CG2       -9.2380   30.8440  122.2750 C.3   124  ILE124      0.0023
    155  CD1       -9.0990   33.0630  120.1730 C.3   124  ILE124      0.0001
    156  N        -13.3260   32.4780  122.4550 N.am  125  SER125     -0.1950
    157  CA       -14.3750   33.4770  122.2510 C.3   125  SER125      0.1924
    158  C        -15.6890   32.8160  121.8270 C.2   125  SER125      0.2314
    159  O        -16.2680   33.1230  120.7800 O.2   125  SER125     -0.2863
    160  CB       -13.9260   34.5340  121.2370 C.3   125  SER125      0.2116
    161  OG       -14.8460   35.6090  121.1810 O.3   125  SER125     -0.2180
    162  N         -7.2990   29.4280  118.3210 N.3   131  MET131     -0.1245
    163  CA        -5.8870   29.7720  118.4160 C.3   131  MET131      0.1570
    164  C         -5.0530   28.5010  118.3400 C.2   131  MET131      0.2261
    165  O         -5.3440   27.5180  119.0310 O.2   131  MET131     -0.2867
    166  CB        -5.6030   30.5310  119.7130 C.3   131  MET131      0.0387
    167  CG        -4.2700   31.2640  119.7230 C.3   131  MET131      0.0595
    168  SD        -4.1330   32.4510  121.0750 S.3   131  MET131     -0.1393
    169  CE        -5.4450   33.5970  120.6690 C.3   131  MET131      0.0692
    170  N          0.5870   29.5910  120.3470 N.3   136  LEU136     -0.1245
    171  CA         0.6590   29.7210  121.7980 C.3   136  LEU136      0.1561
    172  C          2.0300   29.3090  122.3210 C.2   136  LEU136      0.2260
    173  O          2.5360   29.8960  123.2840 O.2   136  LEU136     -0.2867
    174  CB        -0.4440   28.8880  122.4500 C.3   136  LEU136      0.0270
    175  CG        -1.8570   29.4660  122.3450 C.3   136  LEU136      0.0019
    176  CD1       -2.9090   28.3980  122.6050 C.3   136  LEU136      0.0001
    177  CD2       -2.0260   30.6290  123.3170 C.3   136  LEU136      0.0001
    178  N          2.8610   27.9070  128.8820 N.3   146  PHE146     -0.1227
    179  CA         1.6800   27.8910  129.7370 C.3   146  PHE146      0.1736
    180  C          0.6490   26.8650  129.2870 C.2   146  PHE146      0.2595
    181  O         -0.0550   26.2930  130.1270 O.2   146  PHE146     -0.2718
    182  CB         1.0480   29.2820  129.7840 C.3   146  PHE146      0.0547
    183  CG         1.3290   30.0290  131.0530 C.ar  146  PHE146     -0.0202
    184  CD1        2.4720   30.7980  131.1840 C.ar  146  PHE146     -0.0042
    185  CD2        0.4530   29.9530  132.1200 C.ar  146  PHE146     -0.0042
    186  CE1        2.7350   31.4820  132.3570 C.ar  146  PHE146     -0.0003
    187  CE2        0.7110   30.6330  133.2910 C.ar  146  PHE146     -0.0003
    188  CZ         1.8530   31.3990  133.4110 C.ar  146  PHE146     -0.0000
    189  N          0.5420   26.6110  127.9820 N.am  147  MET147     -0.1979
    190  CA        -0.5600   25.8190  127.4540 C.3   147  MET147      0.1605
    191  C         -0.1730   24.4130  127.0160 C.2   147  MET147      0.2287
    192  O         -1.0690   23.5920  126.7950 O.2   147  MET147     -0.2864
    193  CB        -1.2200   26.5520  126.2760 C.3   147  MET147      0.0413
    194  CG        -1.9770   27.8060  126.6880 C.3   147  MET147      0.0598
    195  SD        -3.3890   27.4510  127.7600 S.3   147  MET147     -0.1393
    196  CE        -4.4920   26.6470  126.6100 C.3   147  MET147      0.0692
    197  N         -1.6120   21.5180  129.1150 N.3   150  LYS150     -0.1245
    198  CA        -3.0430   21.4220  128.8490 C.3   150  LYS150      0.1561
    199  C         -3.3090   20.7050  127.5330 C.2   150  LYS150      0.2260
    200  O         -4.2650   19.9290  127.4240 O.2   150  LYS150     -0.2867
    201  CB        -3.6770   22.8150  128.8350 C.3   150  LYS150      0.0271
    202  CG        -3.7930   23.4820  130.2010 C.3   150  LYS150      0.0035
    203  CD        -2.5120   24.1980  130.5960 C.3   150  LYS150      0.0206
    204  CE        -2.6500   24.8580  131.9590 C.3   150  LYS150      0.1093
    205  NZ        -1.3960   25.5440  132.3800 N.3   150  LYS150     -0.1314
    206  N          0.9430   24.8610  136.9440 N.3   232  HIS232     -0.1241
    207  CA         0.4360   26.1880  136.6180 C.3   232  HIS232      0.1621
    208  C          0.6820   27.1720  137.7540 C.2   232  HIS232      0.2264
    209  O          1.1170   28.3040  137.5080 O.2   232  HIS232     -0.2867
    210  CB        -1.0510   26.1390  136.2700 C.3   232  HIS232      0.0745
    211  CG        -1.5690   27.4310  135.7160 C.ar  232  HIS232      0.0817
    212  ND1       -1.5340   27.7310  134.3710 N.ar  232  HIS232     -0.2268
    213  CD2       -2.0990   28.5160  136.3300 C.ar  232  HIS232      0.1154
    214  CE1       -2.0410   28.9360  134.1770 C.ar  232  HIS232      0.1986
    215  NE2       -2.3890   29.4350  135.3500 N.ar  232  HIS232     -0.2212
    216  N          2.8140   30.6690  137.6000 N.3   236  LEU236     -0.1245
    217  CA         2.3000   31.9310  138.1230 C.3   236  LEU236      0.1561
    218  C          3.2540   32.5380  139.1420 C.2   236  LEU236      0.2260
    219  O          3.4650   33.7570  139.1580 O.2   236  LEU236     -0.2867
    220  CB         0.9240   31.7140  138.7490 C.3   236  LEU236      0.0270
    221  CG        -0.3200   32.0090  137.9110 C.3   236  LEU236      0.0019
    222  CD1       -0.1180   31.6320  136.4590 C.3   236  LEU236      0.0001
    223  CD2       -1.5030   31.2600  138.4910 C.3   236  LEU236      0.0001
    224  N         -3.0250   39.8870  138.5900 N.3   248  LEU248     -0.1245
    225  CA        -3.9120   38.7400  138.5010 C.3   248  LEU248      0.1561
    226  C         -5.3070   39.1360  138.9690 C.2   248  LEU248      0.2260
    227  O         -5.4680   40.0000  139.8370 O.2   248  LEU248     -0.2867
    228  CB        -3.3800   37.5820  139.3450 C.3   248  LEU248      0.0270
    229  CG        -3.7790   36.1700  138.9160 C.3   248  LEU248      0.0019
    230  CD1       -3.1520   35.8300  137.5710 C.3   248  LEU248      0.0001
    231  CD2       -3.3730   35.1560  139.9710 C.3   248  LEU248      0.0001
    232  N         -9.2920   35.1590  140.7720 N.3   252  LEU252     -0.1245
    233  CA        -8.2110   34.2000  140.5650 C.3   252  LEU252      0.1561
    234  C         -7.1890   34.2710  141.6940 C.2   252  LEU252      0.2260
    235  O         -6.6320   33.2440  142.1020 O.2   252  LEU252     -0.2867
    236  CB        -7.5440   34.4470  139.2120 C.3   252  LEU252      0.0270
    237  CG        -8.0510   33.6740  137.9900 C.3   252  LEU252      0.0019
    238  CD1       -9.5680   33.6190  137.9430 C.3   252  LEU252      0.0001
    239  CD2       -7.5020   34.3000  136.7120 C.3   252  LEU252      0.0001
    240  N         -6.1920   30.9950  143.9030 N.3   256  TYR256     -0.1241
    241  CA        -4.8440   30.4370  143.9700 C.3   256  TYR256      0.1605
    242  C         -4.1950   30.5680  145.3430 C.2   256  TYR256      0.2264
    243  O         -3.1440   29.9570  145.5660 O.2   256  TYR256     -0.2867
    244  CB        -3.9430   31.1010  142.9250 C.3   256  TYR256      0.0534
    245  CG        -4.1920   30.6570  141.4990 C.ar  256  TYR256     -0.0201
    246  CD1       -3.9470   29.3480  141.1030 C.ar  256  TYR256     -0.0009
    247  CD2       -4.6480   31.5540  140.5420 C.ar  256  TYR256     -0.0009
    248  CE1       -4.1660   28.9420  139.7980 C.ar  256  TYR256      0.0417
    249  CE2       -4.8710   31.1580  139.2350 C.ar  256  TYR256      0.0417
    250  CZ        -4.6250   29.8520  138.8690 C.ar  256  TYR256      0.1957
    251  OH        -4.8420   29.4550  137.5700 O.3   256  TYR256     -0.2866
@<TRIPOS>BOND
     1     1     2    1
     2     3     2    1
     3     3     4    2
     4     2     5    1
     5     9    10    1
     6    11    10    1
     7    11    12    2
     8     5     6    1
     9    10    13    1
    10    13    14    1
    11   147   145    1
    12     6     8    1
    13     6     7    1
    14   162   163    1
    15   164   163    1
    16   164   165    2
    17    14    15    1
    18   163   166    1
    19    16    15   ar
    20    15    17   ar
    21   145   146    1
    22   145   144    1
    23   166   167    1
    24   167   168    1
    25    28    26    1
    26   133   134    1
    27   136   135    2
    28   155   153    1
    29   170   171    1
    30   153   152    1
    31   144   141    1
    32   151   150    2
    33   141   140    1
    34   141   142    1
    35   135   140   am
    36   135   134    1
    37   169   168    1
    38   159   158    2
    39    27    26    1
    40   148   142   am
    41   148   149    1
    42   134   137    1
    43    26    25    2
    44   161   160    1
    45   160   157    1
    46   142   143    2
    47   150   149    1
    48   150   156   am
    49   152   149    1
    50   152   154    1
    51   171   172    1
    52   171   174    1
    53   158   157    1
    54    25    24    1
    55    36    34    1
    56   157   156    1
    57   172   173    2
    58   175   174    1
    59   175   176    1
    60   175   177    1
    61   137   138    1
    62   137   139    1
    63    34    33    1
    64    24    23    1
    65    33    35    1
    66    33    30    1
    67    22    23    1
    68    22    19    1
    69    30    29    1
    70    30    31    1
    71    29    20   am
    72    20    19    1
    73    20    21    2
    74   128   127    2
    75    19    18    1
    76   193   194    1
    77   193   190    1
    78   196   195    1
    79   194   195    1
    80    31    32    2
    81    31    37   am
    82   192   191    2
    83   191   190    1
    84   131   130    1
    85   127   126    1
    86   200   199    2
    87   190   189    1
    88   199   198    1
    89    37    38    1
    90    49    48    1
    91    49    50    1
    92   130   132    1
    93   130   129    1
    94    57    56    1
    95   189   180   am
    96   126   129    1
    97   126   125    1
    98    50    52   am
    99    50    51    2
   100    76    74   ar
   101    76    77   ar
   102    52    53    1
   103    84    83    1
   104    84    85    1
   105   201   198    1
   106   201   202    1
   107   198   197    1
   108   178   179    1
   109    83    82    1
   110    74    72   ar
   111    85    86    2
   112    38    39    1
   113    38    41    1
   114    82    79    1
   115    77    75   ar
   116   180   179    1
   117   180   181    2
   118    86    88    1
   119    86    87    1
   120    53    56    1
   121    53    54    1
   122   179   182    1
   123    39    40    2
   124    41    42    1
   125   182   183    1
   126   202   203    1
   127    72    71    1
   128    72    73   ar
   129    79    78    1
   130    79    80    1
   131    75    73   ar
   132   116   115    2
   133   203   204    1
   134    78    69   am
   135    71    68    1
   136    54    55    2
   137    54    58   am
   138   183   184   ar
   139   183   185   ar
   140    42    43   ar
   141    42    44   ar
   142    43    45   ar
   143   184   186   ar
   144    58    59    1
   145    69    68    1
   146    69    70    2
   147    80    81    2
   148    80    89   am
   149   108   107    2
   150   115   114    1
   151    68    67    1
   152    67    60   am
   153   204   205    1
   154   185   187   ar
   155    44    46   ar
   156   114   117    1
   157   114   113    1
   158    45    47   ar
   159   186   188   ar
   160    89    90    1
   161   119   121   ar
   162   119   118   ar
   163   107   113   am
   164   107   106    1
   165    59    60    1
   166    59    62    1
   167    60    61    2
   168   117   118    1
   169   121   123   ar
   170   187   188   ar
   171   111   109    1
   172    62    63    1
   173   118   120   ar
   174    46    47   ar
   175    90    93    1
   176    90    91    1
   177    94    93    1
   178    63    64    1
   179   106   109    1
   180   106   105    1
   181   214   212   ar
   182   214   215   ar
   183    66    64   am
   184   123   124    1
   185   123   122   ar
   186   212   211   ar
   187   109   110    1
   188   120   122   ar
   189    91    92    2
   190    64    65    2
   191   110   112    1
   192   215   213   ar
   193   211   210    1
   194   211   213   ar
   195    98    97    2
   196   210   207    1
   197   222   221    1
   198   207   206    1
   199   207   208    1
   200   239   237    1
   201    97    96    1
   202   102   104   ar
   203   102   100   ar
   204   209   208    2
   205   251   250    1
   206   230   229    1
   207   216   217    1
   208    96    99    1
   209    96    95    1
   210   104   103   ar
   211   221   223    1
   212   221   220    1
   213   238   237    1
   214   237   236    1
   215   217   220    1
   216   217   218    1
   217    99   100    1
   218   100   101   ar
   219   225   224    1
   220   225   226    1
   221   225   228    1
   222   250   249   ar
   223   250   248   ar
   224   229   228    1
   225   229   231    1
   226   226   227    2
   227   218   219    2
   228   103   101   ar
   229   236   233    1
   230   249   247   ar
   231   248   246   ar
   232   247   245   ar
   233   233   232    1
   234   233   234    1
   235   246   245   ar
   236   245   244    1
   237   234   235    2
   238   244   241    1
   239   240   241    1
   240   241   242    1
   241   242   243    2
