@<TRIPOS>MOLECULE
tmp/5u5pC00.pdb
 200 191 0 0 0
SMALL
GASTEIGER

@<TRIPOS>ATOM
      1  N         42.8250   62.2810   51.7440 N.3   209  ASP209     -0.1225
      2  CA        43.2260   62.6450   50.3890 C.3   209  ASP209      0.1805
      3  C         44.7480   62.5170   50.2960 C.2   209  ASP209      0.2598
      4  O         45.5070   63.4740   50.4600 O.2   209  ASP209     -0.2718
      5  CB        42.7320   64.0420   50.0560 C.3   209  ASP209      0.1424
      6  CG        43.0400   64.4480   48.6300 C.2   209  ASP209      0.3668
      7  OD1       43.5540   63.6170   47.8490 O.co2 209  ASP209     -0.2456
      8  OD2       42.7360   65.6010   48.2830 O.co2 209  ASP209     -0.2456
      9  N         45.1990   61.2950   50.0430 N.am  210  GLY210     -0.1943
     10  CA        46.6130   61.0220   49.9400 C.3   210  GLY210      0.1998
     11  C         46.8790   59.5480   49.7100 C.2   210  GLY210      0.2481
     12  O         46.0080   58.8030   49.2490 O.2   210  GLY210     -0.2729
     13  N         48.0930   59.1030   50.0290 N.am  211  PRO211     -0.2715
     14  CA        48.4500   57.6910   49.8350 C.3   211  PRO211      0.1536
     15  C         47.7190   56.7810   50.8140 C.2   211  PRO211      0.2598
     16  O         47.1330   57.2160   51.8120 O.2   211  PRO211     -0.2715
     17  CB        49.9640   57.6640   50.0920 C.3   211  PRO211      0.0310
     18  CG        50.3940   59.0990   50.0880 C.3   211  PRO211      0.0237
     19  CD        49.2240   59.8880   50.5440 C.3   211  PRO211      0.0939
     20  N         47.8200   55.4740   50.5340 N.am  212  ASN212     -0.1973
     21  CA        47.0370   54.4820   51.2660 C.3   212  ASN212      0.1688
     22  C         47.3550   54.4970   52.7560 C.2   212  ASN212      0.2292
     23  O         46.4910   54.1820   53.5870 O.2   212  ASN212     -0.2864
     24  CB        47.2790   53.0870   50.6730 C.3   212  ASN212      0.1181
     25  CG        46.7270   52.9460   49.2530 C.2   212  ASN212      0.2629
     26  OD1       46.2320   53.9120   48.6590 O.2   212  ASN212     -0.2716
     27  ND2       46.8130   51.7350   48.7020 N.am  212  ASN212     -0.0877
     28  N         33.2380   63.1470   50.0600 N.3   244  ARG244     -0.1245
     29  CA        34.6280   63.2790   49.6350 C.3   244  ARG244      0.1563
     30  C         35.5220   62.3520   50.4390 C.2   244  ARG244      0.2260
     31  O         36.4340   61.7200   49.8850 O.2   244  ARG244     -0.2867
     32  CB        35.1080   64.7280   49.7790 C.3   244  ARG244      0.0307
     33  CG        34.3950   65.7010   48.8570 C.3   244  ARG244      0.0489
     34  CD        34.9840   67.1050   48.9910 C.3   244  ARG244      0.2205
     35  NE        36.3980   67.1460   48.6150 N.pl3 244  ARG244     -0.0865
     36  CZ        36.8300   67.3480   47.3710 C.cat 244  ARG244      0.5346
     37  NH1       35.9640   67.5330   46.3850 N.pl3 244  ARG244      0.1354
     38  NH2       38.1320   67.3750   47.1110 N.pl3 244  ARG244      0.1354
     39  N         37.5630   59.3370   48.9240 N.3   248  ASN248     -0.1240
     40  CA        39.0100   59.2370   49.1070 C.3   248  ASN248      0.1653
     41  C         39.4000   57.8680   49.6340 C.2   248  ASN248      0.2266
     42  O         40.3970   57.2840   49.1950 O.2   248  ASN248     -0.2867
     43  CB        39.5040   60.3050   50.0790 C.3   248  ASN248      0.1155
     44  CG        39.4600   61.7000   49.5060 C.2   248  ASN248      0.2627
     45  OD1       39.4030   61.9000   48.2930 O.2   248  ASN248     -0.2716
     46  ND2       39.4770   62.6900   50.3960 N.am  248  ASN248     -0.0877
     47  N         37.9580   55.0110   49.2350 N.3   250  VAL250     -0.1231
     48  CA        37.8780   53.9520   48.2350 C.3   250  VAL250      0.1692
     49  C         38.8810   54.1390   47.1180 C.2   250  VAL250      0.2593
     50  O         38.9560   53.2800   46.2340 O.2   250  VAL250     -0.2718
     51  CB        36.4620   53.7860   47.6470 C.3   250  VAL250      0.0266
     52  CG1       35.4590   53.5880   48.7590 C.3   250  VAL250      0.0020
     53  CG2       36.0900   54.9440   46.7520 C.3   250  VAL250      0.0020
     54  N         39.6810   55.2160   47.1340 N.am  251  THR251     -0.1939
     55  CA        40.8390   55.2500   46.2460 C.3   251  THR251      0.2028
     56  C         41.9980   54.4190   46.7720 C.2   251  THR251      0.2643
     57  O         43.0100   54.2960   46.0790 O.2   251  THR251     -0.2714
     58  CB        41.3660   56.6720   46.0460 C.3   251  THR251      0.1808
     59  OG1       41.9770   57.1010   47.2680 O.3   251  THR251     -0.2208
     60  CG2       40.2510   57.6240   45.6360 C.3   251  THR251      0.0379
     61  N         41.8940   53.8900   47.9850 N.am  252  GLY252     -0.1939
     62  CA        42.9860   53.1590   48.5960 C.3   252  GLY252      0.2014
     63  C         43.0060   51.7070   48.1690 C.2   252  GLY252      0.2640
     64  O         42.7960   51.4040   46.9900 O.2   252  GLY252     -0.2714
     65  N         43.2510   50.8070   49.1200 N.am  253  THR253     -0.1936
     66  CA        43.3250   49.3870   48.8300 C.3   253  THR253      0.2028
     67  C         41.9250   48.7980   48.7040 C.2   253  THR253      0.2642
     68  O         40.9270   49.3860   49.1440 O.2   253  THR253     -0.2714
     69  CB        44.0770   48.6260   49.9290 C.3   253  THR253      0.1808
     70  OG1       43.3200   48.6720   51.1460 O.3   253  THR253     -0.2208
     71  CG2       45.4540   49.2160   50.1840 C.3   253  THR253      0.0379
     72  N         41.8720   47.5930   48.1300 N.am  254  ASP254     -0.1957
     73  CA        40.6290   46.8310   48.1230 C.3   254  ASP254      0.1840
     74  C         40.1050   46.6070   49.5320 C.2   254  ASP254      0.2621
     75  O         38.8860   46.5890   49.7410 O.2   254  ASP254     -0.2715
     76  CB        40.8440   45.4970   47.4120 C.3   254  ASP254      0.1450
     77  CG        41.2400   45.6730   45.9640 C.2   254  ASP254      0.3671
     78  OD1       40.9820   46.7550   45.4020 O.co2 254  ASP254     -0.2456
     79  OD2       41.8170   44.7310   45.3830 O.co2 254  ASP254     -0.2456
     80  N         41.0060   46.4620   50.5140 N.am  255  GLU255     -0.1977
     81  CA        40.5810   46.2250   51.8920 C.3   255  GLU255      0.1602
     82  C         39.9830   47.4830   52.5140 C.2   255  GLU255      0.2287
     83  O         39.0030   47.4090   53.2660 O.2   255  GLU255     -0.2864
     84  CB        41.7640   45.7340   52.7400 C.3   255  GLU255      0.0415
     85  CG        42.3140   44.3330   52.3680 C.3   255  GLU255      0.1163
     86  CD        43.1170   44.3250   51.0690 C.2   255  GLU255      0.3649
     87  OE1       43.5370   45.4130   50.6000 O.co2 255  GLU255     -0.2457
     88  OE2       43.3120   43.2230   50.5060 O.co2 255  GLU255     -0.2457
     89  N         38.6310   49.8690   50.7250 N.3   257  THR257     -0.1218
     90  CA        37.3710   49.9860   50.0010 C.3   257  THR257      0.1862
     91  C         36.3150   49.0740   50.6020 C.2   257  THR257      0.2287
     92  O         35.1490   49.4590   50.7340 O.2   257  THR257     -0.2866
     93  CB        37.5920   49.6570   48.5300 C.3   257  THR257      0.1770
     94  OG1       38.6070   50.5140   47.9960 O.3   257  THR257     -0.2211
     95  CG2       36.3040   49.8300   47.7180 C.3   257  THR257      0.0375
     96  N         30.7990   63.3240   42.5350 N.3   283  GLU283     -0.1245
     97  CA        31.6020   62.6650   43.5650 C.3   283  GLU283      0.1567
     98  C         31.1430   61.2370   43.7780 C.2   283  GLU283      0.2260
     99  O         31.9610   60.3130   43.8660 O.2   283  GLU283     -0.2867
    100  CB        31.5070   63.4150   44.8940 C.3   283  GLU283      0.0388
    101  CG        32.3790   64.6610   45.0150 C.3   283  GLU283      0.1160
    102  CD        33.8640   64.3510   45.0740 C.2   283  GLU283      0.3649
    103  OE1       34.2650   63.4060   45.7840 O.co2 283  GLU283     -0.2457
    104  OE2       34.6300   65.0610   44.4020 O.co2 283  GLU283     -0.2457
    105  N         32.1940   59.1880   40.7300 N.3   286  TRP286     -0.1241
    106  CA        33.6310   58.9490   40.8290 C.3   286  TRP286      0.1605
    107  C         33.9220   57.8630   41.8570 C.2   286  TRP286      0.2264
    108  O         34.6370   56.8910   41.5790 O.2   286  TRP286     -0.2867
    109  CB        34.3470   60.2580   41.1870 C.3   286  TRP286      0.0550
    110  CG        35.7820   60.0840   41.5810 C.ar  286  TRP286      0.0003
    111  CD1       36.8250   59.7450   40.7600 C.ar  286  TRP286      0.0946
    112  CD2       36.3400   60.2390   42.8900 C.ar  286  TRP286      0.0152
    113  NE1       37.9940   59.6790   41.4790 N.ar  286  TRP286     -0.2442
    114  CE2       37.7300   59.9800   42.7870 C.ar  286  TRP286      0.0810
    115  CE3       35.8080   60.5780   44.1350 C.ar  286  TRP286      0.0012
    116  CZ2       38.5900   60.0500   43.8810 C.ar  286  TRP286      0.0191
    117  CZ3       36.6750   60.6490   45.2360 C.ar  286  TRP286      0.0001
    118  CH2       38.0460   60.3810   45.0950 C.ar  286  TRP286      0.0015
    119  N         32.9950   54.6060   40.4910 N.3   289  SER289     -0.1202
    120  CA        33.9850   54.1510   39.5210 C.3   289  SER289      0.2020
    121  C         35.1750   53.4860   40.1940 C.2   289  SER289      0.2618
    122  O         35.7650   52.5580   39.6300 O.2   289  SER289     -0.2717
    123  CB        34.4640   55.3210   38.6610 C.3   289  SER289      0.2103
    124  OG        35.3930   56.1190   39.3780 O.3   289  SER289     -0.2182
    125  N         35.5520   53.9500   41.3870 N.am  290  ASN290     -0.1974
    126  CA        36.6540   53.3400   42.1160 C.3   290  ASN290      0.1688
    127  C         36.2190   52.1040   42.8650 C.2   290  ASN290      0.2292
    128  O         37.0590   51.2600   43.1950 O.2   290  ASN290     -0.2864
    129  CB        37.2780   54.3450   43.0910 C.3   290  ASN290      0.1181
    130  CG        38.2440   55.2730   42.4020 C.2   290  ASN290      0.2629
    131  OD1       38.9050   54.8800   41.4460 O.2   290  ASN290     -0.2716
    132  ND2       38.3200   56.5120   42.8610 N.am  290  ASN290     -0.0877
    133  N         36.3460   49.5220   40.2200 N.3   293  ALA293     -0.1231
    134  CA        37.7310   49.1570   39.9770 C.3   293  ALA293      0.1694
    135  C         38.2370   48.1300   40.9740 C.2   293  ALA293      0.2592
    136  O         39.3950   47.7200   40.8790 O.2   293  ALA293     -0.2718
    137  CB        38.6210   50.3990   40.0240 C.3   293  ALA293      0.0304
    138  N         37.4060   47.7140   41.9220 N.am  294  GLY294     -0.1957
    139  CA        37.7900   46.7510   42.9310 C.3   294  GLY294      0.1869
    140  C         37.5910   45.3160   42.4860 C.2   294  GLY294      0.2309
    141  O         37.5290   45.0030   41.2930 O.2   294  GLY294     -0.2863
    142  N         30.6730   65.8750   33.2360 N.3   321  LYS321     -0.1245
    143  CA        31.7540   65.3730   34.0820 C.3   321  LYS321      0.1561
    144  C         31.3060   64.1860   34.9290 C.2   321  LYS321      0.2260
    145  O         32.1170   63.3040   35.2390 O.2   321  LYS321     -0.2867
    146  CB        32.2980   66.5030   34.9600 C.3   321  LYS321      0.0271
    147  CG        32.9790   67.6050   34.1510 C.3   321  LYS321      0.0035
    148  CD        34.1040   68.2730   34.9240 C.3   321  LYS321      0.0206
    149  CE        33.6260   69.5230   35.6380 C.3   321  LYS321      0.1093
    150  NZ        34.7660   70.3190   36.1820 N.3   321  LYS321     -0.1314
    151  N         31.2020   61.2750   32.5100 N.3   324  LYS324     -0.1231
    152  CA        32.5490   60.7470   32.3180 C.3   324  LYS324      0.1693
    153  C         32.9540   59.8360   33.4730 C.2   324  LYS324      0.2591
    154  O         33.5910   58.8000   33.2570 O.2   324  LYS324     -0.2718
    155  CB        33.5550   61.8920   32.1490 C.3   324  LYS324      0.0285
    156  CG        34.9410   61.4230   31.6640 C.3   324  LYS324      0.0035
    157  CD        35.9870   62.5340   31.7220 C.3   324  LYS324      0.0206
    158  CE        35.5550   63.7520   30.9170 C.3   324  LYS324      0.1093
    159  NZ        36.0680   65.0480   31.4760 N.3   324  LYS324     -0.1314
    160  N         32.5850   60.1920   34.7090 N.am  325  GLU325     -0.1979
    161  CA        32.8530   59.2860   35.8250 C.3   325  GLU325      0.1602
    162  C         32.0320   58.0130   35.7100 C.2   325  GLU325      0.2287
    163  O         32.4890   56.9400   36.1260 O.2   325  GLU325     -0.2864
    164  CB        32.5780   59.9710   37.1610 C.3   325  GLU325      0.0415
    165  CG        33.5310   61.1170   37.4940 C.3   325  GLU325      0.1163
    166  CD        34.9950   60.6830   37.5390 C.2   325  GLU325      0.3649
    167  OE1       35.2850   59.5150   37.8950 O.co2 325  GLU325     -0.2457
    168  OE2       35.8650   61.5190   37.2180 O.co2 325  GLU325     -0.2457
    169  N         33.8830   55.9030   33.2040 N.3   328  TRP328     -0.1241
    170  CA        34.9550   55.2470   33.9530 C.3   328  TRP328      0.1605
    171  C         34.4160   54.1160   34.8160 C.2   328  TRP328      0.2264
    172  O         35.0110   53.0320   34.8710 O.2   328  TRP328     -0.2867
    173  CB        35.7000   56.2620   34.8240 C.3   328  TRP328      0.0550
    174  CG        36.8340   56.9290   34.1270 C.ar  328  TRP328      0.0003
    175  CD1       36.9100   58.2400   33.7430 C.ar  328  TRP328      0.0946
    176  CD2       38.0610   56.3170   33.7170 C.ar  328  TRP328      0.0152
    177  NE1       38.1130   58.4780   33.1200 N.ar  328  TRP328     -0.2442
    178  CE2       38.8400   57.3170   33.0970 C.ar  328  TRP328      0.0810
    179  CE3       38.5740   55.0190   33.8090 C.ar  328  TRP328      0.0012
    180  CZ2       40.1110   57.0630   32.5790 C.ar  328  TRP328      0.0191
    181  CZ3       39.8400   54.7670   33.2920 C.ar  328  TRP328      0.0001
    182  CH2       40.5920   55.7860   32.6890 C.ar  328  TRP328      0.0015
    183  N         35.8680   50.3590   34.3300 N.3   332  ASN332     -0.1240
    184  CA        36.4210   49.6390   35.4760 C.3   332  ASN332      0.1653
    185  C         35.6240   48.3780   35.7450 C.2   332  ASN332      0.2266
    186  O         36.1920   47.2950   35.9310 O.2   332  ASN332     -0.2867
    187  CB        36.4350   50.5260   36.7230 C.3   332  ASN332      0.1155
    188  CG        37.3840   51.7080   36.5900 C.2   332  ASN332      0.2627
    189  OD1       38.1700   51.7810   35.6500 O.2   332  ASN332     -0.2716
    190  ND2       37.3100   52.6400   37.5330 N.am  332  ASN332     -0.0877
    191  N         36.3780   45.8180   33.1500 N.3   335  SER335     -0.1202
    192  CA        37.7440   45.3100   33.2750 C.3   335  SER335      0.2020
    193  C         37.8520   44.2460   34.3570 C.2   335  SER335      0.2619
    194  O         38.6110   43.2800   34.2160 O.2   335  SER335     -0.2717
    195  CB        38.7060   46.4530   33.6010 C.3   335  SER335      0.2103
    196  OG        38.7790   47.3570   32.5260 O.3   335  SER335     -0.2182
    197  N         37.1360   44.4170   35.4560 N.am  336  GLY336     -0.1956
    198  CA        37.3550   43.5200   36.5650 C.3   336  GLY336      0.1869
    199  C         36.2320   42.5370   36.7510 C.2   336  GLY336      0.2309
    200  O         36.3410   41.6030   37.5550 O.2   336  GLY336     -0.2863
@<TRIPOS>BOND
     1   158   159    1
     2   158   157    1
     3   156   157    1
     4   156   155    1
     5   155   152    1
     6   152   151    1
     7   152   153    1
     8   196   195    1
     9   180   182   ar
    10   180   178   ar
    11   182   181   ar
    12   178   177   ar
    13   178   176   ar
    14   177   175   ar
    15   191   192    1
    16   169   170    1
    17   142   143    1
    18   154   153    2
    19   192   195    1
    20   192   193    1
    21   181   179   ar
    22   153   160   am
    23   176   179   ar
    24   176   174   ar
    25   175   174   ar
    26   170   171    1
    27   170   173    1
    28   143   144    1
    29   143   146    1
    30   174   173    1
    31   147   148    1
    32   147   146    1
    33   194   193    2
    34   183   184    1
    35   193   197   am
    36   160   161    1
    37   171   172    2
    38   148   149    1
    39   144   145    2
    40   197   198    1
    41   184   185    1
    42   184   187    1
    43   149   150    1
    44   189   188    2
    45   162   161    1
    46   162   163    2
    47   185   186    2
    48   161   164    1
    49   198   199    1
    50   188   187    1
    51   188   190   am
    52   199   200    2
    53   164   165    1
    54   168   166   ar
    55   165   166    1
    56   166   167   ar
    57   123   124    1
    58   123   120    1
    59   120   121    1
    60   120   119    1
    61   122   121    2
    62   134   137    1
    63   134   133    1
    64   134   135    1
    65   121   125   am
    66   105   106    1
    67   111   113   ar
    68   111   110   ar
    69   106   109    1
    70   106   107    1
    71   136   135    2
    72   135   138   am
    73   109   110    1
    74   141   140    2
    75   125   126    1
    76   131   130    2
    77   113   114   ar
    78   108   107    2
    79   110   112   ar
    80   138   139    1
    81   126   127    1
    82   126   129    1
    83   130   132   am
    84   130   129    1
    85   140   139    1
    86    96    97    1
    87   114   112   ar
    88   114   116   ar
    89   127   128    2
    90   112   115   ar
    91    97    98    1
    92    97   100    1
    93    98    99    2
    94   116   118   ar
    95   115   117   ar
    96   104   102   ar
    97   100   101    1
    98   101   102    1
    99   102   103   ar
   100   118   117   ar
   101    79    77   ar
   102    78    77   ar
   103    60    58    1
   104    77    76    1
   105    58    55    1
   106    58    59    1
   107    57    56    2
   108    50    49    2
   109    55    56    1
   110    55    54    1
   111    37    36    1
   112    53    51    1
   113    56    61   am
   114    64    63    2
   115    38    36    1
   116    49    54   am
   117    49    48    1
   118    36    35    2
   119    76    73    1
   120    51    48    1
   121    51    52    1
   122    95    93    1
   123     7     6   ar
   124    61    62    1
   125    94    93    1
   126    73    72    1
   127    73    74    1
   128    72    67   am
   129    63    62    1
   130    63    65   am
   131    48    47    1
   132     8     6   ar
   133    45    44    2
   134    93    90    1
   135    35    34    1
   136     6     5    1
   137    26    25    2
   138    27    25   am
   139    67    66    1
   140    67    68    2
   141    66    65    1
   142    66    69    1
   143    33    34    1
   144    33    32    1
   145    39    40    1
   146    40    41    1
   147    40    43    1
   148    42    41    2
   149    12    11    2
   150    25    24    1
   151    44    43    1
   152    44    46   am
   153    74    75    2
   154    74    80   am
   155    29    32    1
   156    29    28    1
   157    29    30    1
   158    11    10    1
   159    11    13   am
   160    14    13    1
   161    14    17    1
   162    14    15    1
   163    31    30    2
   164    69    71    1
   165    69    70    1
   166    10     9    1
   167    90    91    1
   168    90    89    1
   169    13    19    1
   170     9     3   am
   171     5     2    1
   172    18    17    1
   173    18    19    1
   174     3     2    1
   175     3     4    2
   176     2     1    1
   177    88    86   ar
   178    80    81    1
   179    20    15   am
   180    20    21    1
   181    87    86   ar
   182    91    92    2
   183    24    21    1
   184    15    16    2
   185    86    85    1
   186    21    22    1
   187    81    82    1
   188    81    84    1
   189    85    84    1
   190    82    83    2
   191    22    23    2
