@<TRIPOS>MOLECULE
tmp/5u5tA00.pdb
 120 112 0 0 0
SMALL
GASTEIGER

@<TRIPOS>ATOM
      1  N         31.1110   75.8700  101.2940 N.3    19  PHE19      -0.1241
      2  CA        30.1460   75.1000  100.5260 C.3    19  PHE19       0.1605
      3  C         29.4430   74.0070  101.2870 C.2    19  PHE19       0.2264
      4  O         28.4470   73.4730  100.7990 O.2    19  PHE19      -0.2867
      5  CB        30.8310   74.4800   99.2960 C.3    19  PHE19       0.0534
      6  CG        31.2670   75.4970   98.2700 C.ar   19  PHE19      -0.0203
      7  CD1       30.3310   76.2650   97.5880 C.ar   19  PHE19      -0.0042
      8  CD2       32.6120   75.6590   97.9630 C.ar   19  PHE19      -0.0042
      9  CE1       30.7390   77.2090   96.6330 C.ar   19  PHE19      -0.0003
     10  CE2       33.0200   76.5840   96.9880 C.ar   19  PHE19      -0.0003
     11  CZ        32.0800   77.3390   96.3210 C.ar   19  PHE19      -0.0000
     12  N         34.4940   70.9600   98.9390 N.3    70  TYR70      -0.1241
     13  CA        33.0900   71.1780   98.5770 C.3    70  TYR70       0.1605
     14  C         32.1080   70.4990   99.5070 C.2    70  TYR70       0.2264
     15  O         30.9170   70.8340   99.5050 O.2    70  TYR70      -0.2867
     16  CB        32.8510   70.6090   97.1710 C.3    70  TYR70       0.0534
     17  CG        33.5870   71.3040   96.0430 C.ar   70  TYR70      -0.0201
     18  CD1       33.9160   72.6590   96.1240 C.ar   70  TYR70      -0.0009
     19  CD2       33.8330   70.6460   94.8430 C.ar   70  TYR70      -0.0009
     20  CE1       34.5490   73.3170   95.0700 C.ar   70  TYR70       0.0417
     21  CE2       34.4820   71.2880   93.7860 C.ar   70  TYR70       0.0417
     22  CZ        34.8190   72.6280   93.8960 C.ar   70  TYR70       0.1957
     23  OH        35.4170   73.2610   92.8330 O.3    70  TYR70      -0.2866
     24  N         36.9170   66.5500   90.3260 N.3   114  ALA114     -0.1245
     25  CA        36.3240   67.0990   91.5330 C.3   114  ALA114      0.1562
     26  C         35.2370   66.2240   92.1330 C.2   114  ALA114      0.2260
     27  O         34.4820   65.5700   91.3990 O.2   114  ALA114     -0.2867
     28  CB        35.7730   68.4920   91.2550 C.3   114  ALA114      0.0290
     29  N         31.8970   66.3540   94.3250 N.3   116  ASN116     -0.1240
     30  CA        30.8430   67.3190   94.6800 C.3   116  ASN116      0.1653
     31  C         30.0710   66.9830   95.9560 C.2   116  ASN116      0.2266
     32  O         29.5300   67.8990   96.5750 O.2   116  ASN116     -0.2867
     33  CB        29.8900   67.5110   93.5090 C.3   116  ASN116      0.1155
     34  CG        30.5430   68.1750   92.3280 C.2   116  ASN116      0.2627
     35  OD1       31.3180   69.1190   92.4820 O.2   116  ASN116     -0.2716
     36  ND2       30.3570   67.6070   91.1320 N.am  116  ASN116     -0.0877
     37  N         32.6200   65.0320   89.3090 N.3   133  LYS133     -0.1245
     38  CA        32.7160   65.7660   88.0480 C.3   133  LYS133      0.1561
     39  C         33.0290   64.7950   86.8720 C.2   133  LYS133      0.2260
     40  O         32.7300   65.1390   85.7400 O.2   133  LYS133     -0.2867
     41  CB        33.7990   66.8660   88.1710 C.3   133  LYS133      0.0271
     42  CG        34.0940   67.6300   86.8810 C.3   133  LYS133      0.0035
     43  CD        34.7660   68.9750   87.1470 C.3   133  LYS133      0.0206
     44  CE        35.0920   69.6850   85.8450 C.3   133  LYS133      0.1093
     45  NZ        35.8070   70.9670   86.0720 N.3   133  LYS133     -0.1314
     46  N         28.5420   66.0350   85.1620 N.3   160  GLU160     -0.1245
     47  CA        28.8730   65.9720   86.5990 C.3   160  GLU160      0.1567
     48  C         27.7560   65.5030   87.4840 C.2   160  GLU160      0.2260
     49  O         26.6110   65.9550   87.3500 O.2   160  GLU160     -0.2867
     50  CB        29.2790   67.3330   87.1420 C.3   160  GLU160      0.0388
     51  CG        30.4070   68.0240   86.4240 C.3   160  GLU160      0.1160
     52  CD        30.9860   69.1340   87.2860 C.2   160  GLU160      0.3649
     53  OE1       31.4560   70.1260   86.6970 O.co2 160  GLU160     -0.2457
     54  OE2       31.0530   68.9810   88.5260 O.co2 160  GLU160     -0.2457
     55  N         26.2230   65.8420   90.9450 N.3   162  LEU162     -0.1245
     56  CA        26.2390   66.9240   91.9550 C.3   162  LEU162      0.1561
     57  C         25.8210   66.5180   93.3500 C.2   162  LEU162      0.2260
     58  O         26.1950   67.1790   94.3320 O.2   162  LEU162     -0.2867
     59  CB        25.3300   68.0900   91.4740 C.3   162  LEU162      0.0270
     60  CG        25.7730   68.8170   90.1960 C.3   162  LEU162      0.0019
     61  CD1       24.7620   69.9090   89.8330 C.3   162  LEU162      0.0001
     62  CD2       27.1930   69.4040   90.3420 C.3   162  LEU162      0.0001
     63  N         24.2720   67.4310   86.5400 N.3   178  MET178     -0.1245
     64  CA        24.2640   68.4190   85.4540 C.3   178  MET178      0.1570
     65  C         23.5550   67.9480   84.1800 C.2   178  MET178      0.2261
     66  O         23.1600   68.7890   83.3620 O.2   178  MET178     -0.2867
     67  CB        25.6720   68.9210   85.1570 C.3   178  MET178      0.0387
     68  CG        26.2170   69.8380   86.2650 C.3   178  MET178      0.0595
     69  SD        27.8040   70.4790   85.7060 S.3   178  MET178     -0.1393
     70  CE        28.2760   71.2870   87.0640 C.3   178  MET178      0.0692
     71  N         20.9530   69.8450   91.6060 N.3   224  ASP224     -0.1239
     72  CA        22.0620   70.0020   92.5400 C.3   224  ASP224      0.1674
     73  C         21.8400   69.4870   93.9480 C.2   224  ASP224      0.2266
     74  O         22.7450   69.6330   94.7750 O.2   224  ASP224     -0.2867
     75  CB        22.4880   71.4800   92.5810 C.3   224  ASP224      0.1410
     76  CG        21.3940   72.4670   92.9340 C.2   224  ASP224      0.3668
     77  OD1       20.2330   72.0510   93.0490 O.co2 224  ASP224     -0.2456
     78  OD2       21.6990   73.6640   93.0590 O.co2 224  ASP224     -0.2456
     79  N         24.1410   75.2980   92.5650 N.3   279  TYR279     -0.1227
     80  CA        24.9080   74.7540   93.6940 C.3   279  TYR279      0.1736
     81  C         24.4560   75.2940   95.0420 C.2   279  TYR279      0.2595
     82  O         25.2150   75.9390   95.7600 O.2   279  TYR279     -0.2718
     83  CB        26.4440   74.9520   93.4840 C.3   279  TYR279      0.0548
     84  CG        26.8800   74.7110   92.0610 C.ar  279  TYR279     -0.0200
     85  CD1       26.6350   73.4870   91.4310 C.ar  279  TYR279     -0.0009
     86  CD2       27.4920   75.7170   91.3230 C.ar  279  TYR279     -0.0009
     87  CE1       26.9640   73.2870   90.0900 C.ar  279  TYR279      0.0417
     88  CE2       27.8510   75.5210   89.9910 C.ar  279  TYR279      0.0417
     89  CZ        27.5890   74.3040   89.3810 C.ar  279  TYR279      0.1957
     90  OH        27.9200   74.1240   88.0640 O.3   279  TYR279     -0.2866
     91  N         23.1940   75.0040   95.3700 N.am  280  MET280     -0.1965
     92  CA        22.5440   75.3930   96.6100 C.3   280  MET280      0.1736
     93  C         21.8460   74.1680   97.1930 C.2   280  MET280      0.2616
     94  O         20.9330   73.6160   96.5760 O.2   280  MET280     -0.2715
     95  CB        21.5540   76.5570   96.3640 C.3   280  MET280      0.0427
     96  CG        22.1760   77.7760   95.6760 C.3   280  MET280      0.0599
     97  SD        23.0870   78.7710   96.8960 S.3   280  MET280     -0.1393
     98  CE        21.6800   79.6920   97.7170 C.3   280  MET280      0.0692
     99  N         22.2870   73.7230   98.3830 N.am  281  ARG281     -0.1977
    100  CA        21.7130   72.5190   98.9950 C.3   281  ARG281      0.1597
    101  C         20.5560   72.7920   99.8940 C.2   281  ARG281      0.2287
    102  O         20.6100   73.7580  100.6630 O.2   281  ARG281     -0.2864
    103  CB        22.7320   71.8580   99.9430 C.3   281  ARG281      0.0334
    104  CG        24.0850   71.6110   99.3860 C.3   281  ARG281      0.0492
    105  CD        24.1140   70.2650   98.7300 C.3   281  ARG281      0.2205
    106  NE        25.4830   69.9040   98.4200 N.pl3 281  ARG281     -0.0865
    107  CZ        25.8290   69.1200   97.4140 C.cat 281  ARG281      0.5346
    108  NH1       27.1010   68.8550   97.1860 N.pl3 281  ARG281      0.1354
    109  NH2       24.9030   68.6240   96.6010 N.pl3 281  ARG281      0.1354
    110  N         24.9420   78.4600  101.1040 N.3   322  ARG322     -0.1245
    111  CA        25.2290   77.2680  100.2870 C.3   322  ARG322      0.1563
    112  C         24.6780   75.9720  100.8510 C.2   322  ARG322      0.2260
    113  O         24.2860   75.0730  100.0950 O.2   322  ARG322     -0.2867
    114  CB        26.7270   77.1390   99.9940 C.3   322  ARG322      0.0307
    115  CG        27.2700   78.2790   99.1380 C.3   322  ARG322      0.0489
    116  CD        26.8080   78.1360   97.6900 C.3   322  ARG322      0.2205
    117  NE        27.1930   79.2930   96.8800 N.pl3 322  ARG322     -0.0865
    118  CZ        26.9370   79.4020   95.5820 C.cat 322  ARG322      0.5346
    119  NH1       27.2960   80.4970   94.9170 N.pl3 322  ARG322      0.1354
    120  NH2       26.3030   78.4280   94.9390 N.pl3 322  ARG322      0.1354
@<TRIPOS>BOND
     1    66    65    2
     2    65    64    1
     3    67    64    1
     4    67    68    1
     5    46    47    1
     6    64    63    1
     7    69    68    1
     8    69    70    1
     9    40    39    2
    10    44    45    1
    11    44    43    1
    12    51    50    1
    13    51    52    1
    14    47    50    1
    15    47    48    1
    16    53    52   ar
    17    39    38    1
    18    42    43    1
    19    42    41    1
    20    52    54   ar
    21    49    48    2
    22    38    41    1
    23    38    37    1
    24    90    89    1
    25    89    88   ar
    26    89    87   ar
    27    61    60    1
    28    88    86   ar
    29    87    85   ar
    30    60    62    1
    31    60    59    1
    32    24    25    1
    33    55    56    1
    34    36    34   am
    35    28    25    1
    36    86    84   ar
    37    27    26    2
    38    85    84   ar
    39    59    56    1
    40    25    26    1
    41    71    72    1
    42    56    57    1
    43    84    83    1
    44    34    35    2
    45    34    33    1
    46    72    75    1
    47    72    73    1
    48    79    80    1
    49    75    76    1
    50    23    22    1
    51    76    77   ar
    52    76    78   ar
    53    57    58    2
    54    83    80    1
    55    33    30    1
    56    80    81    1
    57    21    22   ar
    58    21    19   ar
    59    22    20   ar
    60    73    74    2
    61    29    30    1
    62    30    31    1
    63    19    17   ar
    64   119   118    1
    65   120   118    1
    66    81    91   am
    67    81    82    2
    68    20    18   ar
    69    91    92    1
    70   118   117    2
    71    96    95    1
    72    96    97    1
    73    31    32    2
    74    17    18   ar
    75    17    16    1
    76    11     9   ar
    77    11    10   ar
    78    95    92    1
    79    94    93    2
    80   109   107    1
    81    92    93    1
    82     9     7   ar
    83   117   116    1
    84    97    98    1
    85    10     8   ar
    86    16    13    1
    87   108   107    1
    88    93    99   am
    89   107   106    2
    90     7     6   ar
    91   116   115    1
    92     8     6   ar
    93     6     5    1
    94    99   100    1
    95   106   105    1
    96    13    12    1
    97    13    14    1
    98   105   104    1
    99   100   101    1
   100   100   103    1
   101   115   114    1
   102     5     2    1
   103   104   103    1
   104    15    14    2
   105   101   102    2
   106   114   111    1
   107   113   112    2
   108   111   112    1
   109   111   110    1
   110     2     3    1
   111     2     1    1
   112     4     3    2
