@<TRIPOS>MOLECULE
tmp/5u5uA01.pdb
 97 92 0 0 0
SMALL
GASTEIGER

@<TRIPOS>ATOM
      1  N        -15.2550    7.4330    1.4950 N.3   172  HIS172     -0.1241
      2  CA       -15.9400    6.5080    2.3870 C.3   172  HIS172      0.1621
      3  C        -17.3290    7.0130    2.7800 C.2   172  HIS172      0.2264
      4  O        -18.0220    6.3550    3.5410 O.2   172  HIS172     -0.2867
      5  CB       -15.0740    6.1850    3.6100 C.3   172  HIS172      0.0745
      6  CG       -14.0130    5.1650    3.3310 C.ar  172  HIS172      0.0817
      7  ND1      -13.1230    4.7300    4.2840 N.ar  172  HIS172     -0.2268
      8  CD2      -13.6820    4.5190    2.1850 C.ar  172  HIS172      0.1154
      9  CE1      -12.3270    3.8200    3.7550 C.ar  172  HIS172      0.1986
     10  NE2      -12.6280    3.7000    2.4770 N.ar  172  HIS172     -0.2212
     11  N        -19.2580    6.8020    0.4040 N.3   174  LEU174     -0.1231
     12  CA       -19.8560    5.9670   -0.6190 C.3   174  LEU174      0.1693
     13  C        -19.8330    4.4950   -0.2580 C.2   174  LEU174      0.2593
     14  O        -18.8040    3.9620    0.1880 O.2   174  LEU174     -0.2718
     15  CB       -19.0650    6.1340   -1.9180 C.3   174  LEU174      0.0284
     16  CG       -18.8980    7.5350   -2.5080 C.3   174  LEU174      0.0019
     17  CD1      -17.9220    7.5030   -3.6580 C.3   174  LEU174      0.0001
     18  CD2      -20.2240    8.1590   -2.8980 C.3   174  LEU174      0.0001
     19  N        -20.9560    3.8180   -0.4720 N.am  175  GLY175     -0.1942
     20  CA       -20.9590    2.3770   -0.3410 C.3   175  GLY175      0.2014
     21  C        -20.7500    1.8900    1.0830 C.2   175  GLY175      0.2639
     22  O        -21.1080    2.5680    2.0400 O.2   175  GLY175     -0.2714
     23  N        -20.1780    0.7040    1.2170 N.am  176  LYS176     -0.1963
     24  CA       -20.0910    0.0580    2.5160 C.3   176  LYS176      0.1728
     25  C        -19.0660   -1.0400    2.5010 C.2   176  LYS176      0.2616
     26  O        -18.5660   -1.4540    1.4570 O.2   176  LYS176     -0.2715
     27  CB       -21.4530   -0.5290    2.8920 C.3   176  LYS176      0.0311
     28  CG       -21.9380   -1.6090    1.9370 C.3   176  LYS176      0.0038
     29  CD       -23.3130   -2.0990    2.3860 C.3   176  LYS176      0.0206
     30  CE       -23.9240   -3.0690    1.4110 C.3   176  LYS176      0.1093
     31  NZ       -25.1720   -3.6950    1.9670 N.3   176  LYS176     -0.1314
     32  N        -18.7410   -1.4980    3.6950 N.am  177  THR177     -0.1951
     33  CA       -17.8980   -2.6590    3.8410 C.3   177  THR177      0.1897
     34  C        -18.7920   -3.8930    3.8080 C.2   177  THR177      0.2313
     35  O        -19.9950   -3.8010    4.0160 O.2   177  THR177     -0.2863
     36  CB       -17.1090   -2.6180    5.1630 C.3   177  THR177      0.1794
     37  OG1      -18.0030   -2.8040    6.2720 O.3   177  THR177     -0.2208
     38  CG2      -16.3990   -1.2780    5.2970 C.3   177  THR177      0.0378
     39  N        -22.2360   -0.7250    7.6050 N.3   187  GLY187     -0.1210
     40  CA       -23.2480    0.0970    8.2390 C.3   187  GLY187      0.1956
     41  C        -24.0680    0.8560    7.2160 C.2   187  GLY187      0.2612
     42  O        -24.0860    0.4870    6.0430 O.2   187  GLY187     -0.2717
     43  N        -24.7450    1.9100    7.6660 N.am  188  GLY188     -0.1956
     44  CA       -25.5260    2.7670    6.7900 C.3   188  GLY188      0.1869
     45  C        -24.7180    3.1710    5.5780 C.2   188  GLY188      0.2309
     46  O        -23.5440    3.5250    5.6930 O.2   188  GLY188     -0.2863
     47  N        -19.2040   11.9600    5.2230 N.3   197  PHE197     -0.1241
     48  CA       -18.2430   11.1410    5.9980 C.3   197  PHE197      0.1605
     49  C        -17.6950   11.9640    7.1670 C.2   197  PHE197      0.2264
     50  O        -17.5940   11.4730    8.3020 O.2   197  PHE197     -0.2867
     51  CB       -17.1370   10.6380    5.0640 C.3   197  PHE197      0.0534
     52  CG       -15.9700   10.0060    5.7270 C.ar  197  PHE197     -0.0203
     53  CD1      -15.9920    8.6850    6.1020 C.ar  197  PHE197     -0.0042
     54  CD2      -14.8060   10.7130    5.8740 C.ar  197  PHE197     -0.0042
     55  CE1      -14.8770    8.0910    6.6890 C.ar  197  PHE197     -0.0003
     56  CE2      -13.6770   10.1250    6.4550 C.ar  197  PHE197     -0.0003
     57  CZ       -13.7100    8.8190    6.8540 C.ar  197  PHE197     -0.0000
     58  N        -20.4680   12.6900    9.7490 N.3   200  ASN200     -0.1240
     59  CA       -20.6450   11.4860   10.5700 C.3   200  ASN200      0.1653
     60  C        -19.5590   11.3690   11.6500 C.2   200  ASN200      0.2266
     61  O        -19.8540   11.1330   12.8330 O.2   200  ASN200     -0.2867
     62  CB       -20.6630   10.2020    9.7120 C.3   200  ASN200      0.1155
     63  CG       -21.8710   10.0990    8.8090 C.2   200  ASN200      0.2627
     64  OD1      -22.8560   10.8340    8.9510 O.2   200  ASN200     -0.2716
     65  ND2      -21.7970    9.1640    7.8590 N.am  200  ASN200     -0.0877
     66  N        -20.9610    3.2010   10.6080 N.3   225  MET225     -0.1230
     67  CA       -19.6950    2.6140   11.0170 C.3   225  MET225      0.1702
     68  C        -18.5050    3.3680   10.4520 C.2   225  MET225      0.2592
     69  O        -18.6260    4.1070    9.4670 O.2   225  MET225     -0.2718
     70  CB       -19.5970    1.1200   10.6740 C.3   225  MET225      0.0401
     71  CG       -19.5670    0.8010    9.1830 C.3   225  MET225      0.0596
     72  SD       -17.9440    1.0030    8.3990 S.3   225  MET225     -0.1393
     73  CE       -17.1470   -0.4500    9.0240 C.3   225  MET225      0.0692
     74  N        -17.3740    3.1910   11.1510 N.am  226  MET226     -0.1965
     75  CA       -16.0980    3.7150   10.7530 C.3   226  MET226      0.1736
     76  C        -15.0500    2.6590   10.9670 C.2   226  MET226      0.2616
     77  O        -15.0440    1.9800   12.0040 O.2   226  MET226     -0.2715
     78  CB       -15.7480    4.9560   11.5530 C.3   226  MET226      0.0427
     79  CG       -16.6470    6.1430   11.2450 C.3   226  MET226      0.0599
     80  SD       -16.3130    6.8590    9.6290 S.3   226  MET226     -0.1393
     81  CE       -17.7440    7.9390    9.4840 C.3   226  MET226      0.0692
     82  N        -14.1610    2.5080    9.9960 N.am  227  LEU227     -0.1977
     83  CA       -12.9910    1.6770   10.1700 C.3   227  LEU227      0.1596
     84  C        -12.0790    2.3320   11.2130 C.2   227  LEU227      0.2287
     85  O        -12.1590    3.5500   11.4190 O.2   227  LEU227     -0.2864
     86  CB       -12.2480    1.5690    8.8510 C.3   227  LEU227      0.0297
     87  CG       -13.0380    0.9260    7.7190 C.3   227  LEU227      0.0022
     88  CD1      -12.3940    1.2530    6.3580 C.3   227  LEU227      0.0001
     89  CD2      -13.1820   -0.5790    7.9640 C.3   227  LEU227      0.0001
     90  N        -10.4640    5.1230    9.5230 N.3   230  ASP230     -0.1239
     91  CA       -11.3910    6.2610    9.3880 C.3   230  ASP230      0.1674
     92  C        -11.3710    7.0970   10.6770 C.2   230  ASP230      0.2266
     93  O        -11.2510    8.3270   10.6630 O.2   230  ASP230     -0.2867
     94  CB       -12.8470    5.8120    9.1520 C.3   230  ASP230      0.1410
     95  CG       -13.0770    5.1520    7.8170 C.2   230  ASP230      0.3668
     96  OD1      -12.3840    5.5190    6.8460 O.co2 230  ASP230     -0.2456
     97  OD2      -14.0090    4.3210    7.7230 O.co2 230  ASP230     -0.2456
@<TRIPOS>BOND
     1    17    16    1
     2    18    16    1
     3    16    15    1
     4    15    12    1
     5    12    13    1
     6    12    11    1
     7    19    20    1
     8    19    13   am
     9    20    21    1
    10    13    14    2
    11    21    23   am
    12    21    22    2
    13    23    24    1
    14    30    31    1
    15    30    29    1
    16    26    25    2
    17     1     2    1
    18    28    29    1
    19    28    27    1
    20     8    10   ar
    21     8     6   ar
    22     2     3    1
    23     2     5    1
    24    10     9   ar
    25    25    24    1
    26    25    32   am
    27    24    27    1
    28     3     4    2
    29     6     5    1
    30     6     7   ar
    31    32    33    1
    32     9     7   ar
    33    34    33    1
    34    34    35    2
    35    33    36    1
    36    51    52    1
    37    51    48    1
    38    36    38    1
    39    36    37    1
    40    47    48    1
    41    45    46    2
    42    45    44    1
    43    52    54   ar
    44    52    53   ar
    45    54    56   ar
    46    48    49    1
    47    42    41    2
    48    53    55   ar
    49    88    87    1
    50    56    57   ar
    51    55    57   ar
    52    44    43    1
    53    96    95   ar
    54    49    50    2
    55    41    43   am
    56    41    40    1
    57    39    40    1
    58    87    89    1
    59    87    86    1
    60    97    95   ar
    61    95    94    1
    62    65    63   am
    63    72    73    1
    64    72    71    1
    65    63    64    2
    66    63    62    1
    67    86    83    1
    68    94    91    1
    69    71    70    1
    70    91    90    1
    71    91    92    1
    72    69    68    2
    73    81    80    1
    74    80    79    1
    75    62    59    1
    76    58    59    1
    77    82    83    1
    78    82    76   am
    79    83    84    1
    80    68    67    1
    81    68    74   am
    82    59    60    1
    83    66    67    1
    84    93    92    2
    85    70    67    1
    86    75    76    1
    87    75    74    1
    88    75    78    1
    89    76    77    2
    90    84    85    2
    91    79    78    1
    92    60    61    2
