@<TRIPOS>MOLECULE
tmp/5u5xA01.pdb
 109 105 0 0 0
SMALL
GASTEIGER

@<TRIPOS>ATOM
      1  N        -35.7890  -67.4850   -1.4900 N.3   172  HIS172     -0.1241
      2  CA       -35.0700  -68.4190   -2.3540 C.3   172  HIS172      0.1621
      3  C        -33.6850  -67.9220   -2.7570 C.2   172  HIS172      0.2264
      4  O        -32.9790  -68.6010   -3.4960 O.2   172  HIS172     -0.2867
      5  CB       -35.9020  -68.7330   -3.5850 C.3   172  HIS172      0.0745
      6  CG       -36.9740  -69.7330   -3.3110 C.ar  172  HIS172      0.0817
      7  ND1      -37.8520  -70.1660   -4.2790 N.ar  172  HIS172     -0.2268
      8  CD2      -37.3220  -70.3700   -2.1680 C.ar  172  HIS172      0.1154
      9  CE1      -38.6910  -71.0350   -3.7500 C.ar  172  HIS172      0.1986
     10  NE2      -38.3790  -71.1810   -2.4730 N.ar  172  HIS172     -0.2212
     11  N        -31.7570  -68.1520   -0.4140 N.3   174  LEU174     -0.1231
     12  CA       -31.1540  -69.0130    0.6300 C.3   174  LEU174      0.1693
     13  C        -31.1740  -70.4890    0.2720 C.2   174  LEU174      0.2593
     14  O        -32.1840  -70.9900   -0.2380 O.2   174  LEU174     -0.2718
     15  CB       -31.8850  -68.8510    1.9720 C.3   174  LEU174      0.0284
     16  CG       -32.0510  -67.4460    2.5280 C.3   174  LEU174      0.0019
     17  CD1      -33.0420  -67.4840    3.7120 C.3   174  LEU174      0.0001
     18  CD2      -30.7080  -66.8740    2.9880 C.3   174  LEU174      0.0001
     19  N        -30.0630  -71.1890    0.5220 N.am  175  GLY175     -0.1942
     20  CA       -30.0460  -72.6310    0.4310 C.3   175  GLY175      0.2014
     21  C        -30.2590  -73.1010   -0.9930 C.2   175  GLY175      0.2639
     22  O        -29.8740  -72.4040   -1.9640 O.2   175  GLY175     -0.2714
     23  N        -30.8750  -74.2690   -1.1220 N.am  176  LYS176     -0.1963
     24  CA       -30.9310  -74.9340   -2.4230 C.3   176  LYS176      0.1728
     25  C        -32.0210  -75.9900   -2.4480 C.2   176  LYS176      0.2616
     26  O        -32.5670  -76.3780   -1.4030 O.2   176  LYS176     -0.2715
     27  CB       -29.5740  -75.5970   -2.7230 C.3   176  LYS176      0.0311
     28  CG       -29.2460  -76.7350   -1.7480 C.3   176  LYS176      0.0038
     29  CD       -27.7700  -77.1590   -1.7930 C.3   176  LYS176      0.0206
     30  CE       -27.4600  -77.9920   -3.0100 C.3   176  LYS176      0.1093
     31  NZ       -26.1410  -78.7370   -2.8540 N.3   176  LYS176     -0.1314
     32  N        -32.3060  -76.4800   -3.6400 N.am  177  THR177     -0.1951
     33  CA       -33.1410  -77.6580   -3.7850 C.3   177  THR177      0.1897
     34  C        -32.2390  -78.8910   -3.7120 C.2   177  THR177      0.2313
     35  O        -31.0220  -78.8220   -3.9500 O.2   177  THR177     -0.2863
     36  CB       -33.9220  -77.6600   -5.1120 C.3   177  THR177      0.1794
     37  OG1      -33.0050  -77.8080   -6.2060 O.3   177  THR177     -0.2208
     38  CG2      -34.7300  -76.3480   -5.2810 C.3   177  THR177      0.0378
     39  N        -28.8060  -75.7400   -7.4700 N.3   187  GLY187     -0.1210
     40  CA       -27.8020  -74.9160   -8.1120 C.3   187  GLY187      0.1956
     41  C        -26.9640  -74.1620   -7.0890 C.2   187  GLY187      0.2612
     42  O        -26.9190  -74.5380   -5.9150 O.2   187  GLY187     -0.2717
     43  N        -26.2900  -73.1020   -7.5220 N.am  188  GLY188     -0.1956
     44  CA       -25.4450  -72.3450   -6.6050 C.3   188  GLY188      0.1869
     45  C        -26.2520  -71.8910   -5.4060 C.2   188  GLY188      0.2309
     46  O        -27.4210  -71.5310   -5.5600 O.2   188  GLY188     -0.2863
     47  N        -31.7670  -63.0330   -5.1950 N.3   197  PHE197     -0.1241
     48  CA       -32.7580  -63.8160   -5.9660 C.3   197  PHE197      0.1605
     49  C        -33.3110  -63.0190   -7.1460 C.2   197  PHE197      0.2264
     50  O        -33.4070  -63.5370   -8.2790 O.2   197  PHE197     -0.2867
     51  CB       -33.8730  -64.2570   -5.0440 C.3   197  PHE197      0.0534
     52  CG       -35.0680  -64.9250   -5.7310 C.ar  197  PHE197     -0.0203
     53  CD1      -35.0370  -66.2740   -6.0770 C.ar  197  PHE197     -0.0042
     54  CD2      -36.2610  -64.2350   -5.8960 C.ar  197  PHE197     -0.0042
     55  CE1      -36.1620  -66.9100   -6.6290 C.ar  197  PHE197     -0.0003
     56  CE2      -37.4020  -64.8610   -6.4380 C.ar  197  PHE197     -0.0003
     57  CZ       -37.3490  -66.1930   -6.8050 C.ar  197  PHE197     -0.0000
     58  N        -30.5200  -62.3020   -9.7370 N.3   200  ASN200     -0.1240
     59  CA       -30.3290  -63.5070  -10.5640 C.3   200  ASN200      0.1653
     60  C        -31.4280  -63.6450  -11.6210 C.2   200  ASN200      0.2266
     61  O        -31.1470  -63.8980  -12.7980 O.2   200  ASN200     -0.2867
     62  CB       -30.3060  -64.7760   -9.6950 C.3   200  ASN200      0.1155
     63  CG       -29.0620  -64.8970   -8.8340 C.2   200  ASN200      0.2627
     64  OD1      -28.0580  -64.1840   -9.0100 O.2   200  ASN200     -0.2716
     65  ND2      -29.1230  -65.8160   -7.8780 N.am  200  ASN200     -0.0877
     66  N        -26.6060  -71.2210  -11.6050 N.3   224  TYR224     -0.1227
     67  CA       -27.7860  -70.9600  -10.7830 C.3   224  TYR224      0.1736
     68  C        -28.9890  -71.7130  -11.3170 C.2   224  TYR224      0.2595
     69  O        -28.9720  -72.1640  -12.4670 O.2   224  TYR224     -0.2718
     70  CB       -28.1120  -69.4640  -10.7260 C.3   224  TYR224      0.0548
     71  CG       -26.9960  -68.6130  -10.2010 C.ar  224  TYR224     -0.0200
     72  CD1      -26.3460  -67.7150  -11.0260 C.ar  224  TYR224     -0.0009
     73  CD2      -26.5970  -68.6960   -8.8710 C.ar  224  TYR224     -0.0009
     74  CE1      -25.3090  -66.9210  -10.5480 C.ar  224  TYR224      0.0417
     75  CE2      -25.5490  -67.9150   -8.3780 C.ar  224  TYR224      0.0417
     76  CZ       -24.9150  -67.0280   -9.2320 C.ar  224  TYR224      0.1957
     77  OH       -23.8910  -66.2340   -8.7780 O.3   224  TYR224     -0.2866
     78  N        -30.0390  -71.8230  -10.4940 N.am  225  MET225     -0.1965
     79  CA       -31.2820  -72.4060  -10.9460 C.3   225  MET225      0.1736
     80  C        -32.4700  -71.6450  -10.4030 C.2   225  MET225      0.2616
     81  O        -32.3710  -70.9060   -9.3890 O.2   225  MET225     -0.2715
     82  CB       -31.3990  -73.8930  -10.5750 C.3   225  MET225      0.0427
     83  CG       -31.4310  -74.1750   -9.0510 C.3   225  MET225      0.0599
     84  SD       -33.1180  -74.0340   -8.3650 S.3   225  MET225     -0.1393
     85  CE       -33.8820  -75.5020   -9.0370 C.3   225  MET225      0.0692
     86  N        -33.5820  -71.7940  -11.1280 N.am  226  MET226     -0.1963
     87  CA       -34.9040  -71.2930  -10.7140 C.3   226  MET226      0.1736
     88  C        -35.9760  -72.3610  -10.9380 C.2   226  MET226      0.2616
     89  O        -36.0040  -73.0280  -11.9860 O.2   226  MET226     -0.2715
     90  CB       -35.2850  -70.0170  -11.4900 C.3   226  MET226      0.0427
     91  CG       -34.3680  -68.7990  -11.2200 C.3   226  MET226      0.0599
     92  SD       -34.7030  -68.0930   -9.5810 S.3   226  MET226     -0.1393
     93  CE       -33.2760  -67.0110   -9.3870 C.3   226  MET226      0.0692
     94  N        -36.8480  -72.5390   -9.9440 N.am  227  LEU227     -0.1977
     95  CA       -38.0660  -73.3370  -10.1090 C.3   227  LEU227      0.1596
     96  C        -38.9670  -72.6800  -11.1480 C.2   227  LEU227      0.2287
     97  O        -38.8580  -71.4680  -11.3550 O.2   227  LEU227     -0.2864
     98  CB       -38.8190  -73.4570   -8.7900 C.3   227  LEU227      0.0297
     99  CG       -37.9780  -74.0760   -7.6780 C.3   227  LEU227      0.0022
    100  CD1      -38.6500  -73.7680   -6.3410 C.3   227  LEU227      0.0001
    101  CD2      -37.7840  -75.5850   -7.8780 C.3   227  LEU227      0.0001
    102  N        -40.5280  -69.8540   -9.5020 N.3   230  ASP230     -0.1239
    103  CA       -39.5900  -68.7210   -9.3550 C.3   230  ASP230      0.1674
    104  C        -39.6040  -67.9010  -10.6650 C.2   230  ASP230      0.2266
    105  O        -39.7640  -66.6720  -10.6670 O.2   230  ASP230     -0.2867
    106  CB       -38.1540  -69.1970   -9.1130 C.3   230  ASP230      0.1410
    107  CG       -37.9410  -69.8540   -7.7510 C.2   230  ASP230      0.3668
    108  OD1      -38.6680  -69.4880   -6.7820 O.co2 230  ASP230     -0.2456
    109  OD2      -36.9950  -70.7020   -7.6600 O.co2 230  ASP230     -0.2456
@<TRIPOS>BOND
     1    61    60    2
     2    69    68    2
     3    89    88    2
     4    60    59    1
     5    66    67    1
     6    90    91    1
     7    90    87    1
     8    97    96    2
     9    68    67    1
    10    68    78   am
    11    91    92    1
    12    96    95    1
    13    86    87    1
    14    86    80   am
    15    72    74   ar
    16    72    71   ar
    17    79    82    1
    18    79    78    1
    19    79    80    1
    20    88    87    1
    21    88    94   am
    22    67    70    1
    23    70    71    1
    24   105   104    2
    25   104   103    1
    26    82    83    1
    27    59    58    1
    28    59    62    1
    29    74    76   ar
    30    80    81    2
    31    71    73   ar
    32    95    94    1
    33    95    98    1
    34    62    63    1
    35    92    93    1
    36   102   103    1
    37   103   106    1
    38    76    77    1
    39    76    75   ar
    40   106   107    1
    41    83    84    1
    42    85    84    1
    43    64    63    2
    44    73    75   ar
    45    63    65   am
    46    98    99    1
    47    50    49    2
    48    40    39    1
    49    40    41    1
    50   101    99    1
    51   107   109   ar
    52   107   108   ar
    53    99   100    1
    54    43    41   am
    55    43    44    1
    56    49    48    1
    57    41    42    2
    58    57    55   ar
    59    57    56   ar
    60    55    53   ar
    61    44    45    1
    62    56    54   ar
    63    37    36    1
    64    53    52   ar
    65    48    47    1
    66    48    51    1
    67    54    52   ar
    68    52    51    1
    69    46    45    2
    70    38    36    1
    71    36    33    1
    72     7     9   ar
    73     7     6   ar
    74    35    34    2
    75    33    34    1
    76    33    32    1
    77     9    10   ar
    78    32    25   am
    79     5     6    1
    80     5     2    1
    81     4     3    2
    82     6     8   ar
    83    30    31    1
    84    30    29    1
    85     3     2    1
    86    27    24    1
    87    27    28    1
    88    10     8   ar
    89    25    24    1
    90    25    26    2
    91    24    23    1
    92     2     1    1
    93    22    21    2
    94    29    28    1
    95    23    21   am
    96    21    20    1
    97    11    12    1
    98    14    13    2
    99    13    19   am
   100    13    12    1
   101    20    19    1
   102    12    15    1
   103    15    16    1
   104    16    18    1
   105    16    17    1
