@<TRIPOS>MOLECULE
tmp/5u5zA01.pdb
 120 117 0 0 0
SMALL
GASTEIGER

@<TRIPOS>ATOM
      1  N         15.8540  -66.3610  104.0670 N.3   172  HIS172     -0.1226
      2  CA        16.4780  -67.4100  103.2750 C.3   172  HIS172      0.1752
      3  C         17.8920  -67.0690  102.8170 C.2   172  HIS172      0.2596
      4  O         18.5470  -67.8880  102.1990 O.2   172  HIS172     -0.2718
      5  CB        15.5960  -67.8210  102.0900 C.3   172  HIS172      0.0759
      6  CG        14.4970  -68.7450  102.4820 C.ar  172  HIS172      0.0818
      7  ND1       13.5180  -69.1680  101.6110 N.ar  172  HIS172     -0.2268
      8  CD2       14.2370  -69.3330  103.6740 C.ar  172  HIS172      0.1154
      9  CE1       12.6960  -69.9720  102.2660 C.ar  172  HIS172      0.1986
     10  NE2       13.1490  -70.1330  103.4980 N.ar  172  HIS172     -0.2212
     11  N         18.4000  -65.9160  103.2030 N.am  173  ALA173     -0.1966
     12  CA        19.8420  -65.6870  103.1450 C.3   173  ALA173      0.1728
     13  C         20.6060  -66.5730  104.1280 C.2   173  ALA173      0.2616
     14  O         21.8010  -66.7880  103.9500 O.2   173  ALA173     -0.2715
     15  CB        20.1660  -64.2370  103.4320 C.3   173  ALA173      0.0334
     16  N         19.9070  -67.0460  105.1530 N.am  174  LEU174     -0.1963
     17  CA        20.5520  -67.7610  106.2410 C.3   174  LEU174      0.1728
     18  C         20.5840  -69.2590  106.0480 C.2   174  LEU174      0.2617
     19  O         19.6400  -69.8500  105.5370 O.2   174  LEU174     -0.2715
     20  CB        19.7960  -67.5220  107.5390 C.3   174  LEU174      0.0311
     21  CG        19.6200  -66.0690  107.9600 C.3   174  LEU174      0.0022
     22  CD1       18.5500  -65.9980  109.0730 C.3   174  LEU174      0.0001
     23  CD2       20.9510  -65.4790  108.4310 C.3   174  LEU174      0.0001
     24  N         21.6340  -69.8850  106.5530 N.am  175  GLY175     -0.1940
     25  CA        21.6630  -71.3270  106.6510 C.3   175  GLY175      0.2014
     26  C         21.7830  -72.0030  105.3000 C.2   175  GLY175      0.2639
     27  O         22.4470  -71.4920  104.4040 O.2   175  GLY175     -0.2714
     28  N         21.1020  -73.1320  105.1520 N.am  176  LYS176     -0.1963
     29  CA        21.1310  -73.9000  103.9150 C.3   176  LYS176      0.1728
     30  C         19.9910  -74.9040  103.9180 C.2   176  LYS176      0.2616
     31  O         19.3450  -75.1310  104.9230 O.2   176  LYS176     -0.2715
     32  CB        22.4650  -74.6230  103.7710 C.3   176  LYS176      0.0311
     33  CG        22.7100  -75.6960  104.8110 C.3   176  LYS176      0.0038
     34  CD        24.1040  -76.3750  104.6550 C.3   176  LYS176      0.0206
     35  CE        24.2870  -77.0980  103.3240 C.3   176  LYS176      0.1093
     36  NZ        23.3360  -78.2570  103.1120 N.3   176  LYS176     -0.1314
     37  N         19.7540  -75.5150  102.7670 N.am  177  THR177     -0.1951
     38  CA        18.8070  -76.6030  102.6590 C.3   177  THR177      0.1897
     39  C         19.5930  -77.9010  102.8320 C.2   177  THR177      0.2313
     40  O         20.8150  -77.9340  102.6260 O.2   177  THR177     -0.2863
     41  CB        18.0190  -76.6040  101.3200 C.3   177  THR177      0.1794
     42  OG1       18.9100  -76.8230  100.2400 O.3   177  THR177     -0.2208
     43  CG2       17.2960  -75.2730  101.0690 C.3   177  THR177      0.0378
     44  N         21.8560  -77.5460   98.5750 N.3   186  GLY186     -0.1210
     45  CA        22.9060  -76.7070   98.0040 C.3   186  GLY186      0.1956
     46  C         22.8520  -75.2510   98.4020 C.2   186  GLY186      0.2612
     47  O         22.2080  -74.8770   99.3940 O.2   186  GLY186     -0.2717
     48  N         23.5520  -74.4220   97.6260 N.am  187  GLY187     -0.1942
     49  CA        23.5700  -72.9910   97.8580 C.3   187  GLY187      0.2014
     50  C         24.7160  -72.5580   98.7470 C.2   187  GLY187      0.2639
     51  O         24.8570  -71.3750   99.0560 O.2   187  GLY187     -0.2714
     52  N         25.5470  -73.4980   99.1730 N.am  188  GLY188     -0.1939
     53  CA        26.5500  -73.1590  100.1640 C.3   188  GLY188      0.2014
     54  C         25.7970  -72.7480  101.4110 C.2   188  GLY188      0.2639
     55  O         24.7870  -73.3770  101.7210 O.2   188  GLY188     -0.2714
     56  N         26.2370  -71.6860  102.0910 N.am  189  ALA189     -0.1963
     57  CA        25.7100  -71.3970  103.4220 C.3   189  ALA189      0.1728
     58  C         26.1320  -70.0350  103.9670 C.2   189  ALA189      0.2616
     59  O         27.0280  -69.3920  103.4340 O.2   189  ALA189     -0.2715
     60  CB        26.1680  -72.4610  104.3620 C.3   189  ALA189      0.0334
     61  N         25.4910  -69.6110  105.0480 N.am  190  ASN190     -0.1972
     62  CA        25.7170  -68.2850  105.6170 C.3   190  ASN190      0.1688
     63  C         25.1050  -68.1440  107.0130 C.2   190  ASN190      0.2292
     64  O         24.0470  -68.6970  107.2870 O.2   190  ASN190     -0.2864
     65  CB        25.0910  -67.2740  104.6720 C.3   190  ASN190      0.1181
     66  CG        25.1130  -65.8900  105.2070 C.2   190  ASN190      0.2629
     67  OD1       26.1480  -65.3960  105.6660 O.2   190  ASN190     -0.2716
     68  ND2       23.9560  -65.2480  105.1880 N.am  190  ASN190     -0.0877
     69  N         20.9230  -61.7020   95.4270 N.3   200  ASN200     -0.1240
     70  CA        21.1940  -62.9500   94.7120 C.3   200  ASN200      0.1653
     71  C         20.0840  -63.2490   93.7020 C.2   200  ASN200      0.2266
     72  O         20.3650  -63.6120   92.5660 O.2   200  ASN200     -0.2867
     73  CB        21.3790  -64.1210   95.6860 C.3   200  ASN200      0.1155
     74  CG        22.6590  -64.0440   96.4510 C.2   200  ASN200      0.2627
     75  OD1       23.6010  -63.3690   96.0510 O.2   200  ASN200     -0.2716
     76  ND2       22.6990  -64.7260   97.5720 N.am  200  ASN200     -0.0877
     77  N         24.7400  -70.8650   94.1810 N.3   224  TYR224     -0.1227
     78  CA        23.6060  -70.5490   95.0510 C.3   224  TYR224      0.1736
     79  C         22.3810  -71.3270   94.5730 C.2   224  TYR224      0.2595
     80  O         22.3660  -71.8670   93.4690 O.2   224  TYR224     -0.2718
     81  CB        23.3040  -69.0560   95.0090 C.3   224  TYR224      0.0548
     82  CG        24.3510  -68.2060   95.6700 C.ar  224  TYR224     -0.0200
     83  CD1       25.2090  -67.4160   94.9130 C.ar  224  TYR224     -0.0009
     84  CD2       24.4940  -68.1900   97.0620 C.ar  224  TYR224     -0.0009
     85  CE1       26.1800  -66.6390   95.5100 C.ar  224  TYR224      0.0417
     86  CE2       25.4680  -67.4140   97.6710 C.ar  224  TYR224      0.0417
     87  CZ        26.3050  -66.6420   96.8810 C.ar  224  TYR224      0.1957
     88  OH        27.2740  -65.8650   97.4670 O.3   224  TYR224     -0.2866
     89  N         21.3580  -71.3780   95.4130 N.am  225  MET225     -0.1965
     90  CA        20.0850  -71.9950   95.0580 C.3   225  MET225      0.1736
     91  C         18.8950  -71.2300   95.5800 C.2   225  MET225      0.2616
     92  O         18.9740  -70.5340   96.5800 O.2   225  MET225     -0.2715
     93  CB        20.0020  -73.4630   95.5110 C.3   225  MET225      0.0427
     94  CG        19.9430  -73.6830   96.9900 C.3   225  MET225      0.0599
     95  SD        18.3030  -73.5130   97.7240 S.3   225  MET225     -0.1393
     96  CE        17.4550  -74.8960   96.9980 C.3   225  MET225      0.0692
     97  N         17.7920  -71.3740   94.8660 N.am  226  MET226     -0.1963
     98  CA        16.5200  -70.7900   95.2410 C.3   226  MET226      0.1736
     99  C         15.4370  -71.8670   95.1040 C.2   226  MET226      0.2616
    100  O         15.3750  -72.6140   94.1300 O.2   226  MET226     -0.2715
    101  CB        16.1750  -69.5800   94.3370 C.3   226  MET226      0.0427
    102  CG        17.1010  -68.3960   94.5430 C.3   226  MET226      0.0599
    103  SD        16.7480  -67.5510   96.0980 S.3   226  MET226     -0.1393
    104  CE        18.1560  -66.4570   96.1590 C.3   226  MET226      0.0692
    105  N         14.5660  -71.9420   96.0840 N.am  227  LEU227     -0.1977
    106  CA        13.3820  -72.7900   95.9690 C.3   227  LEU227      0.1596
    107  C         12.4640  -72.1820   94.9210 C.2   227  LEU227      0.2287
    108  O         12.5340  -70.9810   94.6850 O.2   227  LEU227     -0.2864
    109  CB        12.6080  -72.8040   97.2860 C.3   227  LEU227      0.0297
    110  CG        13.3680  -73.2350   98.5310 C.3   227  LEU227      0.0022
    111  CD1       12.5680  -72.9100   99.7910 C.3   227  LEU227      0.0001
    112  CD2       13.6690  -74.7080   98.4260 C.3   227  LEU227      0.0001
    113  N         10.9110  -69.2000   96.4080 N.3   230  ASP230     -0.1239
    114  CA        11.8270  -68.0590   96.4440 C.3   230  ASP230      0.1674
    115  C         11.8440  -67.3540   95.0900 C.2   230  ASP230      0.2266
    116  O         11.7520  -66.1170   95.0020 O.2   230  ASP230     -0.2867
    117  CB        13.2530  -68.5280   96.7110 C.3   230  ASP230      0.1410
    118  CG        13.4880  -69.0980   98.1000 C.2   230  ASP230      0.3668
    119  OD1       12.8380  -68.6460   99.0530 O.co2 230  ASP230     -0.2456
    120  OD2       14.3980  -69.9660   98.2160 O.co2 230  ASP230     -0.2456
@<TRIPOS>BOND
     1    72    71    2
     2    80    79    2
     3    71    70    1
     4   100    99    2
     5    77    78    1
     6   101   102    1
     7   101    98    1
     8   102   103    1
     9    79    78    1
    10    79    89   am
    11   108   107    2
    12    70    69    1
    13    70    73    1
    14    97    98    1
    15    97    91   am
    16    83    85   ar
    17    83    82   ar
    18   107   106    1
    19   116   115    2
    20    81    78    1
    21    81    82    1
    22    90    89    1
    23    90    93    1
    24    90    91    1
    25   115   114    1
    26    99    98    1
    27    99   105   am
    28    85    87   ar
    29    93    94    1
    30    91    92    2
    31    82    84   ar
    32    73    74    1
    33   106   105    1
    34   106   109    1
    35    75    74    2
    36   103   104    1
    37   113   114    1
    38   114   117    1
    39    74    76   am
    40   117   118    1
    41    87    88    1
    42    87    86   ar
    43    94    95    1
    44    96    95    1
    45    84    86   ar
    46   109   110    1
    47    48    49    1
    48    48    46   am
    49    49    50    1
    50    45    46    1
    51    45    44    1
    52   118   120   ar
    53   118   119   ar
    54    46    47    2
    55   112   110    1
    56   110   111    1
    57    50    51    2
    58    50    52   am
    59    52    53    1
    60    53    54    1
    61    42    41    1
    62    43    41    1
    63    41    38    1
    64    54    55    2
    65    54    56   am
    66     7     9   ar
    67     7     6   ar
    68     5     6    1
    69     5     2    1
    70    56    57    1
    71     4     3    2
    72     9    10   ar
    73     6     8   ar
    74    40    39    2
    75    38    37    1
    76    38    39    1
    77    37    30   am
    78     3    11   am
    79     3     2    1
    80    36    35    1
    81    12    11    1
    82    12    15    1
    83    12    13    1
    84     2     1    1
    85    35    34    1
    86    57    58    1
    87    57    60    1
    88    59    58    2
    89    10     8   ar
    90    32    29    1
    91    32    33    1
    92    29    30    1
    93    29    28    1
    94    30    31    2
    95    14    13    2
    96    58    61   am
    97    13    16   am
    98    27    26    2
    99    34    33    1
   100    65    66    1
   101    65    62    1
   102    61    62    1
   103    28    26   am
   104    16    17    1
   105    68    66   am
   106    66    67    2
   107    26    25    1
   108    19    18    2
   109    62    63    1
   110    18    17    1
   111    18    24   am
   112    17    20    1
   113    24    25    1
   114    63    64    2
   115    20    21    1
   116    21    23    1
   117    21    22    1
