@<TRIPOS>MOLECULE
tmp/5u60A01.pdb
 103 100 0 0 0
SMALL
GASTEIGER

@<TRIPOS>ATOM
      1  N         15.6160  -66.4930  104.3370 N.3   172  HIS172     -0.1226
      2  CA        16.2400  -67.5430  103.5390 C.3   172  HIS172      0.1752
      3  C         17.6470  -67.1450  103.0610 C.2   172  HIS172      0.2596
      4  O         18.2850  -67.9080  102.3330 O.2   172  HIS172     -0.2718
      5  CB        15.3550  -67.9250  102.3520 C.3   172  HIS172      0.0759
      6  CG        14.2970  -68.8990  102.7360 C.ar  172  HIS172      0.0818
      7  ND1       13.3660  -69.3880  101.8440 N.ar  172  HIS172     -0.2268
      8  CD2       14.0290  -69.4860  103.9340 C.ar  172  HIS172      0.1154
      9  CE1       12.5550  -70.2250  102.4670 C.ar  172  HIS172      0.1986
     10  NE2       12.9650  -70.3300  103.7310 N.ar  172  HIS172     -0.2212
     11  N         18.1770  -66.0340  103.5600 N.am  173  ALA173     -0.1966
     12  CA        19.6240  -65.8410  103.4830 C.3   173  ALA173      0.1728
     13  C         20.3550  -66.7510  104.4790 C.2   173  ALA173      0.2616
     14  O         21.5720  -67.0320  104.3100 O.2   173  ALA173     -0.2715
     15  CB        19.9860  -64.3830  103.7680 C.3   173  ALA173      0.0334
     16  N         19.6240  -67.2320  105.4920 N.am  174  LEU174     -0.1963
     17  CA        20.2530  -67.9250  106.6240 C.3   174  LEU174      0.1728
     18  C         20.3000  -69.4470  106.4850 C.2   174  LEU174      0.2617
     19  O         19.3200  -70.0730  106.0680 O.2   174  LEU174     -0.2715
     20  CB        19.5020  -67.6230  107.9280 C.3   174  LEU174      0.0311
     21  CG        19.3320  -66.1540  108.3270 C.3   174  LEU174      0.0022
     22  CD1       18.2890  -66.0400  109.4470 C.3   174  LEU174      0.0001
     23  CD2       20.6730  -65.4870  108.7490 C.3   174  LEU174      0.0001
     24  N         21.4130  -70.0650  106.9000 N.am  175  GLY175     -0.1940
     25  CA        21.4460  -71.5180  106.9930 C.3   175  GLY175      0.2014
     26  C         21.5130  -72.1330  105.6090 C.2   175  GLY175      0.2639
     27  O         22.1830  -71.5730  104.7220 O.2   175  GLY175     -0.2714
     28  N         20.7990  -73.2510  105.4230 N.am  176  LYS176     -0.1963
     29  CA        20.7880  -73.9580  104.1530 C.3   176  LYS176      0.1728
     30  C         19.6930  -74.9970  104.1430 C.2   176  LYS176      0.2616
     31  O         19.0880  -75.2850  105.1730 O.2   176  LYS176     -0.2715
     32  CB        22.1470  -74.6270  103.8790 C.3   176  LYS176      0.0311
     33  CG        22.5840  -75.7080  104.8780 C.3   176  LYS176      0.0038
     34  CD        23.9110  -76.3980  104.5180 C.3   176  LYS176      0.0206
     35  CE        23.8410  -77.2410  103.1930 C.3   176  LYS176      0.1093
     36  NZ        23.0390  -78.5780  103.1780 N.3   176  LYS176     -0.1314
     37  N         19.4290  -75.5590  102.9680 N.am  177  THR177     -0.1951
     38  CA        18.5290  -76.6840  102.8970 C.3   177  THR177      0.1897
     39  C         19.3360  -77.9840  103.0860 C.2   177  THR177      0.2313
     40  O         20.5690  -78.0450  102.8860 O.2   177  THR177     -0.2863
     41  CB        17.6960  -76.7070  101.5680 C.3   177  THR177      0.1794
     42  OG1       18.5420  -76.9100  100.4290 O.3   177  THR177     -0.2208
     43  CG2       16.9010  -75.3780  101.3750 C.3   177  THR177      0.0378
     44  N         23.0290  -74.9360   99.2220 N.3   187  GLY187     -0.1210
     45  CA        24.2010  -74.2560   98.7240 C.3   187  GLY187      0.1956
     46  C         24.0980  -72.8790   99.3450 C.2   187  GLY187      0.2612
     47  O         23.0080  -72.4860   99.7870 O.2   187  GLY187     -0.2717
     48  N         25.2140  -72.1570   99.4060 N.am  188  GLY188     -0.1956
     49  CA        25.1930  -70.7610   99.8170 C.3   188  GLY188      0.1869
     50  C         24.9120  -70.5350  101.2910 C.2   188  GLY188      0.2309
     51  O         24.2120  -69.5630  101.6710 O.2   188  GLY188     -0.2863
     52  N         20.7910  -61.8380   95.7730 N.3   200  ASN200     -0.1240
     53  CA        21.0480  -63.0610   95.0410 C.3   200  ASN200      0.1653
     54  C         19.9300  -63.3280   94.0140 C.2   200  ASN200      0.2266
     55  O         20.1900  -63.7240   92.8540 O.2   200  ASN200     -0.2867
     56  CB        21.2020  -64.2620   95.9710 C.3   200  ASN200      0.1155
     57  CG        22.4780  -64.1930   96.7930 C.2   200  ASN200      0.2627
     58  OD1       23.3870  -63.4540   96.4480 O.2   200  ASN200     -0.2716
     59  ND2       22.5480  -64.9570   97.8800 N.am  200  ASN200     -0.0877
     60  N         24.4850  -70.9680   94.8750 N.3   224  TYR224     -0.1227
     61  CA        23.2720  -70.5880   95.6480 C.3   224  TYR224      0.1736
     62  C         22.1130  -71.3730   95.0890 C.2   224  TYR224      0.2595
     63  O         22.1890  -71.9100   93.9640 O.2   224  TYR224     -0.2718
     64  CB        22.9750  -69.0880   95.5740 C.3   224  TYR224      0.0548
     65  CG        24.0080  -68.2410   96.2760 C.ar  224  TYR224     -0.0200
     66  CD1       24.8680  -67.4160   95.5590 C.ar  224  TYR224     -0.0009
     67  CD2       24.1040  -68.2470   97.6790 C.ar  224  TYR224     -0.0009
     68  CE1       25.8330  -66.6550   96.2080 C.ar  224  TYR224      0.0417
     69  CE2       25.0820  -67.4690   98.3480 C.ar  224  TYR224      0.0417
     70  CZ        25.9310  -66.6780   97.5880 C.ar  224  TYR224      0.1957
     71  OH        26.9090  -65.9090   98.1960 O.3   224  TYR224     -0.2866
     72  N         21.0600  -71.4720   95.8780 N.am  225  MET225     -0.1965
     73  CA        19.8450  -72.0980   95.4170 C.3   225  MET225      0.1736
     74  C         18.6190  -71.3970   95.9320 C.2   225  MET225      0.2616
     75  O         18.6750  -70.6510   96.9190 O.2   225  MET225     -0.2715
     76  CB        19.7910  -73.5910   95.7770 C.3   225  MET225      0.0427
     77  CG        19.8780  -73.9360   97.2020 C.3   225  MET225      0.0599
     78  SD        18.3260  -73.7710   98.0880 S.3   225  MET225     -0.1393
     79  CE        17.3430  -75.1180   97.4350 C.3   225  MET225      0.0692
     80  N         17.5320  -71.5720   95.1940 N.am  226  MET226     -0.1963
     81  CA        16.2450  -70.9860   95.5540 C.3   226  MET226      0.1736
     82  C         15.1730  -72.0590   95.4030 C.2   226  MET226      0.2616
     83  O         15.1450  -72.8020   94.3990 O.2   226  MET226     -0.2715
     84  CB        15.9230  -69.7660   94.6730 C.3   226  MET226      0.0427
     85  CG        16.8840  -68.5800   94.8410 C.3   226  MET226      0.0599
     86  SD        16.5010  -67.7060   96.3850 S.3   226  MET226     -0.1393
     87  CE        17.9020  -66.5390   96.5010 C.3   226  MET226      0.0692
     88  N         14.2740  -72.1330   96.3850 N.am  227  LEU227     -0.1977
     89  CA        13.0790  -72.9540   96.2700 C.3   227  LEU227      0.1596
     90  C         12.1930  -72.3710   95.1960 C.2   227  LEU227      0.2287
     91  O         12.2560  -71.1710   94.9510 O.2   227  LEU227     -0.2864
     92  CB        12.3170  -72.9910   97.6020 C.3   227  LEU227      0.0297
     93  CG        13.1580  -73.4530   98.7770 C.3   227  LEU227      0.0022
     94  CD1       12.4190  -73.0950  100.0770 C.3   227  LEU227      0.0001
     95  CD2       13.4420  -74.9570   98.6600 C.3   227  LEU227      0.0001
     96  N         10.6340  -69.4090   96.6790 N.3   230  ASP230     -0.1239
     97  CA        11.5570  -68.2530   96.7450 C.3   230  ASP230      0.1674
     98  C         11.5680  -67.5300   95.3880 C.2   230  ASP230      0.2266
     99  O         11.4720  -66.2700   95.2850 O.2   230  ASP230     -0.2867
    100  CB        13.0060  -68.6680   97.0060 C.3   230  ASP230      0.1410
    101  CG        13.2590  -69.2810   98.3840 C.2   230  ASP230      0.3668
    102  OD1       12.6120  -68.8220   99.3340 O.co2 230  ASP230     -0.2456
    103  OD2       14.1370  -70.2080   98.4920 O.co2 230  ASP230     -0.2456
@<TRIPOS>BOND
     1    55    54    2
     2    63    62    2
     3    54    53    1
     4    83    82    2
     5    84    85    1
     6    84    81    1
     7    85    86    1
     8    60    61    1
     9    91    90    2
    10    53    52    1
    11    53    56    1
    12    62    61    1
    13    62    72   am
    14    80    81    1
    15    80    74   am
    16    90    89    1
    17    99    98    2
    18    98    97    1
    19    82    81    1
    20    82    88   am
    21    73    76    1
    22    73    72    1
    23    73    74    1
    24    66    68   ar
    25    66    65   ar
    26    64    61    1
    27    64    65    1
    28    76    77    1
    29    74    75    2
    30    56    57    1
    31    68    70   ar
    32    89    88    1
    33    89    92    1
    34    65    67   ar
    35    86    87    1
    36    58    57    2
    37    96    97    1
    38    97   100    1
    39    57    59   am
    40   100   101    1
    41    77    78    1
    42    79    78    1
    43    70    71    1
    44    70    69   ar
    45    92    93    1
    46    67    69   ar
    47   101   103   ar
    48   101   102   ar
    49    95    93    1
    50    45    44    1
    51    45    46    1
    52    93    94    1
    53    46    48   am
    54    46    47    2
    55    48    49    1
    56    49    50    1
    57    42    41    1
    58    50    51    2
    59    43    41    1
    60    41    38    1
    61     7     9   ar
    62     7     6   ar
    63     4     3    2
    64     5     6    1
    65     5     2    1
    66     9    10   ar
    67     6     8   ar
    68    40    39    2
    69    38    37    1
    70    38    39    1
    71    37    30   am
    72     3     2    1
    73     3    11   am
    74    36    35    1
    75    35    34    1
    76    12    11    1
    77    12    15    1
    78    12    13    1
    79     2     1    1
    80    10     8   ar
    81    32    29    1
    82    32    33    1
    83    30    29    1
    84    30    31    2
    85    29    28    1
    86    14    13    2
    87    13    16   am
    88    34    33    1
    89    27    26    2
    90    28    26   am
    91    16    17    1
    92    26    25    1
    93    19    18    2
    94    18    17    1
    95    18    24   am
    96    17    20    1
    97    24    25    1
    98    20    21    1
    99    21    23    1
   100    21    22    1
