@<TRIPOS>MOLECULE
tmp/5u61A01.pdb
 93 89 0 0 0
SMALL
GASTEIGER

@<TRIPOS>ATOM
      1  N        -15.4030    7.4030    1.7280 N.3   172  HIS172     -0.1241
      2  CA       -16.0460    6.4250    2.5980 C.3   172  HIS172      0.1621
      3  C        -17.4620    6.8120    2.9670 C.2   172  HIS172      0.2264
      4  O        -18.1420    6.0450    3.6210 O.2   172  HIS172     -0.2867
      5  CB       -15.1890    6.1460    3.8280 C.3   172  HIS172      0.0745
      6  CG       -14.1120    5.1550    3.5630 C.ar  172  HIS172      0.0817
      7  ND1      -13.1440    4.8450    4.4790 N.ar  172  HIS172     -0.2268
      8  CD2      -13.8640    4.3820    2.4770 C.ar  172  HIS172      0.1154
      9  CE1      -12.3460    3.9270    3.9710 C.ar  172  HIS172      0.1986
     10  NE2      -12.7700    3.6210    2.7600 N.ar  172  HIS172     -0.2212
     11  N        -19.4390    6.6710    0.6320 N.3   174  LEU174     -0.1231
     12  CA       -20.0810    5.8440   -0.3890 C.3   174  LEU174      0.1693
     13  C        -20.1060    4.3730   -0.0170 C.2   174  LEU174      0.2593
     14  O        -19.1410    3.8490    0.5220 O.2   174  LEU174     -0.2718
     15  CB       -19.3000    5.9660   -1.6890 C.3   174  LEU174      0.0284
     16  CG       -19.1040    7.3660   -2.2650 C.3   174  LEU174      0.0019
     17  CD1      -18.0540    7.3140   -3.3710 C.3   174  LEU174      0.0001
     18  CD2      -20.4080    7.9370   -2.7730 C.3   174  LEU174      0.0001
     19  N        -21.1880    3.6890   -0.3570 N.am  175  GLY175     -0.1942
     20  CA       -21.2370    2.2440   -0.2670 C.3   175  GLY175      0.2014
     21  C        -21.1800    1.7130    1.1460 C.2   175  GLY175      0.2639
     22  O        -21.6570    2.3490    2.0890 O.2   175  GLY175     -0.2714
     23  N        -20.6090    0.5240    1.2990 N.am  176  LYS176     -0.1963
     24  CA       -20.5550   -0.1190    2.6050 C.3   176  LYS176      0.1728
     25  C        -19.4430   -1.1510    2.6550 C.2   176  LYS176      0.2616
     26  O        -18.8910   -1.5330    1.6280 O.2   176  LYS176     -0.2715
     27  CB       -21.8930   -0.7920    2.9140 C.3   176  LYS176      0.0311
     28  CG       -22.2210   -1.9660    2.0010 C.3   176  LYS176      0.0038
     29  CD       -23.6080   -2.5440    2.2780 C.3   176  LYS176      0.0206
     30  CE       -23.7080   -3.2060    3.6500 C.3   176  LYS176      0.1093
     31  NZ       -22.8360   -4.4050    3.7870 N.3   176  LYS176     -0.1314
     32  N        -19.1220   -1.5940    3.8650 N.am  177  THR177     -0.1951
     33  CA       -18.2440   -2.7280    4.0510 C.3   177  THR177      0.1897
     34  C        -19.0790   -4.0120    3.9670 C.2   177  THR177      0.2313
     35  O        -20.3010   -3.9980    4.1290 O.2   177  THR177     -0.2863
     36  CB       -17.4870   -2.6640    5.3890 C.3   177  THR177      0.1794
     37  OG1      -18.4050   -2.7930    6.4680 O.3   177  THR177     -0.2208
     38  CG2      -16.7540   -1.3500    5.5360 C.3   177  THR177      0.0378
     39  N        -21.2160   -3.0050    7.7310 N.3   186  GLY186     -0.1210
     40  CA       -21.9670   -1.7750    7.8930 C.3   186  GLY186      0.1956
     41  C        -21.4590   -0.6330    7.0390 C.2   186  GLY186      0.2612
     42  O        -20.5290   -0.7880    6.2380 O.2   186  GLY186     -0.2717
     43  N        -22.0650    0.5320    7.2250 N.am  187  GLY187     -0.1942
     44  CA       -21.8070    1.6720    6.3650 C.3   187  GLY187      0.2014
     45  C        -23.1300    2.3170    6.0080 C.2   187  GLY187      0.2639
     46  O        -24.1920    1.7240    6.2200 O.2   187  GLY187     -0.2714
     47  N        -23.0670    3.5250    5.4560 N.am  188  GLY188     -0.1954
     48  CA       -24.2650    4.2760    5.1330 C.3   188  GLY188      0.1869
     49  C        -25.0480    3.7260    3.9470 C.2   188  GLY188      0.2309
     50  O        -26.2160    4.0610    3.7690 O.2   188  GLY188     -0.2863
     51  N        -19.2160   11.9280    5.3640 N.3   197  PHE197     -0.1241
     52  CA       -18.2250   11.1640    6.1410 C.3   197  PHE197      0.1605
     53  C        -17.7240   12.0120    7.3200 C.2   197  PHE197      0.2264
     54  O        -17.6130   11.5430    8.4480 O.2   197  PHE197     -0.2867
     55  CB       -17.0740   10.7740    5.2180 C.3   197  PHE197      0.0534
     56  CG       -15.8800   10.1520    5.8960 C.ar  197  PHE197     -0.0203
     57  CD1      -15.8890    8.8190    6.2610 C.ar  197  PHE197     -0.0042
     58  CD2      -14.7200   10.8770    6.0840 C.ar  197  PHE197     -0.0042
     59  CE1      -14.7620    8.2380    6.8260 C.ar  197  PHE197     -0.0003
     60  CE2      -13.6050   10.2980    6.6310 C.ar  197  PHE197     -0.0003
     61  CZ       -13.6160    8.9880    6.9970 C.ar  197  PHE197     -0.0000
     62  N        -20.9150    3.3240   10.7070 N.3   225  MET225     -0.1230
     63  CA       -19.6940    2.7080   11.1870 C.3   225  MET225      0.1702
     64  C        -18.4930    3.4700   10.6580 C.2   225  MET225      0.2592
     65  O        -18.5720    4.1770    9.6410 O.2   225  MET225     -0.2718
     66  CB       -19.6040    1.2230   10.7970 C.3   225  MET225      0.0401
     67  CG       -19.4730    0.9470    9.3100 C.3   225  MET225      0.0596
     68  SD       -17.7810    1.0810    8.6680 S.3   225  MET225     -0.1393
     69  CE       -16.9910   -0.3150    9.4470 C.3   225  MET225      0.0692
     70  N        -17.3870    3.3250   11.3730 N.am  226  MET226     -0.1965
     71  CA       -16.0920    3.8370   10.9640 C.3   226  MET226      0.1736
     72  C        -15.0380    2.7810   11.2280 C.2   226  MET226      0.2616
     73  O        -15.0310    2.1270   12.2800 O.2   226  MET226     -0.2715
     74  CB       -15.7450    5.1180   11.7330 C.3   226  MET226      0.0427
     75  CG       -16.6260    6.3250   11.4330 C.3   226  MET226      0.0599
     76  SD       -16.2030    7.0540    9.8500 S.3   226  MET226     -0.1393
     77  CE       -17.6460    8.0770    9.5710 C.3   226  MET226      0.0692
     78  N        -14.1370    2.6300   10.2710 N.am  227  LEU227     -0.1977
     79  CA       -12.9760    1.7900   10.4720 C.3   227  LEU227      0.1596
     80  C        -12.0440    2.4650   11.4800 C.2   227  LEU227      0.2287
     81  O        -12.0550    3.6860   11.6230 O.2   227  LEU227     -0.2864
     82  CB       -12.2210    1.6290    9.1570 C.3   227  LEU227      0.0297
     83  CG       -13.0090    1.0110    8.0060 C.3   227  LEU227      0.0022
     84  CD1      -12.2630    1.2320    6.6930 C.3   227  LEU227      0.0001
     85  CD2      -13.2610   -0.4580    8.2410 C.3   227  LEU227      0.0001
     86  N        -10.3940    5.3030    9.7900 N.3   230  ASP230     -0.1239
     87  CA       -11.2830    6.4570    9.6490 C.3   230  ASP230      0.1674
     88  C        -11.2900    7.2630   10.9460 C.2   230  ASP230      0.2266
     89  O        -11.2110    8.4930   10.9340 O.2   230  ASP230     -0.2867
     90  CB       -12.7290    6.0240    9.3920 C.3   230  ASP230      0.1410
     91  CG       -12.9580    5.3410    8.0540 C.2   230  ASP230      0.3668
     92  OD1      -12.3170    5.6980    7.0360 O.co2 230  ASP230     -0.2456
     93  OD2      -13.8260    4.4350    8.0440 O.co2 230  ASP230     -0.2456
@<TRIPOS>BOND
     1    17    16    1
     2    18    16    1
     3    16    15    1
     4    15    12    1
     5    12    13    1
     6    12    11    1
     7    19    20    1
     8    19    13   am
     9    20    21    1
    10    13    14    2
    11    21    23   am
    12    21    22    2
    13    23    24    1
    14    26    25    2
    15     1     2    1
    16    28    29    1
    17    28    27    1
    18    29    30    1
    19     8    10   ar
    20     8     6   ar
    21     2     3    1
    22     2     5    1
    23    24    25    1
    24    24    27    1
    25    25    32   am
    26    10     9   ar
    27     3     4    2
    28     6     5    1
    29     6     7   ar
    30    30    31    1
    31    50    49    2
    32    32    33    1
    33    49    48    1
    34    34    33    1
    35    34    35    2
    36     9     7   ar
    37    33    36    1
    38    48    47    1
    39    55    56    1
    40    55    52    1
    41    51    52    1
    42    36    38    1
    43    36    37    1
    44    47    45   am
    45    56    58   ar
    46    56    57   ar
    47    45    46    2
    48    45    44    1
    49    58    60   ar
    50    52    53    1
    51    42    41    2
    52    57    59   ar
    53    44    43    1
    54    60    61   ar
    55    84    83    1
    56    59    61   ar
    57    92    91   ar
    58    41    43   am
    59    41    40    1
    60    53    54    2
    61    39    40    1
    62    83    85    1
    63    83    82    1
    64    93    91   ar
    65    91    90    1
    66    68    67    1
    67    68    69    1
    68    82    79    1
    69    67    66    1
    70    90    87    1
    71    77    76    1
    72    65    64    2
    73    87    86    1
    74    87    88    1
    75    76    75    1
    76    78    79    1
    77    78    72   am
    78    79    80    1
    79    64    63    1
    80    64    70   am
    81    62    63    1
    82    66    63    1
    83    89    88    2
    84    71    72    1
    85    71    70    1
    86    71    74    1
    87    72    73    2
    88    75    74    1
    89    80    81    2
