@<TRIPOS>MOLECULE
tmp/5u62B00.pdb
 112 105 0 0 0
SMALL
GASTEIGER

@<TRIPOS>ATOM
      1  N         34.2210    9.5780  125.3650 N.3    18  PHE18      -0.1241
      2  CA        33.2690   10.3430  126.1620 C.3    18  PHE18       0.1605
      3  C         32.4840   11.3340  125.3390 C.2    18  PHE18       0.2264
      4  O         31.4270   11.7840  125.7650 O.2    18  PHE18      -0.2867
      5  CB        33.9950   11.0600  127.3240 C.3    18  PHE18       0.0534
      6  CG        34.5670   10.1190  128.3730 C.ar   18  PHE18      -0.0203
      7  CD1       33.7340    9.2670  129.1000 C.ar   18  PHE18      -0.0042
      8  CD2       35.9290   10.1260  128.6720 C.ar   18  PHE18      -0.0042
      9  CE1       34.2620    8.4100  130.0830 C.ar   18  PHE18      -0.0003
     10  CE2       36.4540    9.2750  129.6550 C.ar   18  PHE18      -0.0003
     11  CZ        35.6160    8.4140  130.3450 C.ar   18  PHE18      -0.0000
     12  N         37.3280   14.8950  127.6270 N.3    69  TYR69      -0.1241
     13  CA        35.9490   14.6040  128.0070 C.3    69  TYR69       0.1605
     14  C         34.9440   15.1720  127.0480 C.2    69  TYR69       0.2264
     15  O         33.7830   14.7450  127.0260 O.2    69  TYR69      -0.2867
     16  CB        35.6680   15.2480  129.3860 C.3    69  TYR69       0.0534
     17  CG        36.3770   14.6190  130.5700 C.ar   69  TYR69      -0.0201
     18  CD1       36.8750   13.3200  130.5020 C.ar   69  TYR69      -0.0009
     19  CD2       36.4230   15.2680  131.8010 C.ar   69  TYR69      -0.0009
     20  CE1       37.4950   12.7240  131.5990 C.ar   69  TYR69       0.0417
     21  CE2       37.0130   14.6700  132.9150 C.ar   69  TYR69       0.0417
     22  CZ        37.5560   13.4000  132.8050 C.ar   69  TYR69       0.1957
     23  OH        38.1390   12.7980  133.8930 O.3    69  TYR69      -0.2866
     24  N         39.2800   19.6980  136.0970 N.3   113  ALA113     -0.1245
     25  CA        38.7450   19.0850  134.8830 C.3   113  ALA113      0.1562
     26  C         37.5740   19.8550  134.2960 C.2   113  ALA113      0.2260
     27  O         36.7420   20.3930  135.0330 O.2   113  ALA113     -0.2867
     28  CB        38.3220   17.6510  135.1600 C.3   113  ALA113      0.0290
     29  N         34.2800   19.4040  132.1740 N.3   115  ASN115     -0.1240
     30  CA        33.3030   18.3550  131.8650 C.3   115  ASN115      0.1653
     31  C         32.5370   18.5400  130.5760 C.2   115  ASN115      0.2266
     32  O         32.0680   17.5480  130.0220 O.2   115  ASN115     -0.2867
     33  CB        32.3280   18.1960  133.0420 C.3   115  ASN115      0.1155
     34  CG        33.0250   17.6240  134.2340 C.2   115  ASN115      0.2627
     35  OD1       33.8330   16.7190  134.0920 O.2   115  ASN115     -0.2716
     36  ND2       32.7950   18.1760  135.4150 N.am  115  ASN115     -0.0877
     37  N         34.8870   20.8880  137.1620 N.3   132  LYS132     -0.1245
     38  CA        35.0460   20.1800  138.4240 C.3   132  LYS132      0.1561
     39  C         35.2640   21.1890  139.5770 C.2   132  LYS132      0.2260
     40  O         34.9980   20.8480  140.7290 O.2   132  LYS132     -0.2867
     41  CB        36.2210   19.1840  138.2950 C.3   132  LYS132      0.0271
     42  CG        36.6010   18.4280  139.5560 C.3   132  LYS132      0.0035
     43  CD        37.3230   17.1410  139.2110 C.3   132  LYS132      0.0206
     44  CE        37.8010   16.4080  140.4390 C.3   132  LYS132      0.1093
     45  NZ        38.2360   15.0230  140.1060 N.3   132  LYS132     -0.1314
     46  N         30.8710   19.6480  141.2970 N.3   159  GLU159     -0.1245
     47  CA        31.1720   19.6560  139.8650 C.3   159  GLU159      0.1567
     48  C         30.0140   20.0110  138.9990 C.2   159  GLU159      0.2260
     49  O         28.9350   19.4520  139.1370 O.2   159  GLU159     -0.2867
     50  CB        31.6780   18.3020  139.3780 C.3   159  GLU159      0.0388
     51  CG        32.9430   17.8420  140.0580 C.3   159  GLU159      0.1160
     52  CD        33.6060   16.7290  139.2800 C.2   159  GLU159      0.3649
     53  OE1       34.0820   15.7830  139.9370 O.co2 159  GLU159     -0.2457
     54  OE2       33.6260   16.7760  138.0270 O.co2 159  GLU159     -0.2457
     55  N         28.4970   19.4720  135.5320 N.3   161  LEU161     -0.1245
     56  CA        28.6350   18.3690  134.5770 C.3   161  LEU161      0.1561
     57  C         28.2140   18.7050  133.1680 C.2   161  LEU161      0.2260
     58  O         28.7320   18.1160  132.2270 O.2   161  LEU161     -0.2867
     59  CB        27.8670   17.1310  135.0930 C.3   161  LEU161      0.0270
     60  CG        28.3600   16.5190  136.4220 C.3   161  LEU161      0.0019
     61  CD1       27.5300   15.2900  136.8080 C.3   161  LEU161      0.0001
     62  CD2       29.8760   16.1180  136.3650 C.3   161  LEU161      0.0001
     63  N         23.7220   14.8720  134.9650 N.3   231  ASP231     -0.1239
     64  CA        24.8760   14.8380  134.0680 C.3   231  ASP231      0.1674
     65  C         24.6130   15.3020  132.6340 C.2   231  ASP231      0.2266
     66  O         25.5250   15.2430  131.8190 O.2   231  ASP231     -0.2867
     67  CB        25.5160   13.4200  134.0890 C.3   231  ASP231      0.1410
     68  CG        24.5840   12.2890  133.6520 C.2   231  ASP231      0.3668
     69  OD1       23.3500   12.5080  133.6270 O.co2 231  ASP231     -0.2456
     70  OD2       25.0860   11.1640  133.4100 O.co2 231  ASP231     -0.2456
     71  N         27.4890    9.7830  133.9690 N.3   286  TYR286     -0.1227
     72  CA        28.1650   10.3200  132.7800 C.3   286  TYR286      0.1736
     73  C         27.6870    9.6900  131.4830 C.2   286  TYR286      0.2595
     74  O         28.4330    9.0080  130.7730 O.2   286  TYR286     -0.2718
     75  CB        29.7090   10.2540  132.9340 C.3   286  TYR286      0.0548
     76  CG        30.1590   10.6250  134.3340 C.ar  286  TYR286     -0.0200
     77  CD1       29.8080   11.8480  134.8980 C.ar  286  TYR286     -0.0009
     78  CD2       30.9710    9.7680  135.0790 C.ar  286  TYR286     -0.0009
     79  CE1       30.1780   12.1770  136.2020 C.ar  286  TYR286      0.0417
     80  CE2       31.3500   10.0860  136.3840 C.ar  286  TYR286      0.0417
     81  CZ        30.9650   11.3010  136.9340 C.ar  286  TYR286      0.1957
     82  OH        31.3370   11.6560  138.2030 O.3   286  TYR286     -0.2866
     83  N         26.4080    9.9180  131.1940 N.am  287  MET287     -0.1965
     84  CA        25.7540    9.4080  129.9950 C.3   287  MET287      0.1736
     85  C         24.9850   10.5800  129.3880 C.2   287  MET287      0.2616
     86  O         24.0810   11.1120  130.0360 O.2   287  MET287     -0.2715
     87  CB        24.8330    8.2230  130.3400 C.3   287  MET287      0.0427
     88  CG        25.5800    7.0070  130.9550 C.3   287  MET287      0.0599
     89  SD        26.6080    6.0960  129.7760 S.3   287  MET287     -0.1393
     90  CE        25.3240    5.0930  129.0110 C.3   287  MET287      0.0692
     91  N         25.3760   11.0150  128.1700 N.am  288  ARG288     -0.1977
     92  CA        24.7500   12.1840  127.5510 C.3   288  ARG288      0.1597
     93  C         23.6300   11.8480  126.6220 C.2   288  ARG288      0.2287
     94  O         23.7300   10.8680  125.8860 O.2   288  ARG288     -0.2864
     95  CB        25.7610   12.9760  126.6870 C.3   288  ARG288      0.0334
     96  CG        26.9370   13.4450  127.4210 C.3   288  ARG288      0.0492
     97  CD        26.9110   14.9150  127.6750 C.3   288  ARG288      0.2205
     98  NE        28.2870   15.3240  127.9060 N.pl3 288  ARG288     -0.0865
     99  CZ        28.6790   16.1460  128.8610 C.cat 288  ARG288      0.5346
    100  NH1       29.9560   16.4300  129.0050 N.pl3 288  ARG288      0.1354
    101  NH2       27.7920   16.6940  129.6820 N.pl3 288  ARG288      0.1354
    102  N         28.3440    6.4690  125.6690 N.3   328  ARG328     -0.1245
    103  CA        28.5840    7.6850  126.4500 C.3   328  ARG328      0.1563
    104  C         27.9530    8.9020  125.8030 C.2   328  ARG328      0.2260
    105  O         27.4880    9.7910  126.5020 O.2   328  ARG328     -0.2867
    106  CB        30.1020    7.9130  126.6260 C.3   328  ARG328      0.0307
    107  CG        30.7800    6.8400  127.4760 C.3   328  ARG328      0.0489
    108  CD        30.4280    7.0460  128.9380 C.3   328  ARG328      0.2205
    109  NE        30.8990    5.9420  129.7710 N.pl3 328  ARG328     -0.0865
    110  CZ        30.5930    5.7990  131.0520 C.cat 328  ARG328      0.5346
    111  NH1       31.0910    4.7920  131.7460 N.pl3 328  ARG328      0.1354
    112  NH2       29.7940    6.6800  131.6570 N.pl3 328  ARG328      0.1354
@<TRIPOS>BOND
     1     3     4    2
     2     3     2    1
     3     1     2    1
     4   102   103    1
     5   104   103    1
     6   104   105    2
     7    94    93    2
     8     2     5    1
     9   103   106    1
    10    93    92    1
    11   106   107    1
    12    95    96    1
    13    95    92    1
    14    15    14    2
    15    14    13    1
    16     5     6    1
    17    96    97    1
    18   107   108    1
    19    92    91    1
    20    12    13    1
    21    97    98    1
    22    98    99    2
    23    13    16    1
    24    91    85   am
    25     6     8   ar
    26     6     7   ar
    27     8    10   ar
    28    99   100    1
    29    99   101    1
    30   108   109    1
    31    90    89    1
    32     7     9   ar
    33    16    17    1
    34    85    84    1
    35    85    86    2
    36    10    11   ar
    37   109   110    2
    38    89    88    1
    39    84    87    1
    40    84    83    1
    41    32    31    2
    42     9    11   ar
    43    87    88    1
    44    18    17   ar
    45    18    20   ar
    46    17    19   ar
    47    31    30    1
    48    74    73    2
    49   110   112    1
    50   110   111    1
    51    83    73   am
    52    73    72    1
    53    20    22   ar
    54    19    21   ar
    55    66    65    2
    56    30    29    1
    57    30    33    1
    58    58    57    2
    59    65    64    1
    60    72    75    1
    61    72    71    1
    62    22    21   ar
    63    22    23    1
    64    75    76    1
    65    33    34    1
    66    57    56    1
    67    70    68   ar
    68    69    68   ar
    69    68    67    1
    70    64    67    1
    71    64    63    1
    72    35    34    2
    73    34    36   am
    74    26    25    1
    75    26    27    2
    76    76    77   ar
    77    76    78   ar
    78    56    59    1
    79    56    55    1
    80    25    28    1
    81    25    24    1
    82    77    79   ar
    83    78    80   ar
    84    59    60    1
    85    79    81   ar
    86    62    60    1
    87    80    81   ar
    88    60    61    1
    89    81    82    1
    90    37    38    1
    91    54    52   ar
    92    41    38    1
    93    41    42    1
    94    38    39    1
    95    48    49    2
    96    48    47    1
    97    43    42    1
    98    43    44    1
    99    52    53   ar
   100    52    51    1
   101    50    47    1
   102    50    51    1
   103    39    40    2
   104    47    46    1
   105    45    44    1
