@<TRIPOS>MOLECULE
tmp/5u63B01.pdb
 139 133 0 0 0
SMALL
GASTEIGER

@<TRIPOS>ATOM
      1  N         71.6490   57.6480    7.9410 N.3   121  ARG121     -0.1245
      2  CA        72.1210   58.3400    6.7470 C.3   121  ARG121      0.1563
      3  C         73.5510   57.9190    6.4240 C.2   121  ARG121      0.2260
      4  O         74.3100   57.5060    7.3030 O.2   121  ARG121     -0.2867
      5  CB        72.0860   59.8650    6.9180 C.3   121  ARG121      0.0307
      6  CG        70.9220   60.3930    7.7280 C.3   121  ARG121      0.0489
      7  CD        70.6470   61.8510    7.4180 C.3   121  ARG121      0.2205
      8  NE        71.7410   62.7340    7.8090 N.pl3 121  ARG121     -0.0865
      9  CZ        71.7520   63.4480    8.9310 C.cat 121  ARG121      0.5346
     10  NH1       70.7320   63.3700    9.7780 N.pl3 121  ARG121      0.1354
     11  NH2       72.7800   64.2360    9.2110 N.pl3 121  ARG121      0.1354
     12  N         77.1360   59.3790    4.2710 N.3   123  ILE123     -0.1245
     13  CA        77.7380   60.6640    3.9250 C.3   123  ILE123      0.1561
     14  C         77.4290   61.0270    2.4840 C.2   123  ILE123      0.2260
     15  O         77.1300   62.1850    2.1690 O.2   123  ILE123     -0.2867
     16  CB        79.2520   60.6360    4.1850 C.3   123  ILE123      0.0252
     17  CG1       79.5240   60.5340    5.6840 C.3   123  ILE123      0.0019
     18  CG2       79.9170   61.8740    3.6000 C.3   123  ILE123      0.0019
     19  CD1       80.8600   59.9110    6.0090 C.3   123  ILE123      0.0001
     20  N         82.1090   57.3180   12.4620 N.3   155  ILE155     -0.1231
     21  CA        82.0510   58.7210   12.0510 C.3   155  ILE155      0.1692
     22  C         80.7380   59.3290   12.5320 C.2   155  ILE155      0.2593
     23  O         79.6660   58.7410   12.3350 O.2   155  ILE155     -0.2718
     24  CB        82.1970   58.8780   10.5270 C.3   155  ILE155      0.0266
     25  CG1       83.5520   58.3540   10.0630 C.3   155  ILE155      0.0019
     26  CG2       82.0690   60.3450   10.1280 C.3   155  ILE155      0.0020
     27  CD1       83.8330   58.6390    8.6010 C.3   155  ILE155      0.0001
     28  N         80.8180   60.5040   13.1390 N.am  156  GLY156     -0.1942
     29  CA        79.6630   61.1800   13.7030 C.3   156  GLY156      0.2014
     30  C         80.0250   61.8020   15.0370 C.2   156  GLY156      0.2639
     31  O         81.0430   61.4880   15.6520 O.2   156  GLY156     -0.2714
     32  N         79.1700   62.7090   15.4990 N.am  157  GLY157     -0.1939
     33  CA        79.4850   63.4120   16.7290 C.3   157  GLY157      0.2014
     34  C         78.3500   63.4270   17.7290 C.2   157  GLY157      0.2639
     35  O         78.4570   64.0500   18.7900 O.2   157  GLY157     -0.2714
     36  N         77.2540   62.7390   17.4040 N.am  158  GLY158     -0.1954
     37  CA        76.0520   62.7750   18.2050 C.3   158  GLY158      0.1869
     38  C         75.8700   61.5320   19.0610 C.2   158  GLY158      0.2309
     39  O         76.7810   60.7240   19.2620 O.2   158  GLY158     -0.2863
     40  N         85.0570   62.8680   13.6290 N.3   179  HIS179     -0.1226
     41  CA        84.0180   63.8820   13.6780 C.3   179  HIS179      0.1752
     42  C         84.5900   65.1970   13.1690 C.2   179  HIS179      0.2596
     43  O         85.7700   65.4980   13.3730 O.2   179  HIS179     -0.2718
     44  CB        83.4800   64.0260   15.1040 C.3   179  HIS179      0.0759
     45  CG        82.3660   65.0130   15.2380 C.ar  179  HIS179      0.0818
     46  ND1       81.3820   65.1590   14.2850 N.ar  179  HIS179     -0.2268
     47  CD2       82.0750   65.8980   16.2220 C.ar  179  HIS179      0.1154
     48  CE1       80.5380   66.1010   14.6720 C.ar  179  HIS179      0.1986
     49  NE2       80.9320   66.5610   15.8460 N.ar  179  HIS179     -0.2212
     50  N         83.7390   65.9740   12.5030 N.am  180  ARG180     -0.1966
     51  CA        84.1730   67.2130   11.8680 C.3   180  ARG180      0.1729
     52  C         84.2080   68.3990   12.8290 C.2   180  ARG180      0.2616
     53  O         84.3840   69.5370   12.3770 O.2   180  ARG180     -0.2715
     54  CB        83.2780   67.5220   10.6620 C.3   180  ARG180      0.0348
     55  CG        81.8150   67.6290   11.0000 C.3   180  ARG180      0.0492
     56  CD        80.9580   67.7000    9.7590 C.3   180  ARG180      0.2205
     57  NE        79.5770   67.9790   10.1330 N.pl3 180  ARG180     -0.0865
     58  CZ        78.5590   68.0470    9.2800 C.cat 180  ARG180      0.5346
     59  NH1       77.3360   68.3130    9.7330 N.pl3 180  ARG180      0.1354
     60  NH2       78.7590   67.8490    7.9810 N.pl3 180  ARG180      0.1354
     61  N         84.0630   68.1620   14.1310 N.am  181  ARG181     -0.1977
     62  CA        84.1950   69.2070   15.1320 C.3   181  ARG181      0.1597
     63  C         85.0180   68.6760   16.2940 C.2   181  ARG181      0.2287
     64  O         85.3290   67.4870   16.3700 O.2   181  ARG181     -0.2864
     65  CB        82.8380   69.6890   15.6390 C.3   181  ARG181      0.0334
     66  CG        81.9140   70.2270   14.5800 C.3   181  ARG181      0.0492
     67  CD        80.7740   70.9490   15.2580 C.3   181  ARG181      0.2205
     68  NE        79.7800   71.4540   14.3200 N.pl3 181  ARG181     -0.0865
     69  CZ        78.6990   72.1370   14.6860 C.cat 181  ARG181      0.5346
     70  NH1       77.8390   72.5600   13.7690 N.pl3 181  ARG181      0.1354
     71  NH2       78.4750   72.3990   15.9700 N.pl3 181  ARG181      0.1354
     72  N         78.0700   65.7680   21.0110 N.3   185  ARG185     -0.1245
     73  CA        76.7700   66.0390   21.6280 C.3   185  ARG185      0.1563
     74  C         76.0880   64.6980   21.8990 C.2   185  ARG185      0.2260
     75  O         75.5760   64.0410   20.9910 O.2   185  ARG185     -0.2867
     76  CB        75.9140   66.9620   20.7550 C.3   185  ARG185      0.0307
     77  CG        75.5770   66.4600   19.3410 C.3   185  ARG185      0.0489
     78  CD        75.1280   67.5960   18.4250 C.3   185  ARG185      0.2205
     79  NE        74.2330   68.5290   19.1040 N.pl3 185  ARG185     -0.0865
     80  CZ        73.9350   69.7440   18.6500 C.cat 185  ARG185      0.5346
     81  NH1       73.1080   70.5300   19.3340 N.pl3 185  ARG185      0.1354
     82  NH2       74.4680   70.1790   17.5140 N.pl3 185  ARG185      0.1354
     83  N         87.0660   65.3120    8.3980 N.3   210  THR210     -0.1218
     84  CA        86.0020   64.8030    7.5450 C.3   210  THR210      0.1862
     85  C         86.5360   63.6570    6.7090 C.2   210  THR210      0.2287
     86  O         87.7280   63.5910    6.4010 O.2   210  THR210     -0.2866
     87  CB        85.4300   65.8610    6.6000 C.3   210  THR210      0.1770
     88  OG1       86.4590   66.3170    5.7110 O.3   210  THR210     -0.2211
     89  CG2       84.8510   67.0270    7.3800 C.3   210  THR210      0.0375
     90  N         77.6900   56.9470   11.4720 N.3   245  ALA245     -0.1231
     91  CA        76.7310   57.2540   12.5310 C.3   245  ALA245      0.1694
     92  C         76.4620   58.7630   12.5440 C.2   245  ALA245      0.2592
     93  O         76.6470   59.4580   13.5410 O.2   245  ALA245     -0.2718
     94  CB        77.2550   56.7410   13.8660 C.3   245  ALA245      0.0304
     95  N         76.0260   59.2760   11.4050 N.am  246  ILE246     -0.1966
     96  CA        75.8290   60.6950   11.2420 C.3   246  ILE246      0.1727
     97  C         74.3510   61.0770   11.3420 C.2   246  ILE246      0.2617
     98  O         73.9490   62.1050   10.8070 O.2   246  ILE246     -0.2715
     99  CB        76.4360   61.1950    9.9270 C.3   246  ILE246      0.0290
    100  CG1       75.7100   60.5760    8.7200 C.3   246  ILE246      0.0022
    101  CG2       77.9360   60.9190    9.8880 C.3   246  ILE246      0.0023
    102  CD1       75.9830   61.3360    7.3870 C.3   246  ILE246      0.0001
    103  N         73.5360   60.2680   12.0020 N.am  247  GLY247     -0.1940
    104  CA        72.1380   60.5900   12.2050 C.3   247  GLY247      0.2014
    105  C         71.2200   59.7380   11.3420 C.2   247  GLY247      0.2638
    106  O         71.6470   58.9960   10.4590 O.2   247  GLY247     -0.2714
    107  N         69.9260   59.8720   11.6170 N.am  248  HIS248     -0.1973
    108  CA        68.8800   59.1010   10.9550 C.3   248  HIS248      0.1656
    109  C         67.9060   60.0430   10.2590 C.2   248  HIS248      0.2291
    110  O         67.5960   61.1190   10.7780 O.2   248  HIS248     -0.2864
    111  CB        68.1410   58.2170   11.9740 C.3   248  HIS248      0.0771
    112  CG        68.9870   57.1210   12.5460 C.ar  248  HIS248      0.0820
    113  ND1       68.7440   55.7840   12.3000 N.ar  248  HIS248     -0.2267
    114  CD2       70.0850   57.1630   13.3330 C.ar  248  HIS248      0.1154
    115  CE1       69.6570   55.0490   12.9090 C.ar  248  HIS248      0.1986
    116  NE2       70.4860   55.8640   13.5390 N.ar  248  HIS248     -0.2212
    117  N         59.9040   65.0450    7.7550 N.3   265  TYR265     -0.1241
    118  CA        59.0710   64.5860    8.8690 C.3   265  TYR265      0.1605
    119  C         57.5940   64.7610    8.5510 C.2   265  TYR265      0.2264
    120  O         57.1950   65.7340    7.9100 O.2   265  TYR265     -0.2867
    121  CB        59.3990   65.3540   10.1640 C.3   265  TYR265      0.0534
    122  CG        60.7860   65.0520   10.6270 C.ar  265  TYR265     -0.0201
    123  CD1       61.0360   63.9760   11.4790 C.ar  265  TYR265     -0.0009
    124  CD2       61.8700   65.7760   10.1370 C.ar  265  TYR265     -0.0009
    125  CE1       62.3350   63.6640   11.8710 C.ar  265  TYR265      0.0417
    126  CE2       63.1690   65.4630   10.5270 C.ar  265  TYR265      0.0417
    127  CZ        63.3910   64.4070   11.3770 C.ar  265  TYR265      0.1957
    128  OH        64.6780   64.1070   11.7590 O.3   265  TYR265     -0.2866
    129  N         63.3820   62.0460   20.0950 N.3   296  ARG296     -0.1245
    130  CA        63.9360   60.8230   19.5010 C.3   296  ARG296      0.1563
    131  C         64.3510   59.8060   20.5570 C.2   296  ARG296      0.2260
    132  O         65.4640   59.2820   20.5580 O.2   296  ARG296     -0.2867
    133  CB        65.0900   61.1610   18.5600 C.3   296  ARG296      0.0307
    134  CG        64.5660   61.9710   17.4090 C.3   296  ARG296      0.0489
    135  CD        65.5930   62.2110   16.3480 C.3   296  ARG296      0.2205
    136  NE        66.4490   63.3270   16.7030 N.pl3 296  ARG296     -0.0865
    137  CZ        67.0150   64.1350   15.8160 C.cat 296  ARG296      0.5346
    138  NH1       66.7990   63.9370   14.5190 N.pl3 296  ARG296      0.1354
    139  NH2       67.7820   65.1410   16.2300 N.pl3 296  ARG296      0.1354
@<TRIPOS>BOND
     1    15    14    2
     2    14    13    1
     3    18    16    1
     4    13    16    1
     5    13    12    1
     6    16    17    1
     7    17    19    1
     8    88    87    1
     9    86    85    2
    10     3     2    1
    11     3     4    2
    12    87    89    1
    13    87    84    1
    14    85    84    1
    15     2     5    1
    16     2     1    1
    17     5     6    1
    18   102   100    1
    19     7     6    1
    20     7     8    1
    21    84    83    1
    22   117   118    1
    23     8     9    2
    24   120   119    2
    25    60    58    1
    26   119   118    1
    27    27    25    1
    28   100    99    1
    29   118   121    1
    30     9    11    1
    31     9    10    1
    32    58    59    1
    33    58    57    2
    34    56    57    1
    35    56    55    1
    36   101    99    1
    37    99    96    1
    38    25    24    1
    39    26    24    1
    40   124   126   ar
    41   124   122   ar
    42   121   122    1
    43   109   110    2
    44   109   108    1
    45   106   105    2
    46    24    21    1
    47   126   127   ar
    48   122   123   ar
    49    54    55    1
    50    54    51    1
    51    98    97    2
    52   108   107    1
    53   108   111    1
    54    96    97    1
    55    96    95    1
    56   105   107   am
    57   105   104    1
    58    97   103   am
    59   127   128    1
    60   127   125   ar
    61    95    92   am
    62    90    91    1
    63   123   125   ar
    64    51    50    1
    65    51    52    1
    66   111   112    1
    67   103   104    1
    68    21    20    1
    69    21    22    1
    70   113   112   ar
    71   113   115   ar
    72    23    22    2
    73    53    52    2
    74    50    42   am
    75    91    92    1
    76    91    94    1
    77    22    28   am
    78    92    93    2
    79   112   114   ar
    80    52    61   am
    81   115   116   ar
    82    28    29    1
    83    42    43    2
    84    42    41    1
    85   114   116   ar
    86    40    41    1
    87    41    44    1
    88    29    30    1
    89    70    69    1
    90    61    62    1
    91    46    48   ar
    92    46    45   ar
    93    68    69    2
    94    68    67    1
    95   138   137    1
    96    66    67    1
    97    66    65    1
    98    48    49   ar
    99    69    71    1
   100    30    32   am
   101    30    31    2
   102    44    45    1
   103    62    65    1
   104    62    63    1
   105    45    47   ar
   106    32    33    1
   107   137   139    1
   108   137   136    2
   109    49    47   ar
   110    63    64    2
   111   135   136    1
   112   135   134    1
   113    33    34    1
   114    36    34   am
   115    36    37    1
   116   134   133    1
   117    82    80    1
   118    34    35    2
   119    37    38    1
   120    78    79    1
   121    78    77    1
   122   133   130    1
   123    80    79    2
   124    80    81    1
   125    38    39    2
   126    77    76    1
   127   130   129    1
   128   130   131    1
   129   131   132    2
   130    76    73    1
   131    75    74    2
   132    72    73    1
   133    73    74    1
