@<TRIPOS>MOLECULE
tmp/5u6bD00.pdb
 164 154 0 0 0
SMALL
GASTEIGER

@<TRIPOS>ATOM
      1  N         20.3670  -29.3680  -22.7760 N.3    31  LEU31      -0.1231
      2  CA        20.2210  -28.0490  -22.1200 C.3    31  LEU31       0.1693
      3  C         19.2750  -27.0940  -22.8590 C.2    31  LEU31       0.2593
      4  O         18.6990  -26.1980  -22.2320 O.2    31  LEU31      -0.2718
      5  CB        21.5820  -27.3620  -21.9710 C.3    31  LEU31       0.0284
      6  CG        22.6320  -28.0760  -21.1500 C.3    31  LEU31       0.0019
      7  CD1       24.0020  -27.6940  -21.6220 C.3    31  LEU31       0.0001
      8  CD2       22.4670  -27.7820  -19.6740 C.3    31  LEU31       0.0001
      9  N         19.1800  -27.2590  -24.1780 N.am   32  GLY32      -0.1942
     10  CA        18.3130  -26.4750  -25.0420 C.3    32  GLY32       0.2014
     11  C         18.3450  -26.9420  -26.4790 C.2    32  GLY32       0.2639
     12  O         19.0080  -27.9260  -26.8020 O.2    32  GLY32      -0.2714
     13  N         17.6480  -26.2120  -27.3640 N.am   33  GLU33      -0.1963
     14  CA        17.6330  -26.5040  -28.8070 C.3    33  GLU33       0.1733
     15  C         18.4610  -25.4410  -29.5520 C.2    33  GLU33       0.2616
     16  O         18.3140  -24.2450  -29.2820 O.2    33  GLU33      -0.2715
     17  CB        16.1940  -26.5840  -29.3530 C.3    33  GLU33       0.0429
     18  CG        16.0930  -26.9350  -30.8330 C.3    33  GLU33       0.1163
     19  CD        16.3170  -28.3800  -31.2530 C.2    33  GLU33       0.3649
     20  OE1       16.4690  -29.2610  -30.3720 O.co2  33  GLU33      -0.2457
     21  OE2       16.3100  -28.6300  -32.4810 O.co2  33  GLU33      -0.2457
     22  N         19.3340  -25.9010  -30.4500 N.am   34  GLY34      -0.1955
     23  CA        20.2090  -25.0490  -31.2430 C.3    34  GLY34       0.1869
     24  C         19.8120  -24.9320  -32.6970 C.2    34  GLY34       0.2309
     25  O         18.7880  -25.4660  -33.1310 O.2    34  GLY34      -0.2863
     26  N         21.5940  -28.7450  -27.7850 N.3    39  VAL39      -0.1245
     27  CA        22.7640  -28.2560  -27.0900 C.3    39  VAL39       0.1561
     28  C         22.7530  -29.0950  -25.8210 C.2    39  VAL39       0.2260
     29  O         21.8510  -28.9510  -25.0010 O.2    39  VAL39      -0.2867
     30  CB        22.6470  -26.7390  -26.8070 C.3    39  VAL39       0.0252
     31  CG1       23.7880  -26.2580  -25.9210 C.3    39  VAL39       0.0019
     32  CG2       22.6040  -25.9460  -28.1070 C.3    39  VAL39       0.0019
     33  N         29.6470  -27.7910  -22.4700 N.3    52  ALA52      -0.1245
     34  CA        28.4090  -27.6090  -23.2210 C.3    52  ALA52       0.1562
     35  C         28.7580  -28.0980  -24.6260 C.2    52  ALA52       0.2260
     36  O         29.8210  -27.7630  -25.1620 O.2    52  ALA52      -0.2867
     37  CB        28.0070  -26.1500  -23.2380 C.3    52  ALA52       0.0290
     38  N         27.4180  -28.5560  -28.4980 N.3    54  LYS54      -0.1245
     39  CA        26.5090  -28.2510  -29.6000 C.3    54  LYS54       0.1561
     40  C         26.5040  -29.4780  -30.5120 C.2    54  LYS54       0.2260
     41  O         27.5670  -29.9180  -30.9480 O.2    54  LYS54      -0.2867
     42  CB        26.9650  -26.9830  -30.3470 C.3    54  LYS54       0.0271
     43  CG        26.4690  -25.6820  -29.7090 C.3    54  LYS54       0.0035
     44  CD        27.0580  -24.4390  -30.3750 C.3    54  LYS54       0.0206
     45  CE        26.0100  -23.4340  -30.8130 C.3    54  LYS54       0.1093
     46  NZ        26.3700  -22.0300  -30.4220 N.3    54  LYS54      -0.1314
     47  N         31.1460  -21.8470  -37.0720 N.3    72  GLU72      -0.1245
     48  CA        31.3750  -21.2120  -35.7750 C.3    72  GLU72       0.1567
     49  C         32.6780  -21.6960  -35.1440 C.2    72  GLU72       0.2260
     50  O         33.3990  -20.8930  -34.5550 O.2    72  GLU72      -0.2867
     51  CB        30.1910  -21.4940  -34.8320 C.3    72  GLU72       0.0388
     52  CG        30.3800  -20.9090  -33.4390 C.3    72  GLU72       0.1160
     53  CD        29.3030  -21.1650  -32.4120 C.2    72  GLU72       0.3649
     54  OE1       29.1340  -20.3090  -31.5120 O.co2  72  GLU72      -0.2457
     55  OE2       28.6530  -22.2330  -32.4840 O.co2  72  GLU72      -0.2457
     56  N         33.4030  -15.8650  -26.3190 N.3    85  MET85      -0.1245
     57  CA        33.3070  -17.3050  -26.0600 C.3    85  MET85       0.1570
     58  C         34.4830  -18.0740  -26.6930 C.2    85  MET85       0.2261
     59  O         34.7710  -17.8700  -27.8740 O.2    85  MET85      -0.2867
     60  CB        31.9540  -17.8550  -26.5430 C.3    85  MET85       0.0387
     61  CG        31.8150  -19.3760  -26.3880 C.3    85  MET85       0.0595
     62  SD        31.4750  -19.9630  -24.7150 S.3    85  MET85      -0.1393
     63  CE        29.7610  -20.0060  -24.7900 C.3    85  MET85       0.0692
     64  N         32.2020  -26.5800  -26.0230 N.3   103  LEU103     -0.1231
     65  CA        32.3400  -25.2380  -25.4490 C.3   103  LEU103      0.1678
     66  C         32.3900  -25.3300  -23.9260 C.2   103  LEU103      0.2434
     67  O         31.9260  -26.3370  -23.3870 O.2   103  LEU103     -0.2733
     68  CB        31.1180  -24.3460  -25.8270 C.3   103  LEU103      0.0284
     69  CG        30.6860  -24.2280  -27.2860 C.3   103  LEU103      0.0019
     70  CD1       29.3720  -23.4750  -27.3800 C.3   103  LEU103      0.0001
     71  CD2       31.7450  -23.5450  -28.1200 C.3   103  LEU103      0.0001
     72  N         32.8660  -24.2750  -23.2060 N.am  104  PRO104     -0.2718
     73  CA        32.8410  -24.3220  -21.7330 C.3   104  PRO104      0.1535
     74  C         31.4200  -24.2860  -21.1800 C.2   104  PRO104      0.2599
     75  O         30.5560  -23.6220  -21.7580 O.2   104  PRO104     -0.2715
     76  CB        33.6100  -23.0560  -21.3220 C.3   104  PRO104      0.0310
     77  CG        34.2940  -22.5770  -22.5600 C.3   104  PRO104      0.0237
     78  CD        33.4380  -22.9990  -23.6850 C.3   104  PRO104      0.0939
     79  N         31.1750  -24.9930  -20.0650 N.am  105  PHE105     -0.1960
     80  CA        29.8680  -24.9690  -19.4310 C.3   105  PHE105      0.1771
     81  C         29.7000  -23.6600  -18.6080 C.2   105  PHE105      0.2619
     82  O         30.3930  -23.4600  -17.6110 O.2   105  PHE105     -0.2715
     83  CB        29.6180  -26.2320  -18.5780 C.3   105  PHE105      0.0574
     84  CG        28.1790  -26.3460  -18.1350 C.ar  105  PHE105     -0.0200
     85  CD1       27.2320  -26.9560  -18.9510 C.ar  105  PHE105     -0.0042
     86  CD2       27.7580  -25.7930  -16.9270 C.ar  105  PHE105     -0.0042
     87  CE1       25.8930  -27.0170  -18.5610 C.ar  105  PHE105     -0.0003
     88  CE2       26.4190  -25.8530  -16.5410 C.ar  105  PHE105     -0.0003
     89  CZ        25.5010  -26.4870  -17.3450 C.ar  105  PHE105     -0.0000
     90  N         28.7960  -22.7710  -19.0570 N.am  106  MET106     -0.1963
     91  CA        28.4560  -21.4890  -18.4330 C.3   106  MET106      0.1736
     92  C         27.1840  -21.7260  -17.6230 C.2   106  MET106      0.2616
     93  O         26.0850  -21.6970  -18.1830 O.2   106  MET106     -0.2715
     94  CB        28.1850  -20.4310  -19.5180 C.3   106  MET106      0.0427
     95  CG        29.1630  -19.3040  -19.5380 C.3   106  MET106      0.0599
     96  SD        30.5810  -19.7090  -20.5400 S.3   106  MET106     -0.1393
     97  CE        31.4830  -18.2380  -20.3660 C.3   106  MET106      0.0692
     98  N         27.3320  -21.9790  -16.3120 N.am  107  LYS107     -0.1977
     99  CA        26.2170  -22.2970  -15.4130 C.3   107  LYS107      0.1596
    100  C         25.1760  -21.1790  -15.2760 C.2   107  LYS107      0.2287
    101  O         24.0200  -21.4990  -15.0110 O.2   107  LYS107     -0.2864
    102  CB        26.7090  -22.7700  -14.0250 C.3   107  LYS107      0.0298
    103  CG        27.4630  -21.7370  -13.1750 C.3   107  LYS107      0.0038
    104  CD        27.3670  -22.1130  -11.7050 C.3   107  LYS107      0.0206
    105  CE        28.1690  -21.1970  -10.8210 C.3   107  LYS107      0.1093
    106  NZ        27.4740  -20.8410   -9.5550 N.3   107  LYS107     -0.1314
    107  N         23.9090  -19.3540  -17.6530 N.3   109  GLY109     -0.1210
    108  CA        23.1580  -19.3010  -18.9060 C.3   109  GLY109      0.1956
    109  C         23.3300  -18.0410  -19.7310 C.2   109  GLY109      0.2611
    110  O         24.3140  -17.3200  -19.5570 O.2   109  GLY109     -0.2717
    111  N         22.3770  -17.7850  -20.6600 N.am  110  ASP110     -0.1973
    112  CA        22.3930  -16.6170  -21.5460 C.3   110  ASP110      0.1709
    113  C         21.9070  -15.3410  -20.8530 C.2   110  ASP110      0.2293
    114  O         21.1250  -15.4080  -19.9030 O.2   110  ASP110     -0.2864
    115  CB        21.6390  -16.8860  -22.8590 C.3   110  ASP110      0.1436
    116  CG        20.1330  -16.8660  -22.7450 C.2   110  ASP110      0.3671
    117  OD1       19.5380  -15.7720  -22.8970 O.co2 110  ASP110     -0.2456
    118  OD2       19.5420  -17.9450  -22.5720 O.co2 110  ASP110     -0.2456
    119  N         17.7950  -14.5600  -20.9600 N.3   113  SER113     -0.1217
    120  CA        17.0770  -15.3700  -19.9690 C.3   113  SER113      0.1889
    121  C         17.2330  -14.7870  -18.5660 C.2   113  SER113      0.2288
    122  O         16.2340  -14.6350  -17.8680 O.2   113  SER113     -0.2866
    123  CB        17.5540  -16.8160  -20.0050 C.3   113  SER113      0.2089
    124  OG        17.2150  -17.4100  -21.2460 O.3   113  SER113     -0.2183
    125  N         20.3760  -12.5960  -26.3240 N.3   159  ARG159     -0.1231
    126  CA        20.1810  -14.0530  -26.3750 C.3   159  ARG159      0.1694
    127  C         21.4540  -14.8230  -26.7830 C.2   159  ARG159      0.2592
    128  O         21.5800  -16.0140  -26.4800 O.2   159  ARG159     -0.2718
    129  CB        19.0090  -14.4120  -27.3170 C.3   159  ARG159      0.0321
    130  CG        19.2760  -14.1120  -28.7890 C.3   159  ARG159      0.0489
    131  CD        18.1700  -14.5310  -29.7240 C.3   159  ARG159      0.2205
    132  NE        18.5080  -14.1520  -31.0920 N.pl3 159  ARG159     -0.0865
    133  CZ        18.2150  -12.9800  -31.6510 C.cat 159  ARG159      0.5346
    134  NH1       17.5320  -12.0600  -30.9720 N.pl3 159  ARG159      0.1354
    135  NH2       18.5940  -12.7200  -32.8910 N.pl3 159  ARG159      0.1354
    136  N         22.3690  -14.1570  -27.5020 N.am  160  ASN160     -0.1974
    137  CA        23.6160  -14.7460  -27.9950 C.3   160  ASN160      0.1688
    138  C         24.8480  -14.3000  -27.1770 C.2   160  ASN160      0.2292
    139  O         25.9760  -14.4010  -27.6540 O.2   160  ASN160     -0.2864
    140  CB        23.7810  -14.4270  -29.4810 C.3   160  ASN160      0.1181
    141  CG        22.7990  -15.1280  -30.3730 C.2   160  ASN160      0.2629
    142  OD1       22.3770  -16.2700  -30.1300 O.2   160  ASN160     -0.2716
    143  ND2       22.4560  -14.4810  -31.4600 N.am  160  ASN160     -0.0877
    144  N         26.6160  -14.7890  -23.2610 N.3   162  MET162     -0.1245
    145  CA        26.6490  -15.7070  -22.1140 C.3   162  MET162      0.1570
    146  C         27.1620  -15.0740  -20.8080 C.2   162  MET162      0.2261
    147  O         27.8520  -14.0650  -20.8520 O.2   162  MET162     -0.2867
    148  CB        27.4670  -16.9630  -22.4700 C.3   162  MET162      0.0387
    149  CG        26.8060  -17.8450  -23.5030 C.3   162  MET162      0.0595
    150  SD        25.1510  -18.4190  -23.0110 S.3   162  MET162     -0.1393
    151  CE        25.5640  -19.6840  -21.9040 C.3   162  MET162      0.0692
    152  N         28.8730  -14.5580  -27.8330 N.3   172  ALA172     -0.1231
    153  CA        28.8900  -15.9290  -28.3410 C.3   172  ALA172      0.1694
    154  C         28.0340  -16.0480  -29.6310 C.2   172  ALA172      0.2592
    155  O         27.6050  -15.0220  -30.1600 O.2   172  ALA172     -0.2718
    156  CB        28.3840  -16.8770  -27.2620 C.3   172  ALA172      0.0304
    157  N         27.7810  -17.2950  -30.1200 N.am  173  ASP173     -0.1974
    158  CA        27.0220  -17.6500  -31.3350 C.3   173  ASP173      0.1709
    159  C         27.6450  -17.0660  -32.6300 C.2   173  ASP173      0.2293
    160  O         27.2230  -16.0110  -33.1170 O.2   173  ASP173     -0.2864
    161  CB        25.5330  -17.2970  -31.1990 C.3   173  ASP173      0.1436
    162  CG        24.5920  -18.3200  -31.7940 C.2   173  ASP173      0.3671
    163  OD1       24.5380  -18.4250  -33.0520 O.co2 173  ASP173     -0.2456
    164  OD2       23.8780  -18.9920  -31.0110 O.co2 173  ASP173     -0.2456
@<TRIPOS>BOND
     1    47    48    1
     2    48    49    1
     3    48    51    1
     4    49    50    2
     5    51    52    1
     6    52    53    1
     7    25    24    2
     8   160   159    2
     9   163   162   ar
    10   135   133    1
    11    24    23    1
    12   159   158    1
    13    55    53   ar
    14    21    19   ar
    15    53    54   ar
    16   162   161    1
    17   162   164   ar
    18   133   132    2
    19   133   134    1
    20   143   141   am
    21   158   161    1
    22   158   157    1
    23    19    18    1
    24    19    20   ar
    25    23    22    1
    26   132   131    1
    27    41    40    2
    28    18    17    1
    29    45    46    1
    30    45    44    1
    31    40    39    1
    32    22    15   am
    33    44    43    1
    34   141   142    2
    35   141   140    1
    36    42    43    1
    37    42    39    1
    38   155   154    2
    39   157   154   am
    40   131   130    1
    41   154   153    1
    42    39    38    1
    43    15    16    2
    44    15    14    1
    45   140   137    1
    46    17    14    1
    47    14    13    1
    48   130   129    1
    49   153   152    1
    50   153   156    1
    51    71    69    1
    52    32    30    1
    53   137   136    1
    54   137   138    1
    55    59    58    2
    56    26    27    1
    57   139   138    2
    58   136   127   am
    59    70    69    1
    60    13    11   am
    61   129   126    1
    62    69    68    1
    63    27    30    1
    64    27    28    1
    65    30    31    1
    66    12    11    2
    67   127   128    2
    68   127   126    1
    69    58    57    1
    70    60    61    1
    71    60    57    1
    72    11    10    1
    73    61    62    1
    74   126   125    1
    75    56    57    1
    76    64    65    1
    77    68    65    1
    78    28    29    2
    79    65    66    1
    80    36    35    2
    81    10     9    1
    82    63    62    1
    83    35    34    1
    84     9     3   am
    85    66    67    2
    86    66    72   am
    87    78    72    1
    88    78    77    1
    89   149   150    1
    90   149   148    1
    91   144   145    1
    92    37    34    1
    93    34    33    1
    94    72    73    1
    95   150   151    1
    96   117   116   ar
    97     3     4    2
    98     3     2    1
    99   115   116    1
   100   115   112    1
   101     1     2    1
   102   116   118   ar
   103    77    76    1
   104   148   145    1
   105     2     5    1
   106   145   146    1
   107     5     6    1
   108    75    74    2
   109    73    76    1
   110    73    74    1
   111     7     6    1
   112   112   113    1
   113   112   111    1
   114   124   123    1
   115    74    79   am
   116     6     8    1
   117   119   120    1
   118   113   114    2
   119   147   146    2
   120   111   109   am
   121    96    97    1
   122    96    95    1
   123    79    80    1
   124   123   120    1
   125   120   121    1
   126   109   110    2
   127   109   108    1
   128    95    94    1
   129    94    91    1
   130    80    81    1
   131    80    83    1
   132    90    81   am
   133    90    91    1
   134    85    87   ar
   135    85    84   ar
   136   108   107    1
   137    81    82    2
   138    83    84    1
   139   121   122    2
   140    87    89   ar
   141    91    92    1
   142    93    92    2
   143    84    86   ar
   144    92    98   am
   145    89    88   ar
   146    86    88   ar
   147    98    99    1
   148    99   100    1
   149    99   102    1
   150   100   101    2
   151   102   103    1
   152   103   104    1
   153   104   105    1
   154   105   106    1
