@<TRIPOS>MOLECULE
tmp/5u6cA00.pdb
 143 134 0 0 0
SMALL
GASTEIGER

@<TRIPOS>ATOM
      1  N         -9.6850  -19.6590  -13.1560 N.3    22  LEU22      -0.1231
      2  CA        -8.3520  -19.0440  -13.2420 C.3    22  LEU22       0.1693
      3  C         -8.5090  -17.6780  -13.8900 C.2    22  LEU22       0.2592
      4  O         -7.7000  -16.7860  -13.6600 O.2    22  LEU22      -0.2718
      5  CB        -7.4070  -19.8950  -14.1130 C.3    22  LEU22       0.0284
      6  CG        -7.0710  -21.2950  -13.6220 C.3    22  LEU22       0.0019
      7  CD1       -6.5160  -22.1380  -14.7530 C.3    22  LEU22       0.0001
      8  CD2       -6.1100  -21.2480  -12.4420 C.3    22  LEU22       0.0001
      9  N         -9.5420  -17.5420  -14.7170 N.am   23  GLY23      -0.1957
     10  CA        -9.8550  -16.3130  -15.4290 C.3    23  GLY23       0.1869
     11  C        -11.2670  -16.3200  -15.9630 C.2    23  GLY23       0.2309
     12  O        -11.7580  -17.3530  -16.4180 O.2    23  GLY23      -0.2863
     13  N        -12.0940  -19.6160  -17.9230 N.3    30  VAL30      -0.1245
     14  CA       -10.9880  -20.5580  -17.8830 C.3    30  VAL30       0.1561
     15  C        -10.9700  -21.1590  -16.4720 C.2    30  VAL30       0.2260
     16  O        -11.0330  -20.4320  -15.4850 O.2    30  VAL30      -0.2867
     17  CB        -9.6420  -19.9100  -18.3100 C.3    30  VAL30       0.0252
     18  CG1       -8.4530  -20.8380  -18.0650 C.3    30  VAL30       0.0019
     19  CG2       -9.6940  -19.4840  -19.7740 C.3    30  VAL30       0.0019
     20  N         -5.8200  -26.8960  -18.0230 N.3    46  ALA46      -0.1245
     21  CA        -6.5570  -25.6360  -18.0390 C.3    46  ALA46       0.1562
     22  C         -7.6890  -25.8910  -19.0580 C.2    46  ALA46       0.2260
     23  O         -7.4430  -26.5160  -20.0910 O.2    46  ALA46      -0.2867
     24  CB        -5.6760  -24.4900  -18.4790 C.3    46  ALA46       0.0290
     25  N        -10.7110  -24.0660  -21.2710 N.3    48  LYS48      -0.1245
     26  CA       -11.2730  -22.8320  -21.7900 C.3    48  LYS48       0.1561
     27  C        -12.6990  -23.0480  -22.3340 C.2    48  LYS48       0.2260
     28  O        -12.8780  -23.6720  -23.3800 O.2    48  LYS48      -0.2867
     29  CB       -10.3350  -22.2070  -22.8500 C.3    48  LYS48       0.0271
     30  CG       -10.7110  -20.7800  -23.2170 C.3    48  LYS48       0.0035
     31  CD        -9.7650  -20.1710  -24.2370 C.3    48  LYS48       0.0206
     32  CE       -10.2520  -18.8020  -24.6570 C.3    48  LYS48       0.1093
     33  NZ        -9.2850  -18.1180  -25.5540 N.3    48  LYS48      -0.1314
     34  N          2.0580  -24.4450  -27.6360 N.3    79  MET79      -0.1245
     35  CA         1.2070  -25.2210  -26.7430 C.3    79  MET79       0.1570
     36  C          0.3640  -26.1920  -27.5570 C.2    79  MET79       0.2261
     37  O         -0.2650  -25.7960  -28.5360 O.2    79  MET79      -0.2867
     38  CB         0.3110  -24.3260  -25.8830 C.3    79  MET79       0.0387
     39  CG        -0.4670  -25.1060  -24.8120 C.3    79  MET79       0.0595
     40  SD        -1.5670  -24.0730  -23.8210 S.3    79  MET79      -0.1393
     41  CE        -0.3890  -23.2910  -22.7440 C.3    79  MET79       0.0692
     42  N         -6.3010  -27.9250  -22.2970 N.3    96  LEU96      -0.1231
     43  CA        -4.9030  -27.5660  -22.5040 C.3    96  LEU96       0.1678
     44  C         -4.0000  -28.0310  -21.3630 C.2    96  LEU96       0.2434
     45  O         -4.4610  -28.0780  -20.2230 O.2    96  LEU96      -0.2733
     46  CB        -4.7950  -26.0180  -22.6280 C.3    96  LEU96       0.0284
     47  CG        -5.6760  -25.2980  -23.6720 C.3    96  LEU96       0.0019
     48  CD1       -5.7010  -23.7900  -23.4160 C.3    96  LEU96       0.0001
     49  CD2       -5.2140  -25.6010  -25.0940 C.3    96  LEU96       0.0001
     50  N         -2.6880  -28.2870  -21.6020 N.am   97  PRO97      -0.2718
     51  CA        -1.8020  -28.6250  -20.4650 C.3    97  PRO97       0.1535
     52  C         -1.7520  -27.4620  -19.4640 C.2    97  PRO97       0.2599
     53  O         -1.7450  -26.3020  -19.8820 O.2    97  PRO97      -0.2715
     54  CB        -0.4310  -28.8530  -21.1260 C.3    97  PRO97       0.0310
     55  CG        -0.5170  -28.1290  -22.4260 C.3    97  PRO97       0.0237
     56  CD        -1.9420  -28.2570  -22.8770 C.3    97  PRO97       0.0939
     57  N         -1.7890  -27.7640  -18.1590 N.am   98  PHE98      -0.1960
     58  CA        -1.7580  -26.7310  -17.1180 C.3    98  PHE98       0.1771
     59  C         -0.3330  -26.2100  -16.9390 C.2    98  PHE98       0.2619
     60  O          0.5920  -27.0110  -16.7740 O.2    98  PHE98      -0.2715
     61  CB        -2.3010  -27.2760  -15.7840 C.3    98  PHE98       0.0574
     62  CG        -2.4330  -26.2750  -14.6610 C.ar   98  PHE98      -0.0200
     63  CD1       -3.5960  -25.5290  -14.5060 C.ar   98  PHE98      -0.0042
     64  CD2       -1.4130  -26.1150  -13.7270 C.ar   98  PHE98      -0.0042
     65  CE1       -3.7350  -24.6440  -13.4350 C.ar   98  PHE98      -0.0003
     66  CE2       -1.5460  -25.2160  -12.6680 C.ar   98  PHE98      -0.0003
     67  CZ        -2.7090  -24.4940  -12.5230 C.ar   98  PHE98      -0.0000
     68  N         -0.1730  -24.8640  -16.9520 N.am   99  MET99      -0.1963
     69  CA         1.1260  -24.1890  -16.8070 C.3    99  MET99       0.1736
     70  C          1.0720  -23.3520  -15.5360 C.2    99  MET99       0.2616
     71  O          0.5820  -22.2140  -15.5780 O.2    99  MET99      -0.2715
     72  CB         1.4090  -23.2460  -18.0030 C.3    99  MET99       0.0427
     73  CG         1.1950  -23.8530  -19.3540 C.3    99  MET99       0.0599
     74  SD         2.4280  -25.1030  -19.6770 S.3    99  MET99      -0.1393
     75  CE         2.6390  -24.8960  -21.3890 C.3    99  MET99       0.0692
     76  N          1.5870  -23.9210  -14.4060 N.am  100  LYS100     -0.1977
     77  CA         1.6060  -23.2950  -13.0810 C.3   100  LYS100      0.1596
     78  C          2.2280  -21.8910  -13.0680 C.2   100  LYS100      0.2287
     79  O          1.7640  -21.0230  -12.3360 O.2   100  LYS100     -0.2864
     80  CB         2.2920  -24.2160  -12.0440 C.3   100  LYS100      0.0298
     81  CG         3.7490  -24.6020  -12.3690 C.3   100  LYS100      0.0038
     82  CD         4.4180  -25.3020  -11.1950 C.3   100  LYS100      0.0206
     83  CE         5.8620  -25.6520  -11.4750 C.3   100  LYS100      0.1093
     84  NZ         6.4990  -26.3760  -10.3400 N.3   100  LYS100     -0.1314
     85  N          1.9920  -19.5670  -15.2770 N.3   102  GLY102     -0.1210
     86  CA         1.1350  -18.5660  -15.8980 C.3   102  GLY102      0.1956
     87  C          1.6640  -17.9680  -17.1890 C.2   102  GLY102      0.2611
     88  O          2.4050  -18.6180  -17.9330 O.2   102  GLY102     -0.2717
     89  N          1.2270  -16.7400  -17.4940 N.am  103  ASP103     -0.1973
     90  CA         1.5910  -16.0330  -18.7270 C.3   103  ASP103      0.1709
     91  C          2.8270  -15.1600  -18.5550 C.2   103  ASP103      0.2293
     92  O          3.0850  -14.6510  -17.4580 O.2   103  ASP103     -0.2864
     93  CB         0.4040  -15.1880  -19.2350 C.3   103  ASP103      0.1436
     94  CG         0.1560  -13.9430  -18.4120 C.2   103  ASP103      0.3671
     95  OD1       -0.6070  -14.0240  -17.4260 O.co2 103  ASP103     -0.2456
     96  OD2        0.7260  -12.8900  -18.7500 O.co2 103  ASP103     -0.2456
     97  N          2.3720  -11.1830  -17.1400 N.3   106  THR106     -0.1218
     98  CA         2.3050  -11.1620  -15.6690 C.3   106  THR106      0.1862
     99  C          3.6860  -11.4960  -15.0480 C.2   106  THR106      0.2287
    100  O          4.0850  -10.8570  -14.0820 O.2   106  THR106     -0.2866
    101  CB         1.2150  -12.1150  -15.2260 C.3   106  THR106      0.1770
    102  OG1        0.0110  -11.7680  -15.9210 O.3   106  THR106     -0.2211
    103  CG2        0.9920  -12.0960  -13.7240 C.3   106  THR106      0.0375
    104  N          0.7810  -11.5040  -23.1480 N.3   152  ARG152     -0.1231
    105  CA        -0.2940  -12.0630  -22.3100 C.3   152  ARG152      0.1694
    106  C         -0.7370  -13.4430  -22.8250 C.2   152  ARG152      0.2592
    107  O         -1.3600  -14.1920  -22.0740 O.2   152  ARG152     -0.2718
    108  CB        -1.4940  -11.0870  -22.2370 C.3   152  ARG152      0.0321
    109  CG        -2.2210  -10.9150  -23.5760 C.3   152  ARG152      0.0489
    110  CD        -3.4840  -10.0670  -23.5270 C.3   152  ARG152      0.2205
    111  NE        -4.0150   -9.8790  -24.8820 N.pl3 152  ARG152     -0.0865
    112  CZ        -3.6280   -8.9220  -25.7290 C.cat 152  ARG152      0.5346
    113  NH1       -2.7240   -8.0230  -25.3600 N.pl3 152  ARG152      0.1354
    114  NH2       -4.1480   -8.8560  -26.9460 N.pl3 152  ARG152      0.1354
    115  N         -0.4100  -13.7710  -24.1010 N.am  153  ASN153     -0.1974
    116  CA        -0.7760  -15.0390  -24.7560 C.3   153  ASN153      0.1688
    117  C          0.4030  -15.9850  -24.9450 C.2   153  ASN153      0.2292
    118  O          0.2660  -17.0220  -25.5890 O.2   153  ASN153     -0.2864
    119  CB        -1.5350  -14.7770  -26.0710 C.3   153  ASN153      0.1181
    120  CG        -2.9150  -14.2230  -25.8150 C.2   153  ASN153      0.2629
    121  OD1       -3.5010  -14.4210  -24.7490 O.2   153  ASN153     -0.2716
    122  ND2       -3.4680  -13.5060  -26.7740 N.am  153  ASN153     -0.0877
    123  N          2.9170  -18.4300  -22.8000 N.3   155  MET155     -0.1245
    124  CA         2.9060  -19.1320  -21.5120 C.3   155  MET155      0.1570
    125  C          4.2650  -19.7080  -21.1430 C.2   155  MET155      0.2261
    126  O          5.0000  -20.1290  -22.0190 O.2   155  MET155     -0.2867
    127  CB         1.8370  -20.2520  -21.5180 C.3   155  MET155      0.0387
    128  CG         0.4120  -19.7570  -21.7640 C.3   155  MET155      0.0595
    129  SD        -0.2720  -18.7680  -20.4090 S.3   155  MET155     -0.1393
    130  CE        -0.3310  -19.9620  -19.1650 C.3   155  MET155      0.0692
    131  N          0.6600  -19.5800  -27.2860 N.3   165  ALA165     -0.1231
    132  CA        -0.5980  -20.1760  -26.8840 C.3   165  ALA165      0.1694
    133  C         -1.7720  -19.3110  -27.3510 C.2   165  ALA165      0.2592
    134  O         -1.5560  -18.3160  -28.0550 O.2   165  ALA165     -0.2718
    135  CB        -0.6190  -20.3540  -25.3660 C.3   165  ALA165      0.0304
    136  N         -3.0140  -19.7300  -27.0100 N.am  166  ASP166     -0.1974
    137  CA        -4.2890  -19.0680  -27.3170 C.3   166  ASP166      0.1709
    138  C         -4.6690  -19.2040  -28.7810 C.2   166  ASP166      0.2293
    139  O         -5.7550  -19.7120  -29.0750 O.2   166  ASP166     -0.2864
    140  CB        -4.3070  -17.5920  -26.8370 C.3   166  ASP166      0.1436
    141  CG        -5.5840  -16.8490  -27.1600 C.2   166  ASP166      0.3671
    142  OD1       -5.6430  -16.2140  -28.2350 O.co2 166  ASP166     -0.2456
    143  OD2       -6.5310  -16.9260  -26.3550 O.co2 166  ASP166     -0.2456
@<TRIPOS>BOND
     1   139   138    2
     2   138   137    1
     3    37    36    2
     4   142   141   ar
     5   134   133    2
     6    34    35    1
     7    36    35    1
     8   133   136   am
     9   133   132    1
    10   137   136    1
    11   137   140    1
    12   131   132    1
    13   141   140    1
    14   141   143   ar
    15   114   112    1
    16   132   135    1
    17   122   120   am
    18    35    38    1
    19   119   120    1
    20   119   116    1
    21    38    39    1
    22   120   121    2
    23   112   113    1
    24   112   111    2
    25   118   117    2
    26    33    32    1
    27    49    47    1
    28   117   116    1
    29   111   110    1
    30    39    40    1
    31   116   115    1
    32    32    31    1
    33    31    30    1
    34   115   106   am
    35    40    41    1
    36    47    48    1
    37    47    46    1
    38   109   110    1
    39   109   108    1
    40    28    27    2
    41    30    29    1
    42   104   105    1
    43    56    55    1
    44    56    50    1
    45    29    26    1
    46   106   105    1
    47   106   107    2
    48   123   124    1
    49    46    43    1
    50    43    42    1
    51    43    44    1
    52    55    54    1
    53    27    26    1
    54   105   108    1
    55   126   125    2
    56    26    25    1
    57   128   127    1
    58   128   129    1
    59    50    44   am
    60    50    51    1
    61   127   124    1
    62   124   125    1
    63    75    74    1
    64    44    45    2
    65    54    51    1
    66    51    52    1
    67   129   130    1
    68    23    22    2
    69    53    52    2
    70    19    17    1
    71    74    73    1
    72    52    57   am
    73    73    72    1
    74    93    90    1
    75    93    94    1
    76    22    21    1
    77    96    94   ar
    78    90    91    1
    79    90    89    1
    80    91    92    2
    81    24    21    1
    82    94    95   ar
    83    17    18    1
    84    17    14    1
    85    57    58    1
    86    21    20    1
    87    72    69    1
    88    88    87    2
    89    13    14    1
    90    14    15    1
    91    89    87   am
    92    87    86    1
    93    97    98    1
    94    58    59    1
    95    58    61    1
    96    68    59   am
    97    68    69    1
    98    59    60    2
    99    69    70    1
   100    15    16    2
   101    12    11    2
   102    11    10    1
   103   102   101    1
   104    86    85    1
   105    61    62    1
   106    98   101    1
   107    98    99    1
   108    71    70    2
   109    70    76   am
   110    10     9    1
   111   101   103    1
   112    99   100    2
   113     7     6    1
   114     9     3   am
   115    62    63   ar
   116    62    64   ar
   117    63    65   ar
   118    76    77    1
   119     5     6    1
   120     5     2    1
   121     3     4    2
   122     3     2    1
   123    64    66   ar
   124     6     8    1
   125    65    67   ar
   126     2     1    1
   127    77    78    1
   128    77    80    1
   129    78    79    2
   130    66    67   ar
   131    81    80    1
   132    81    82    1
   133    83    82    1
   134    83    84    1
