@<TRIPOS>MOLECULE
tmp/5u6dA00.pdb
 147 138 0 0 0
SMALL
GASTEIGER

@<TRIPOS>ATOM
      1  N        -12.1120  -16.9350   33.7910 N.3    13  GLN13      -0.1231
      2  CA       -12.8580  -17.7760   32.8600 C.3    13  GLN13       0.1683
      3  C        -11.8670  -18.6200   32.0700 C.2    13  GLN13       0.2434
      4  O        -10.6660  -18.3310   32.0580 O.2    13  GLN13      -0.2733
      5  CB       -13.6740  -16.9270   31.8820 C.3    13  GLN13       0.0380
      6  CG       -14.6000  -15.9100   32.5290 C.3    13  GLN13       0.0905
      7  CD       -15.6080  -16.5610   33.4370 C.2    13  GLN13       0.2608
      8  OE1      -16.3540  -17.4490   33.0110 O.2    13  GLN13      -0.2717
      9  NE2      -15.6330  -16.1420   34.7020 N.am   13  GLN13      -0.0878
     10  N        -12.3620  -19.6630   31.3930 N.am   14  PRO14      -0.2729
     11  CA       -11.4250  -20.4990   30.6430 C.3    14  PRO14       0.1401
     12  C        -10.6780  -19.7420   29.5560 C.2    14  PRO14       0.2269
     13  O        -11.2630  -18.8920   28.8840 O.2    14  PRO14      -0.2865
     14  CB       -12.3270  -21.5510   30.0200 C.3    14  PRO14       0.0296
     15  CG       -13.4430  -21.6770   31.0010 C.3    14  PRO14       0.0237
     16  CD       -13.7030  -20.2730   31.4510 C.3    14  PRO14       0.0939
     17  N         -9.4560  -20.5490   26.1420 N.3    16  PHE16      -0.1241
     18  CA        -9.7480  -21.5980   25.1590 C.3    16  PHE16       0.1605
     19  C         -8.6820  -21.7160   24.0850 C.2    16  PHE16       0.2264
     20  O         -8.6060  -22.7390   23.3940 O.2    16  PHE16      -0.2867
     21  CB       -11.1010  -21.3470   24.4960 C.3    16  PHE16       0.0534
     22  CG       -12.2690  -21.5300   25.4130 C.ar   16  PHE16      -0.0203
     23  CD1      -12.4860  -22.7450   26.0600 C.ar   16  PHE16      -0.0042
     24  CD2      -13.1660  -20.4940   25.6340 C.ar   16  PHE16      -0.0042
     25  CE1      -13.5790  -22.9230   26.9020 C.ar   16  PHE16      -0.0003
     26  CE2      -14.2590  -20.6680   26.4660 C.ar   16  PHE16      -0.0003
     27  CZ       -14.4670  -21.8840   27.0950 C.ar   16  PHE16      -0.0000
     28  N        -17.7530  -14.4810   23.8190 N.3    65  ASN65      -0.1240
     29  CA       -16.8140  -15.4640   24.3440 C.3    65  ASN65       0.1653
     30  C        -15.8990  -15.8560   23.1840 C.2    65  ASN65       0.2266
     31  O        -16.3210  -16.5730   22.2850 O.2    65  ASN65      -0.2867
     32  CB       -17.5660  -16.6790   24.9170 C.3    65  ASN65       0.1155
     33  CG       -16.7490  -17.4550   25.9300 C.2    65  ASN65       0.2627
     34  OD1      -15.6420  -17.0550   26.2800 O.2    65  ASN65      -0.2716
     35  ND2      -17.2910  -18.5620   26.4170 N.am   65  ASN65      -0.0877
     36  N        -13.2560  -17.9340   21.2930 N.3    67  TYR67      -0.1241
     37  CA       -12.8930  -19.3500   21.3420 C.3    67  TYR67       0.1605
     38  C        -11.5860  -19.7120   20.6300 C.2    67  TYR67       0.2264
     39  O        -11.0380  -20.8080   20.8500 O.2    67  TYR67      -0.2867
     40  CB       -13.9950  -20.1700   20.6810 C.3    67  TYR67       0.0534
     41  CG       -15.3490  -20.1900   21.3700 C.ar   67  TYR67      -0.0201
     42  CD1      -15.4780  -20.0660   22.7520 C.ar   67  TYR67      -0.0009
     43  CD2      -16.5050  -20.4320   20.6260 C.ar   67  TYR67      -0.0009
     44  CE1      -16.7240  -20.1290   23.3580 C.ar   67  TYR67       0.0417
     45  CE2      -17.7440  -20.4940   21.2230 C.ar   67  TYR67       0.0417
     46  CZ       -17.8440  -20.3530   22.5910 C.ar   67  TYR67       0.1957
     47  OH       -19.0770  -20.4210   23.1900 O.3    67  TYR67      -0.2866
     48  N        -15.8620  -21.8320   16.0650 N.3   113  ASN113     -0.1240
     49  CA       -15.0980  -22.6900   16.9770 C.3   113  ASN113      0.1653
     50  C        -13.5930  -22.7410   16.6800 C.2   113  ASN113      0.2266
     51  O        -12.8080  -23.0290   17.5690 O.2   113  ASN113     -0.2867
     52  CB       -15.6900  -24.0990   16.9470 C.3   113  ASN113      0.1155
     53  CG       -17.0900  -24.1480   17.5410 C.2   113  ASN113      0.2627
     54  OD1      -17.3650  -23.4780   18.5280 O.2   113  ASN113     -0.2716
     55  ND2      -17.9790  -24.9450   16.9400 N.am  113  ASN113     -0.0877
     56  N        -20.5390  -23.4930   14.4750 N.3   130  LYS130     -0.1245
     57  CA       -21.6750  -24.1070   15.1270 C.3   130  LYS130      0.1561
     58  C        -22.8200  -24.3840   14.1560 C.2   130  LYS130      0.2260
     59  O        -23.6190  -25.2770   14.4050 O.2   130  LYS130     -0.2867
     60  CB       -22.1470  -23.1990   16.2740 C.3   130  LYS130      0.0271
     61  CG       -23.4560  -23.6050   16.9390 C.3   130  LYS130      0.0035
     62  CD       -23.5840  -22.9600   18.3050 C.3   130  LYS130      0.0206
     63  CE       -24.8900  -23.3310   18.9800 C.3   130  LYS130      0.1093
     64  NZ       -24.8160  -22.9390   20.4090 N.3   130  LYS130     -0.1314
     65  N        -22.1830  -29.2740   14.9050 N.3   157  GLU157     -0.1245
     66  CA       -21.1320  -28.2400   14.9640 C.3   157  GLU157      0.1567
     67  C        -19.8120  -28.7530   14.4430 C.2   157  GLU157      0.2260
     68  O        -19.3970  -29.8660   14.7750 O.2   157  GLU157     -0.2867
     69  CB       -20.8710  -27.7280   16.3830 C.3   157  GLU157      0.0388
     70  CG       -22.0750  -27.1610   17.1120 C.3   157  GLU157      0.1160
     71  CD       -21.6880  -26.2470   18.2660 C.2   157  GLU157      0.3649
     72  OE1      -20.6550  -25.5170   18.1940 O.co2 157  GLU157     -0.2457
     73  OE2      -22.4380  -26.2460   19.2440 O.co2 157  GLU157     -0.2457
     74  N        -15.9520  -28.5040   14.8080 N.3   159  LEU159     -0.1245
     75  CA       -15.1010  -28.1720   15.9410 C.3   159  LEU159      0.1561
     76  C        -13.6700  -27.8470   15.5720 C.2   159  LEU159      0.2260
     77  O        -13.0100  -27.1060   16.2970 O.2   159  LEU159     -0.2867
     78  CB       -15.0970  -29.3240   16.9420 C.3   159  LEU159      0.0270
     79  CG       -16.4390  -29.6630   17.5910 C.3   159  LEU159      0.0019
     80  CD1      -16.2640  -30.8200   18.5670 C.3   159  LEU159      0.0001
     81  CD2      -17.0640  -28.4740   18.3060 C.3   159  LEU159      0.0001
     82  N        -18.9450  -32.5270   15.9180 N.3   175  MET175     -0.1245
     83  CA       -19.8550  -33.1590   16.8590 C.3   175  MET175      0.1570
     84  C        -20.6410  -34.3070   16.2400 C.2   175  MET175      0.2261
     85  O        -21.2290  -35.1060   16.9680 O.2   175  MET175     -0.2867
     86  CB       -20.8050  -32.1150   17.4690 C.3   175  MET175      0.0387
     87  CG       -20.1250  -31.2370   18.5090 C.3   175  MET175      0.0595
     88  SD       -21.0730  -29.8630   19.2050 S.3   175  MET175     -0.1393
     89  CE       -22.6380  -30.6080   19.5810 C.3   175  MET175      0.0692
     90  N        -12.7990  -33.3350   18.1900 N.3   229  ASP229     -0.1239
     91  CA       -12.5770  -31.9240   18.5730 C.3   229  ASP229      0.1674
     92  C        -11.2360  -31.3100   18.1550 C.2   229  ASP229      0.2266
     93  O        -10.9900  -30.1310   18.4070 O.2   229  ASP229     -0.2867
     94  CB       -12.8640  -31.6990   20.0730 C.3   229  ASP229      0.1410
     95  CG       -12.0270  -32.5720   21.0030 C.2   229  ASP229      0.3668
     96  OD1      -11.3170  -33.4780   20.5170 O.co2 229  ASP229     -0.2456
     97  OD2      -12.1110  -32.3610   22.2510 O.co2 229  ASP229     -0.2456
     98  N        -13.7290  -30.9030   24.1620 N.3   284  TYR284     -0.1227
     99  CA       -13.1650  -29.6010   23.7550 C.3   284  TYR284      0.1736
    100  C        -11.7660  -29.3570   24.3270 C.2   284  TYR284      0.2595
    101  O        -11.5210  -28.4150   25.1040 O.2   284  TYR284     -0.2718
    102  CB       -14.1350  -28.4380   24.0390 C.3   284  TYR284      0.0548
    103  CG       -15.5830  -28.7690   23.7330 C.ar  284  TYR284     -0.0200
    104  CD1      -15.9550  -29.2600   22.4810 C.ar  284  TYR284     -0.0009
    105  CD2      -16.5830  -28.5990   24.6960 C.ar  284  TYR284     -0.0009
    106  CE1      -17.2740  -29.5810   22.1990 C.ar  284  TYR284      0.0417
    107  CE2      -17.9140  -28.9110   24.4150 C.ar  284  TYR284      0.0417
    108  CZ       -18.2520  -29.4060   23.1660 C.ar  284  TYR284      0.1957
    109  OH       -19.5680  -29.7230   22.8590 O.3   284  TYR284     -0.2866
    110  N        -10.8460  -30.2160   23.9020 N.am  285  MET285     -0.1965
    111  CA        -9.4410  -30.1470   24.3120 C.3   285  MET285      0.1736
    112  C         -8.6000  -30.2980   23.0550 C.2   285  MET285      0.2616
    113  O         -8.7790  -31.2560   22.3020 O.2   285  MET285     -0.2715
    114  CB        -9.1220  -31.2570   25.3090 C.3   285  MET285      0.0427
    115  CG       -10.0020  -31.2520   26.5540 C.3   285  MET285      0.0599
    116  SD        -9.5780  -29.9390   27.7160 S.3   285  MET285     -0.1393
    117  CE        -8.3040  -30.7770   28.6540 C.3   285  MET285      0.0692
    118  N         -7.6970  -29.3520   22.8280 N.am  286  ARG286     -0.1977
    119  CA        -6.9130  -29.3130   21.5930 C.3   286  ARG286      0.1597
    120  C         -5.4870  -29.7990   21.7930 C.2   286  ARG286      0.2287
    121  O         -4.8840  -29.5750   22.8440 O.2   286  ARG286     -0.2864
    122  CB        -6.8650  -27.8890   21.0490 C.3   286  ARG286      0.0334
    123  CG        -8.2320  -27.3240   20.7000 C.3   286  ARG286      0.0492
    124  CD        -8.0810  -26.2200   19.6760 C.3   286  ARG286      0.2205
    125  NE        -9.3440  -25.6300   19.2530 N.pl3 286  ARG286     -0.0865
    126  CZ       -10.1650  -26.1610   18.3550 C.cat 286  ARG286      0.5346
    127  NH1       -9.8980  -27.3350   17.8000 N.pl3 286  ARG286      0.1354
    128  NH2      -11.2660  -25.5240   18.0280 N.pl3 286  ARG286      0.1354
    129  N         -6.7610  -26.4020   27.9130 N.3   333  ARG333     -0.1245
    130  CA        -7.5750  -26.4020   26.6960 C.3   333  ARG333      0.1563
    131  C         -6.7410  -26.3770   25.4270 C.2   333  ARG333      0.2260
    132  O         -7.1260  -26.9740   24.4160 O.2   333  ARG333     -0.2867
    133  CB        -8.5150  -25.1970   26.6960 C.3   333  ARG333      0.0307
    134  CG        -9.5510  -25.2560   27.7970 C.3   333  ARG333      0.0489
    135  CD       -10.6810  -26.1890   27.4270 C.3   333  ARG333      0.2205
    136  NE       -11.6110  -26.3780   28.5330 N.pl3 333  ARG333     -0.0865
    137  CZ       -12.6240  -27.2350   28.5180 C.cat 333  ARG333      0.5346
    138  NH1      -12.8810  -27.9720   27.4340 N.pl3 333  ARG333      0.1354
    139  NH2      -13.4000  -27.3420   29.5900 N.pl3 333  ARG333      0.1354
    140  N         -8.5000  -23.7120   32.1910 N.3   349  ASP349     -0.1239
    141  CA        -9.8780  -23.3760   32.5660 C.3   349  ASP349      0.1674
    142  C        -10.0290  -22.3620   33.6930 C.2   349  ASP349      0.2266
    143  O        -11.0870  -21.7340   33.7990 O.2   349  ASP349     -0.2867
    144  CB       -10.6640  -24.6430   32.9340 C.3   349  ASP349      0.1410
    145  CG       -11.3570  -25.2680   31.7440 C.2   349  ASP349      0.3668
    146  OD1      -11.1800  -24.7890   30.6090 O.co2 349  ASP349     -0.2456
    147  OD2      -12.0960  -26.2460   31.9340 O.co2 349  ASP349     -0.2456
@<TRIPOS>BOND
     1    58    59    2
     2    58    57    1
     3    67    68    2
     4    67    66    1
     5    56    57    1
     6    74    75    1
     7    65    66    1
     8    66    69    1
     9    57    60    1
    10    76    75    1
    11    76    77    2
    12    82    83    1
    13    75    78    1
    14    48    49    1
    15    84    83    1
    16    84    85    2
    17    60    61    1
    18    69    70    1
    19    50    49    1
    20    50    51    2
    21    83    86    1
    22    61    62    1
    23    55    53   am
    24    78    79    1
    25    52    49    1
    26    52    53    1
    27    70    71    1
    28    86    87    1
    29    53    54    2
    30    79    81    1
    31    79    80    1
    32   127   126    1
    33   128   126    1
    34    92    93    2
    35    92    91    1
    36    90    91    1
    37    72    71   ar
    38    71    73   ar
    39    62    63    1
    40   126   125    2
    41    87    88    1
    42    91    94    1
    43    63    64    1
    44    88    89    1
    45   125   124    1
    46   124   123    1
    47    94    95    1
    48    96    95   ar
    49    43    45   ar
    50    43    41   ar
    51    38    39    2
    52    38    37    1
    53    40    37    1
    54    40    41    1
    55   123   122    1
    56    95    97   ar
    57   122   119    1
    58    45    46   ar
    59    36    37    1
    60    41    42   ar
    61   119   120    1
    62   119   118    1
    63   120   121    2
    64   106   104   ar
    65   106   108   ar
    66    31    30    2
    67   113   112    2
    68   104   103   ar
    69    46    47    1
    70    46    44   ar
    71    42    44   ar
    72   118   112   am
    73   109   108    1
    74   112   111    1
    75   108   107   ar
    76    30    29    1
    77    20    19    2
    78   103   102    1
    79   103   105   ar
    80    99   102    1
    81    99    98    1
    82    99   100    1
    83    28    29    1
    84   110   111    1
    85   110   100   am
    86    19    18    1
    87   111   114    1
    88   100   101    2
    89    29    32    1
    90   107   105   ar
    91   132   131    2
    92    21    18    1
    93    21    22    1
    94    32    33    1
    95    18    17    1
    96   114   115    1
    97    22    24   ar
    98    22    23   ar
    99   131   130    1
   100    24    26   ar
   101    33    34    2
   102    33    35   am
   103    23    25   ar
   104    26    27   ar
   105   115   116    1
   106   130   133    1
   107   130   129    1
   108   133   134    1
   109    25    27   ar
   110   135   134    1
   111   135   136    1
   112   138   137    1
   113   116   117    1
   114   137   136    2
   115   137   139    1
   116    13    12    2
   117    12    11    1
   118    14    11    1
   119    14    15    1
   120   146   145   ar
   121    11    10    1
   122    15    16    1
   123    10    16    1
   124    10     3   am
   125   145   147   ar
   126   145   144    1
   127     5     6    1
   128     5     2    1
   129     4     3    2
   130     3     2    1
   131   140   141    1
   132     6     7    1
   133   141   144    1
   134   141   142    1
   135     2     1    1
   136     8     7    2
   137     7     9   am
   138   142   143    2
