@<TRIPOS>MOLECULE
tmp/5u6eA09.pdb
 202 201 0 0 0
SMALL
GASTEIGER

@<TRIPOS>ATOM
      1  N         29.5470   -3.7010   46.4990 N.3    69  TRP69      -0.1241
      2  CA        30.1630   -4.9670   46.8850 C.3    69  TRP69       0.1605
      3  C         31.6780   -4.8360   47.0040 C.2    69  TRP69       0.2264
      4  O         32.2900   -5.4380   47.8940 O.2    69  TRP69      -0.2867
      5  CB        29.7990   -6.0580   45.8830 C.3    69  TRP69       0.0550
      6  CG        28.4500   -6.6830   46.1260 C.ar   69  TRP69       0.0003
      7  CD1       27.2520   -6.0320   46.2660 C.ar   69  TRP69       0.0946
      8  CD2       28.1640   -8.0780   46.2490 C.ar   69  TRP69       0.0152
      9  NE1       26.2410   -6.9430   46.4730 N.ar   69  TRP69      -0.2442
     10  CE2       26.7740   -8.2050   46.4670 C.ar   69  TRP69       0.0810
     11  CE3       28.9460   -9.2350   46.1960 C.ar   69  TRP69       0.0012
     12  CZ2       26.1510   -9.4470   46.6260 C.ar   69  TRP69       0.0191
     13  CZ3       28.3250  -10.4680   46.3570 C.ar   69  TRP69       0.0001
     14  CH2       26.9440  -10.5630   46.5700 C.ar   69  TRP69       0.0015
     15  N         21.2600   -9.6310   44.6230 N.3   139  VAL139     -0.1231
     16  CA        21.9960  -10.4580   43.6680 C.3   139  VAL139      0.1692
     17  C         21.5990  -11.9260   43.8570 C.2   139  VAL139      0.2593
     18  O         21.7290  -12.4820   44.9540 O.2   139  VAL139     -0.2718
     19  CB        23.5110  -10.2680   43.8300 C.3   139  VAL139      0.0266
     20  CG1       24.2650  -11.0970   42.8020 C.3   139  VAL139      0.0020
     21  CG2       23.8680   -8.7930   43.6900 C.3   139  VAL139      0.0020
     22  N         21.1160  -12.5560   42.7880 N.am  140  SER140     -0.1938
     23  CA        20.7130  -13.9510   42.8400 C.3   140  SER140      0.2055
     24  C         20.6660  -14.5100   41.4260 C.2   140  SER140      0.2643
     25  O         20.6810  -13.7630   40.4440 O.2   140  SER140     -0.2714
     26  CB        19.3510  -14.1130   43.5120 C.3   140  SER140      0.2130
     27  OG        18.3420  -13.5970   42.6660 O.3   140  SER140     -0.2179
     28  N         20.6290  -15.8430   41.3380 N.am  141  THR141     -0.1950
     29  CA        20.3530  -16.5510   40.0970 C.3   141  THR141      0.1897
     30  C         19.0740  -17.3650   40.2540 C.2   141  THR141      0.2313
     31  O         18.6370  -17.6660   41.3710 O.2   141  THR141     -0.2863
     32  CB        21.5110  -17.4760   39.7080 C.3   141  THR141      0.1794
     33  OG1       21.6440  -18.5100   40.6990 O.3   141  THR141     -0.2208
     34  CG2       22.8110  -16.6860   39.6140 C.3   141  THR141      0.0378
     35  N         27.9070  -23.4440   35.1060 N.3   229  ASP229     -0.1239
     36  CA        28.6150  -23.2820   36.3660 C.3   229  ASP229      0.1674
     37  C         27.6610  -23.4080   37.5500 C.2   229  ASP229      0.2266
     38  O         26.4420  -23.2350   37.4270 O.2   229  ASP229     -0.2867
     39  CB        29.3320  -21.9320   36.4150 C.3   229  ASP229      0.1410
     40  CG        30.6370  -21.9310   35.6320 C.2   229  ASP229      0.3668
     41  OD1       30.9300  -22.9340   34.9480 O.co2 229  ASP229     -0.2456
     42  OD2       31.3760  -20.9280   35.7080 O.co2 229  ASP229     -0.2456
     43  N         26.9460  -21.5390   39.9940 N.3   231  GLU231     -0.1231
     44  CA        26.1110  -20.3790   40.2910 C.3   231  GLU231      0.1699
     45  C         24.7750  -20.4360   39.5570 C.2   231  GLU231      0.2592
     46  O         23.7730  -19.9270   40.0660 O.2   231  GLU231     -0.2718
     47  CB        26.8640  -19.0930   39.9400 C.3   231  GLU231      0.0402
     48  CG        28.0540  -18.8050   40.8610 C.3   231  GLU231      0.1161
     49  CD        29.2430  -19.7520   40.6380 C.2   231  GLU231      0.3649
     50  OE1       29.3220  -20.3660   39.5460 O.co2 231  GLU231     -0.2457
     51  OE2       30.0930  -19.8700   41.5540 O.co2 231  GLU231     -0.2457
     52  N         24.7320  -21.0760   38.3850 N.am  232  ILE232     -0.1980
     53  CA        23.5410  -21.0810   37.5380 C.3   232  ILE232      0.1595
     54  C         22.7640  -22.3880   37.6630 C.2   232  ILE232      0.2287
     55  O         21.5330  -22.3980   37.5390 O.2   232  ILE232     -0.2864
     56  CB        23.9060  -20.8310   36.0620 C.3   232  ILE232      0.0276
     57  CG1       24.8970  -19.6770   35.9510 C.3   232  ILE232      0.0022
     58  CG2       22.6510  -20.5250   35.2510 C.3   232  ILE232      0.0022
     59  CD1       24.4090  -18.4110   36.6000 C.3   232  ILE232      0.0001
     60  N         21.4870  -19.3950   43.6440 N.3   236  SER236     -0.1202
     61  CA        22.4810  -18.7930   44.5220 C.3   236  SER236      0.2020
     62  C         22.1030  -17.3540   44.8550 C.2   236  SER236      0.2619
     63  O         21.5890  -16.6090   44.0120 O.2   236  SER236     -0.2717
     64  CB        23.8840  -18.8640   43.9100 C.3   236  SER236      0.2103
     65  OG        23.9410  -18.1430   42.6950 O.3   236  SER236     -0.2182
     66  N         22.3460  -16.9820   46.1080 N.am  237  PHE237     -0.1961
     67  CA        21.9940  -15.6720   46.6350 C.3   237  PHE237      0.1771
     68  C         22.8850  -15.4260   47.8440 C.2   237  PHE237      0.2619
     69  O         23.6530  -16.2980   48.2580 O.2   237  PHE237     -0.2715
     70  CB        20.5060  -15.6100   46.9980 C.3   237  PHE237      0.0574
     71  CG        20.0650  -16.7120   47.9270 C.ar  237  PHE237     -0.0200
     72  CD1       19.7750  -17.9760   47.4380 C.ar  237  PHE237     -0.0042
     73  CD2       19.9430  -16.4830   49.2920 C.ar  237  PHE237     -0.0042
     74  CE1       19.3730  -18.9950   48.2870 C.ar  237  PHE237     -0.0003
     75  CE2       19.5430  -17.5060   50.1560 C.ar  237  PHE237     -0.0003
     76  CZ        19.2560  -18.7630   49.6470 C.ar  237  PHE237     -0.0000
     77  N         22.7930  -14.2250   48.4020 N.am  238  ASN238     -0.1972
     78  CA        23.6000  -13.8710   49.5620 C.3   238  ASN238      0.1688
     79  C         22.6700  -13.5790   50.7270 C.2   238  ASN238      0.2292
     80  O         21.8300  -12.6780   50.6440 O.2   238  ASN238     -0.2864
     81  CB        24.5070  -12.6730   49.2780 C.3   238  ASN238      0.1181
     82  CG        25.5430  -12.4690   50.3730 C.2   238  ASN238      0.2629
     83  OD1       25.2060  -12.0520   51.4800 O.2   238  ASN238     -0.2716
     84  ND2       26.8040  -12.7880   50.0750 N.am  238  ASN238     -0.0877
     85  N         27.1370  -16.7840   51.2440 N.3   243  PHE243     -0.1227
     86  CA        26.6880  -17.2240   49.9250 C.3   243  PHE243      0.1736
     87  C         25.9880  -18.5730   50.0440 C.2   243  PHE243      0.2595
     88  O         26.6160  -19.5750   50.4000 O.2   243  PHE243     -0.2718
     89  CB        27.8730  -17.3100   48.9650 C.3   243  PHE243      0.0547
     90  CG        28.4810  -15.9730   48.6280 C.ar  243  PHE243     -0.0202
     91  CD1       29.4760  -15.4240   49.4250 C.ar  243  PHE243     -0.0042
     92  CD2       28.0550  -15.2610   47.5120 C.ar  243  PHE243     -0.0042
     93  CE1       30.0400  -14.1920   49.1110 C.ar  243  PHE243     -0.0003
     94  CE2       28.6130  -14.0240   47.1920 C.ar  243  PHE243     -0.0003
     95  CZ        29.6050  -13.4900   47.9920 C.ar  243  PHE243     -0.0000
     96  N         24.6900  -18.6050   49.7380 N.am  244  PHE244     -0.1962
     97  CA        23.9060  -19.8400   49.7220 C.3   244  PHE244      0.1771
     98  C         23.7660  -20.3480   48.2910 C.2   244  PHE244      0.2619
     99  O         23.4520  -19.5660   47.3800 O.2   244  PHE244     -0.2715
    100  CB        22.5120  -19.6170   50.3130 C.3   244  PHE244      0.0574
    101  CG        22.4740  -19.5820   51.8150 C.ar  244  PHE244     -0.0200
    102  CD1       23.2430  -18.6750   52.5290 C.ar  244  PHE244     -0.0042
    103  CD2       21.6330  -20.4390   52.5140 C.ar  244  PHE244     -0.0042
    104  CE1       23.1900  -18.6400   53.9140 C.ar  244  PHE244     -0.0003
    105  CE2       21.5720  -20.4080   53.9010 C.ar  244  PHE244     -0.0003
    106  CZ        22.3520  -19.5080   54.6010 C.ar  244  PHE244     -0.0000
    107  N         23.9840  -21.6530   48.1070 N.am  245  TYR245     -0.1974
    108  CA        23.7440  -22.3630   46.8530 C.3   245  TYR245      0.1639
    109  C         22.7300  -23.4710   47.1140 C.2   245  TYR245      0.2290
    110  O         23.0160  -24.4030   47.8700 O.2   245  TYR245     -0.2864
    111  CB        25.0330  -22.9780   46.2940 C.3   245  TYR245      0.0560
    112  CG        25.9890  -21.9920   45.6830 C.ar  245  TYR245     -0.0198
    113  CD1       26.4750  -20.9160   46.4210 C.ar  245  TYR245     -0.0009
    114  CD2       26.4330  -22.1470   44.3700 C.ar  245  TYR245     -0.0009
    115  CE1       27.3560  -20.0090   45.8670 C.ar  245  TYR245      0.0417
    116  CE2       27.3250  -21.2480   43.8070 C.ar  245  TYR245      0.0417
    117  CZ        27.7780  -20.1790   44.5600 C.ar  245  TYR245      0.1957
    118  OH        28.6610  -19.2740   44.0090 O.3   245  TYR245     -0.2866
    119  N         33.8300  -18.8460   45.2420 N.3   272  ILE272     -0.1231
    120  CA        32.7540  -18.2510   44.4580 C.3   272  ILE272      0.1692
    121  C         33.3030  -17.7850   43.1180 C.2   272  ILE272      0.2592
    122  O         34.3680  -17.1590   43.0630 O.2   272  ILE272     -0.2718
    123  CB        32.1260  -17.0540   45.2040 C.3   272  ILE272      0.0266
    124  CG1       31.4920  -17.5170   46.5150 C.3   272  ILE272      0.0019
    125  CG2       31.1060  -16.3300   44.3170 C.3   272  ILE272      0.0020
    126  CD1       30.4670  -18.5840   46.3100 C.3   272  ILE272      0.0001
    127  N         32.5700  -18.0710   42.0450 N.am  273  ASN273     -0.1960
    128  CA        32.7430  -17.3170   40.8090 C.3   273  ASN273      0.1819
    129  C         32.0330  -15.9720   40.9630 C.2   273  ASN273      0.2621
    130  O         30.8340  -15.9310   41.2470 O.2   273  ASN273     -0.2715
    131  CB        32.1860  -18.0880   39.6160 C.3   273  ASN273      0.1195
    132  CG        32.9500  -19.3710   39.3360 C.2   273  ASN273      0.2630
    133  OD1       34.1610  -19.4560   39.5640 O.2   273  ASN273     -0.2716
    134  ND2       32.2440  -20.3750   38.8320 N.am  273  ASN273     -0.0877
    135  N         32.7670  -14.8760   40.7940 N.am  274  MET274     -0.1963
    136  CA        32.2350  -13.5550   41.1140 C.3   274  MET274      0.1736
    137  C         31.3080  -13.0660   40.0050 C.2   274  MET274      0.2616
    138  O         31.7150  -12.9610   38.8450 O.2   274  MET274     -0.2715
    139  CB        33.3820  -12.5760   41.3530 C.3   274  MET274      0.0427
    140  CG        34.1660  -12.8820   42.6230 C.3   274  MET274      0.0599
    141  SD        35.6720  -11.9020   42.7820 S.3   274  MET274     -0.1393
    142  CE        34.9920  -10.3200   43.2960 C.3   274  MET274      0.0692
    143  N         30.0600  -12.7610   40.3680 N.am  275  TRP275     -0.1960
    144  CA        29.0980  -12.2400   39.4020 C.3   275  TRP275      0.1771
    145  C         29.5890  -10.9730   38.7130 C.2   275  TRP275      0.2620
    146  O         29.1290  -10.6700   37.6090 O.2   275  TRP275     -0.2715
    147  CB        27.7540  -11.9800   40.0840 C.3   275  TRP275      0.0590
    148  CG        27.7910  -10.9150   41.1450 C.ar  275  TRP275      0.0006
    149  CD1       28.0220  -11.0890   42.4810 C.ar  275  TRP275      0.0946
    150  CD2       27.5720   -9.5100   40.9580 C.ar  275  TRP275      0.0152
    151  NE1       27.9730   -9.8790   43.1370 N.ar  275  TRP275     -0.2442
    152  CE2       27.6940   -8.8940   42.2250 C.ar  275  TRP275      0.0810
    153  CE3       27.2870   -8.7120   39.8440 C.ar  275  TRP275      0.0012
    154  CZ2       27.5400   -7.5230   42.4070 C.ar  275  TRP275      0.0191
    155  CZ3       27.1340   -7.3420   40.0270 C.ar  275  TRP275      0.0001
    156  CH2       27.2650   -6.7630   41.2990 C.ar  275  TRP275      0.0015
    157  N         30.5080  -10.2280   39.3310 N.am  276  GLN276     -0.1963
    158  CA        31.1190   -9.0820   38.6730 C.3   276  GLN276      0.1733
    159  C         31.9570   -9.4820   37.4670 C.2   276  GLN276      0.2616
    160  O         32.3590   -8.6020   36.7000 O.2   276  GLN276     -0.2715
    161  CB        32.0040   -8.2980   39.6540 C.3   276  GLN276      0.0408
    162  CG        31.3000   -7.8020   40.9190 C.3   276  GLN276      0.0908
    163  CD        31.4530   -8.7580   42.0940 C.2   276  GLN276      0.2608
    164  OE1       31.1890   -9.9490   41.9700 O.2   276  GLN276     -0.2717
    165  NE2       31.8910   -8.2370   43.2370 N.am  276  GLN276     -0.0878
    166  N         32.2470  -10.7710   37.2950 N.am  277  GLY277     -0.1955
    167  CA        33.0580  -11.2270   36.1830 C.3   277  GLY277      0.1869
    168  C         34.5530  -11.1220   36.3780 C.2   277  GLY277      0.2309
    169  O         35.2970  -11.1840   35.3970 O.2   277  GLY277     -0.2863
    170  N         36.6260  -13.1820   38.0720 N.3   279  GLY279     -0.1210
    171  CA        37.3130  -14.4120   38.4220 C.3   279  GLY279      0.1956
    172  C         36.7140  -15.1300   39.6120 C.2   279  GLY279      0.2611
    173  O         35.5090  -15.0240   39.8620 O.2   279  GLY279     -0.2717
    174  N         37.5420  -15.8690   40.3480 N.am  280  GLN280     -0.1979
    175  CA        37.1190  -16.6150   41.5250 C.3   280  GLN280      0.1601
    176  C         37.5900  -15.9180   42.7930 C.2   280  GLN280      0.2287
    177  O         38.5770  -15.1780   42.8010 O.2   280  GLN280     -0.2864
    178  CB        37.6570  -18.0510   41.5090 C.3   280  GLN280      0.0394
    179  CG        37.1160  -18.9060   40.3860 C.3   280  GLN280      0.0908
    180  CD        37.6290  -18.4660   39.0280 C.2   280  GLN280      0.2608
    181  OE1       38.8310  -18.2620   38.8410 O.2   280  GLN280     -0.2717
    182  NE2       36.7170  -18.3000   38.0750 N.am  280  GLN280     -0.0878
    183  N         22.3940  -15.4520   35.7180 N.3   321  GLY321     -0.1210
    184  CA        23.8310  -15.2900   35.7660 C.3   321  GLY321      0.1956
    185  C         24.3070  -13.9430   35.2650 C.2   321  GLY321      0.2612
    186  O         25.4310  -13.5380   35.5860 O.2   321  GLY321     -0.2717
    187  N         23.4950  -13.2510   34.4680 N.am  322  ASN322     -0.1960
    188  CA        23.7390  -11.8550   34.1230 C.3   322  ASN322      0.1819
    189  C         22.9130  -11.0190   35.0920 C.2   322  ASN322      0.2621
    190  O         21.7010  -10.8580   34.9210 O.2   322  ASN322     -0.2715
    191  CB        23.3750  -11.5770   32.6670 C.3   322  ASN322      0.1195
    192  CG        23.5490  -10.1130   32.2930 C.2   322  ASN322      0.2630
    193  OD1       24.0430   -9.3160   33.0950 O.2   322  ASN322     -0.2716
    194  ND2       23.1530   -9.7540   31.0720 N.am  322  ASN322     -0.0877
    195  N         23.5730  -10.4980   36.1300 N.am  323  ILE323     -0.1977
    196  CA        22.8780   -9.7500   37.1730 C.3   323  ILE323      0.1596
    197  C         22.1760   -8.5130   36.6350 C.2   323  ILE323      0.2287
    198  O         21.2460   -8.0090   37.2690 O.2   323  ILE323     -0.2864
    199  CB        23.8700   -9.3860   38.2900 C.3   323  ILE323      0.0276
    200  CG1       24.4840  -10.6710   38.8480 C.3   323  ILE323      0.0022
    201  CG2       23.1670   -8.6020   39.3790 C.3   323  ILE323      0.0022
    202  CD1       23.4440  -11.6720   39.3460 C.3   323  ILE323      0.0001
@<TRIPOS>BOND
     1   194   192   am
     2   192   191    1
     3   192   193    2
     4   191   188    1
     5   188   187    1
     6   188   189    1
     7   187   185   am
     8   190   189    2
     9    41    40   ar
    10   189   195   am
    11    35    36    1
    12    58    56    1
    13   185   186    2
    14   185   184    1
    15   169   168    2
    16    40    42   ar
    17    40    39    1
    18   183   184    1
    19    57    56    1
    20    57    59    1
    21    56    53    1
    22   195   196    1
    23   167   168    1
    24   167   166    1
    25    36    39    1
    26    36    37    1
    27   197   196    1
    28   197   198    2
    29   160   159    2
    30   196   199    1
    31   166   159   am
    32    38    37    2
    33   159   158    1
    34    53    54    1
    35    53    52    1
    36    55    54    2
    37   146   145    2
    38   170   171    1
    39   182   180   am
    40   199   200    1
    41   199   201    1
    42    52    45   am
    43   171   172    1
    44   158   157    1
    45   158   161    1
    46   145   157   am
    47   145   144    1
    48   134   132   am
    49   181   180    2
    50   138   137    2
    51   200   202    1
    52   180   179    1
    53   132   133    2
    54   132   131    1
    55   144   147    1
    56   144   143    1
    57    50    49   ar
    58    45    46    2
    59    45    44    1
    60   172   173    2
    61   172   174   am
    62    34    32    1
    63   131   128    1
    64   161   162    1
    65    32    29    1
    66    32    33    1
    67   153   155   ar
    68   153   150   ar
    69    47    44    1
    70    47    48    1
    71    43    44    1
    72   137   143   am
    73   137   136    1
    74   155   156   ar
    75   147   148    1
    76    29    30    1
    77    29    28    1
    78    30    31    2
    79   174   175    1
    80   179   178    1
    81    25    24    2
    82    49    48    1
    83    49    51   ar
    84   135   129   am
    85   135   136    1
    86   128   129    1
    87   128   127    1
    88   162   163    1
    89   150   148   ar
    90   150   152   ar
    91   129   130    2
    92   136   139    1
    93   148   149   ar
    94   156   154   ar
    95    28    24   am
    96   139   140    1
    97    24    23    1
    98   178   175    1
    99   175   176    1
   100   164   163    2
   101   127   121   am
   102   163   165   am
   103   152   154   ar
   104   152   151   ar
   105   149   151   ar
   106   140   141    1
   107    27    26    1
   108    65    64    1
   109   141   142    1
   110    22    23    1
   111    22    17   am
   112   176   177    2
   113    20    19    1
   114    23    26    1
   115   122   121    2
   116   121   120    1
   117    60    61    1
   118    16    19    1
   119    16    17    1
   120    16    15    1
   121    21    19    1
   122   116   114   ar
   123   116   117   ar
   124    17    18    2
   125    64    61    1
   126   118   117    1
   127    63    62    2
   128   125   123    1
   129   114   112   ar
   130   120   123    1
   131   120   119    1
   132    61    62    1
   133   117   115   ar
   134    62    66   am
   135   123   124    1
   136   112   111    1
   137   112   113   ar
   138   115   113   ar
   139     5     6    1
   140     5     2    1
   141    66    67    1
   142     6     8   ar
   143     6     7   ar
   144    11     8   ar
   145    11    13   ar
   146     8    10   ar
   147     7     9   ar
   148   111   108    1
   149   126   124    1
   150    13    14   ar
   151    10     9   ar
   152    10    12   ar
   153     1     2    1
   154    14    12   ar
   155    67    70    1
   156    67    68    1
   157   108   109    1
   158   108   107    1
   159     2     3    1
   160    70    71    1
   161     3     4    2
   162   109   110    2
   163    94    92   ar
   164    94    95   ar
   165    99    98    2
   166    72    71   ar
   167    72    74   ar
   168    92    90   ar
   169    68    69    2
   170    68    77   am
   171    71    73   ar
   172    95    93   ar
   173   107    98   am
   174    74    76   ar
   175    98    97    1
   176    77    78    1
   177    90    89    1
   178    90    91   ar
   179    89    86    1
   180    93    91   ar
   181    81    78    1
   182    81    82    1
   183    73    75   ar
   184    78    79    1
   185    76    75   ar
   186    97    96    1
   187    97   100    1
   188    96    87   am
   189    86    87    1
   190    86    85    1
   191    87    88    2
   192    84    82   am
   193   100   101    1
   194    82    83    2
   195    80    79    2
   196   101   103   ar
   197   101   102   ar
   198   103   105   ar
   199   102   104   ar
   200   105   106   ar
   201   104   106   ar
