@<TRIPOS>MOLECULE
tmp/5u6iA00.pdb
 162 151 0 0 0
SMALL
GASTEIGER

@<TRIPOS>ATOM
      1  N         40.6820   10.3590    6.0420 N.3    14  ILE14      -0.1231
      2  CA        41.4590    9.9570    7.2270 C.3    14  ILE14       0.1692
      3  C         40.9640   10.7810    8.4150 C.2    14  ILE14       0.2593
      4  O         40.4760   10.2280    9.4000 O.2    14  ILE14      -0.2718
      5  CB        43.0030   10.1130    7.0400 C.3    14  ILE14       0.0266
      6  CG1       43.5450    9.0460    6.0870 C.3    14  ILE14       0.0019
      7  CG2       43.7320   10.0260    8.4240 C.3    14  ILE14       0.0020
      8  CD1       45.0400    9.2030    5.7010 C.3    14  ILE14       0.0001
      9  N         41.1450   12.0980    8.3420 N.am   15  GLY15      -0.1942
     10  CA        40.7310   12.9950    9.4100 C.3    15  GLY15       0.2014
     11  C         41.0420   14.4490    9.0740 C.2    15  GLY15       0.2639
     12  O         41.3210   14.7690    7.9200 O.2    15  GLY15      -0.2714
     13  N         40.9400   15.3280   10.0840 N.am   16  GLU16      -0.1963
     14  CA        41.2290   16.7600    9.9810 C.3    16  GLU16       0.1733
     15  C         42.3120   17.0670   11.0020 C.2    16  GLU16       0.2616
     16  O         42.2450   16.5570   12.1210 O.2    16  GLU16      -0.2715
     17  CB        39.9830   17.6250   10.3160 C.3    16  GLU16       0.0429
     18  CG        39.1020   18.0100    9.1350 C.3    16  GLU16       0.1163
     19  CD        38.2050   16.9160    8.6000 C.2    16  GLU16       0.3649
     20  OE1       38.4210   15.7430    8.9700 O.co2  16  GLU16      -0.2457
     21  OE2       37.2680   17.2330    7.8320 O.co2  16  GLU16      -0.2457
     22  N         43.2740   17.9270   10.6460 N.am   17  GLY17      -0.1955
     23  CA        44.3350   18.3470   11.5610 C.3    17  GLY17       0.1869
     24  C         43.8810   19.6380   12.2450 C.2    17  GLY17       0.2309
     25  O         42.7120   19.7500   12.6360 O.2    17  GLY17      -0.2863
     26  N         42.6220   15.6410    5.5840 N.3    21  VAL21      -0.1245
     27  CA        43.6160   14.6380    5.1940 C.3    21  VAL21       0.1561
     28  C         42.9250   13.4070    4.5910 C.2    21  VAL21       0.2260
     29  O         41.9850   12.8950    5.1920 O.2    21  VAL21      -0.2867
     30  CB        44.5320   14.2310    6.3650 C.3    21  VAL21       0.0252
     31  CG1       45.5730   13.2050    5.9050 C.3    21  VAL21       0.0019
     32  CG2       45.2210   15.4510    6.9690 C.3    21  VAL21       0.0019
     33  N         43.8640    9.4920    2.3250 N.3    23  SER23      -0.1217
     34  CA        44.8970    8.5660    1.8850 C.3    23  SER23       0.1889
     35  C         44.7200    8.5240    0.3680 C.2    23  SER23       0.2288
     36  O         43.6380    8.8240   -0.1170 O.2    23  SER23      -0.2866
     37  CB        44.7150    7.1610    2.4600 C.3    23  SER23       0.2089
     38  OG        43.4360    6.6350    2.1510 O.3    23  SER23      -0.2183
     39  N         49.5800    9.8530    2.3130 N.3    34  ALA34      -0.1245
     40  CA        48.5840   10.7030    2.9400 C.3    34  ALA34       0.1562
     41  C         48.6910   12.0720    2.2720 C.2    34  ALA34       0.2260
     42  O         49.7870   12.4720    1.8860 O.2    34  ALA34      -0.2867
     43  CB        48.8440   10.8220    4.4320 C.3    34  ALA34       0.0290
     44  N         47.1770   16.1190    2.6470 N.3    36  LYS36      -0.1245
     45  CA        46.4150   17.1380    3.3700 C.3    36  LYS36       0.1561
     46  C         46.0620   18.2750    2.4080 C.2    36  LYS36       0.2260
     47  O         46.9810   18.9230    1.9190 O.2    36  LYS36      -0.2867
     48  CB        47.2350   17.7210    4.5430 C.3    36  LYS36       0.0271
     49  CG        46.4030   18.6610    5.4370 C.3    36  LYS36       0.0035
     50  CD        47.2370   19.6060    6.2790 C.3    36  LYS36       0.0206
     51  CE        48.3730   18.9720    7.0030 C.3    36  LYS36       0.1093
     52  NZ        48.8210   19.8240    8.1280 N.3    36  LYS36      -0.1314
     53  N         56.9540   13.5750   10.8080 N.3    66  ILE66      -0.1245
     54  CA        56.4000   13.4060    9.4730 C.3    66  ILE66       0.1561
     55  C         57.0870   14.3790    8.5100 C.2    66  ILE66       0.2260
     56  O         57.3260   15.5260    8.8630 O.2    66  ILE66      -0.2867
     57  CB        54.8730   13.6530    9.4870 C.3    66  ILE66       0.0252
     58  CG1       54.2370   13.1110    8.2080 C.3    66  ILE66       0.0019
     59  CG2       54.5480   15.1450    9.6380 C.3    66  ILE66       0.0019
     60  CD1       54.2360   11.6450    8.0980 C.3    66  ILE66       0.0001
     61  N         52.4120   13.3620    2.3260 N.3    87  GLN87      -0.1231
     62  CA        53.2080   12.8510    3.4300 C.3    87  GLN87       0.1698
     63  C         53.1520   11.3290    3.4950 C.2    87  GLN87       0.2592
     64  O         52.3100   10.7110    2.8600 O.2    87  GLN87      -0.2718
     65  CB        52.6590   13.4420    4.7410 C.3    87  GLN87       0.0381
     66  CG        52.6010   14.9630    4.7040 C.3    87  GLN87       0.0905
     67  CD        52.2930   15.5620    6.0550 C.2    87  GLN87       0.2608
     68  OE1       51.2390   15.3220    6.6210 O.2    87  GLN87      -0.2717
     69  NE2       53.1970   16.3510    6.6050 N.am   87  GLN87      -0.0878
     70  N         54.0200   10.7460    4.3240 N.am   88  ASP88      -0.1960
     71  CA        54.0130    9.3000    4.5350 C.3    88  ASP88       0.1840
     72  C         52.6890    8.8770    5.1420 C.2    88  ASP88       0.2622
     73  O         52.1170    9.5980    5.9680 O.2    88  ASP88      -0.2715
     74  CB        55.1510    8.8630    5.4590 C.3    88  ASP88       0.1450
     75  CG        56.5420    8.9400    4.8560 C.2    88  ASP88       0.3671
     76  OD1       56.6620    8.8420    3.6090 O.co2  88  ASP88      -0.2456
     77  OD2       57.5110    9.0230    5.6290 O.co2  88  ASP88      -0.2456
     78  N         52.1700    7.7380    4.6880 N.am   89  LEU89      -0.1963
     79  CA        50.9380    7.1920    5.2230 C.3    89  LEU89       0.1728
     80  C         51.3280    6.2250    6.3210 C.2    89  LEU89       0.2616
     81  O         52.1120    5.3110    6.0680 O.2    89  LEU89      -0.2715
     82  CB        50.1650    6.4200    4.1420 C.3    89  LEU89       0.0311
     83  CG        48.7850    5.9100    4.5500 C.3    89  LEU89       0.0022
     84  CD1       47.8250    7.0550    4.8430 C.3    89  LEU89       0.0001
     85  CD2       48.1990    5.0420    3.4590 C.3    89  LEU89       0.0001
     86  N         50.7070    6.3470    7.4790 N.am   90  MET90      -0.1963
     87  CA        50.9470    5.4550    8.6190 C.3    90  MET90       0.1736
     88  C         49.7240    4.5730    8.7790 C.2    90  MET90       0.2616
     89  O         48.9020    4.5540    7.8700 O.2    90  MET90      -0.2715
     90  CB        51.2750    6.3050    9.8390 C.3    90  MET90       0.0427
     91  CG        52.5220    7.1540    9.6210 C.3    90  MET90       0.0599
     92  SD        54.0490    6.1980    9.6170 S.3    90  MET90      -0.1393
     93  CE        54.2920    5.9550   11.4380 C.3    90  MET90       0.0692
     94  N         49.6930    3.7060    9.7840 N.am   91  GLU91      -0.1963
     95  CA        48.5910    2.7380    9.9410 C.3    91  GLU91       0.1733
     96  C         47.5250    3.2050   10.8790 C.2    91  GLU91       0.2617
     97  O         46.3690    2.7890   10.7470 O.2    91  GLU91      -0.2715
     98  CB        49.1380    1.3690   10.3660 C.3    91  GLU91       0.0429
     99  CG        50.0190    0.7740    9.2890 C.3    91  GLU91       0.1163
    100  CD        50.6850   -0.5290    9.6690 C.2    91  GLU91       0.3649
    101  OE1       50.0650   -1.3230   10.4100 O.co2  91  GLU91      -0.2457
    102  OE2       51.8390   -0.7490    9.2380 O.co2  91  GLU91      -0.2457
    103  N         47.8940    4.0210   11.8850 N.am   92  THR92      -0.1937
    104  CA        46.9370    4.5090   12.8440 C.3    92  THR92       0.2028
    105  C         47.5710    5.6660   13.6090 C.2    92  THR92       0.2642
    106  O         48.6450    6.1580   13.2520 O.2    92  THR92      -0.2714
    107  CB        46.5320    3.3440   13.8010 C.3    92  THR92       0.1808
    108  OG1       45.4290    3.7760   14.5900 O.3    92  THR92      -0.2208
    109  CG2       47.6940    2.8970   14.6890 C.3    92  THR92       0.0379
    110  N         46.9090    6.0940   14.6550 N.am   93  ASP93      -0.1971
    111  CA        47.4620    7.1330   15.5110 C.3    93  ASP93       0.1709
    112  C         47.2310    6.7080   16.9510 C.2    93  ASP93       0.2293
    113  O         46.4360    5.8050   17.2130 O.2    93  ASP93      -0.2864
    114  CB        46.9140    8.5080   15.1590 C.3    93  ASP93       0.1436
    115  CG        45.4280    8.6370   15.3570 C.2    93  ASP93       0.3671
    116  OD1       44.9730    8.4100   16.4790 O.co2  93  ASP93      -0.2456
    117  OD2       44.7290    9.0340   14.3960 O.co2  93  ASP93      -0.2456
    118  N         43.4760    6.6600   18.2560 N.3    96  LYS96      -0.1245
    119  CA        42.7100    5.4910   17.8110 C.3    96  LYS96       0.1561
    120  C         43.2110    4.2300   18.4990 C.2    96  LYS96       0.2260
    121  O         42.4020    3.3920   18.8880 O.2    96  LYS96      -0.2867
    122  CB        42.7890    5.3260   16.2830 C.3    96  LYS96       0.0271
    123  CG        42.0680    6.4440   15.5530 C.3    96  LYS96       0.0035
    124  CD        41.8030    6.1350   14.0840 C.3    96  LYS96       0.0206
    125  CE        42.8110    6.7240   13.1360 C.3    96  LYS96       0.1093
    126  NZ        42.6980    6.1160   11.7780 N.3    96  LYS96      -0.1314
    127  N         46.2190   12.1530   18.8220 N.3   135  SER135     -0.1202
    128  CA        45.8430   12.0920   17.4140 C.3   135  SER135      0.2020
    129  C         46.9250   12.6310   16.4710 C.2   135  SER135      0.2618
    130  O         46.8520   12.3450   15.2790 O.2   135  SER135     -0.2717
    131  CB        44.4950   12.7730   17.1920 C.3   135  SER135      0.2103
    132  OG        44.5400   14.1430   17.5400 O.3   135  SER135     -0.2182
    133  N         47.9590   13.3470   16.9910 N.am  136  ASN136     -0.1974
    134  CA        49.0700   13.8440   16.2050 C.3   136  ASN136      0.1688
    135  C         50.2940   12.9330   16.3120 C.2   136  ASN136      0.2292
    136  O         51.3720   13.3370   15.8800 O.2   136  ASN136     -0.2864
    137  CB        49.4070   15.2850   16.6060 C.3   136  ASN136      0.1181
    138  CG        48.3500   16.2360   16.1060 C.2   136  ASN136      0.2629
    139  OD1       47.6300   15.9510   15.1270 O.2   136  ASN136     -0.2716
    140  ND2       48.2410   17.3790   16.7470 N.am  136  ASN136     -0.0877
    141  N         51.5180    9.4560   15.0570 N.3   138  LEU138     -0.1245
    142  CA        51.2010    8.4210   14.0950 C.3   138  LEU138      0.1561
    143  C         52.0360    7.1880   14.3410 C.2   138  LEU138      0.2260
    144  O         53.2080    7.3020   14.6820 O.2   138  LEU138     -0.2867
    145  CB        51.4410    8.9240   12.6770 C.3   138  LEU138      0.0270
    146  CG        50.8230   10.2700   12.3020 C.3   138  LEU138      0.0019
    147  CD1       51.1160   10.6060   10.8500 C.3   138  LEU138      0.0001
    148  CD2       49.3300   10.2970   12.5820 C.3   138  LEU138      0.0001
    149  N         53.1380   14.5370   13.8450 N.3   148  CYS148     -0.1221
    150  CA        52.5950   15.2470   12.7030 C.3   148  CYS148      0.1808
    151  C         51.8030   16.4820   13.1740 C.2   148  CYS148      0.2601
    152  O         51.6890   16.7740   14.3660 O.2   148  CYS148     -0.2717
    153  CB        51.7390   14.3200   11.8450 C.3   148  CYS148      0.0970
    154  SG        50.1170   13.9490   12.5450 S.3   148  CYS148     -0.0800
    155  N         51.3640   17.2430   12.1970 N.am  149  ASP149     -0.1973
    156  CA        50.4950   18.4150   12.3520 C.3   149  ASP149      0.1709
    157  C         51.1860   19.5840   13.0400 C.2   149  ASP149      0.2293
    158  O         50.9720   19.8460   14.2270 O.2   149  ASP149     -0.2864
    159  CB        49.1820   18.0790   13.0240 C.3   149  ASP149      0.1436
    160  CG        48.1550   19.2040   12.8390 C.2   149  ASP149      0.3671
    161  OD1       48.5500   20.3260   12.3550 O.co2 149  ASP149     -0.2456
    162  OD2       46.9810   18.9770   13.1440 O.co2 149  ASP149     -0.2456
@<TRIPOS>BOND
     1    36    35    2
     2    35    34    1
     3    34    33    1
     4    34    37    1
     5    42    41    2
     6    47    46    2
     7    38    37    1
     8    41    40    1
     9    39    40    1
    10    61    62    1
    11    46    45    1
    12    44    45    1
    13    64    63    2
    14    40    43    1
    15    45    48    1
    16    62    63    1
    17    62    65    1
    18    85    83    1
    19    63    70   am
    20    76    75   ar
    21    82    83    1
    22    82    79    1
    23    70    71    1
    24    71    72    1
    25    71    74    1
    26    48    49    1
    27    83    84    1
    28    28    29    2
    29    28    27    1
    30    78    72   am
    31    78    79    1
    32    66    65    1
    33    66    67    1
    34    75    74    1
    35    75    77   ar
    36    72    73    2
    37    27    26    1
    38    27    30    1
    39    79    80    1
    40    49    50    1
    41     8     6    1
    42    31    30    1
    43     1     2    1
    44    67    69   am
    45    67    68    2
    46    81    80    2
    47     6     5    1
    48    50    51    1
    49    80    86   am
    50    30    32    1
    51    51    52    1
    52     5     2    1
    53     5     7    1
    54     2     3    1
    55    86    87    1
    56    21    19   ar
    57    89    88    2
    58    12    11    2
    59    60    58    1
    60    58    57    1
    61     9     3   am
    62     9    10    1
    63     3     4    2
    64    55    56    2
    65    55    54    1
    66    19    20   ar
    67    19    18    1
    68    87    88    1
    69    87    90    1
    70    88    94   am
    71    11    10    1
    72    11    13   am
    73    18    17    1
    74   102   100   ar
    75    99   100    1
    76    99    98    1
    77    54    57    1
    78    54    53    1
    79    57    59    1
    80    92    91    1
    81    92    93    1
    82    91    90    1
    83   100   101   ar
    84    94    95    1
    85    95    98    1
    86    95    96    1
    87    14    13    1
    88    14    17    1
    89    14    15    1
    90    22    15   am
    91    22    23    1
    92    97    96    2
    93   147   146    1
    94    96   103   am
    95    15    16    2
    96    23    24    1
    97   126   125    1
    98   153   154    1
    99   153   150    1
   100   103   104    1
   101   155   156    1
   102   155   151   am
   103    24    25    2
   104   146   148    1
   105   146   145    1
   106   156   159    1
   107   156   157    1
   108   161   160   ar
   109   145   142    1
   110   150   151    1
   111   150   149    1
   112   160   159    1
   113   160   162   ar
   114   104   105    1
   115   104   107    1
   116   157   158    2
   117   125   124    1
   118   151   152    2
   119   106   105    2
   120   105   110   am
   121   107   108    1
   122   107   109    1
   123   124   123    1
   124   142   143    1
   125   142   141    1
   126   143   144    2
   127   117   115   ar
   128   110   111    1
   129   139   138    2
   130   114   115    1
   131   114   111    1
   132   130   129    2
   133   115   116   ar
   134   111   112    1
   135   123   122    1
   136   136   135    2
   137   138   137    1
   138   138   140   am
   139   134   135    1
   140   134   137    1
   141   134   133    1
   142   122   119    1
   143   129   133   am
   144   129   128    1
   145   112   113    2
   146   131   128    1
   147   131   132    1
   148   128   127    1
   149   119   118    1
   150   119   120    1
   151   120   121    2
