@<TRIPOS>MOLECULE
tmp/5u6jA00.pdb
 178 174 0 0 0
SMALL
GASTEIGER

@<TRIPOS>ATOM
      1  N         15.4420   40.4380   16.7400 N.3    25  LEU25      -0.1231
      2  CA        14.0120   40.1350   16.7910 C.3    25  LEU25       0.1693
      3  C         13.7280   38.9500   17.7180 C.2    25  LEU25       0.2592
      4  O         12.9730   39.0670   18.6790 O.2    25  LEU25      -0.2718
      5  CB        13.4700   39.8530   15.3490 C.3    25  LEU25       0.0284
      6  CG        12.0120   39.3830   15.2210 C.3    25  LEU25       0.0019
      7  CD1       11.0270   40.5410   15.4320 C.3    25  LEU25       0.0001
      8  CD2       11.7690   38.7000   13.8980 C.3    25  LEU25       0.0001
      9  N         14.3430   37.8090   17.4120 N.am   26  CYS26      -0.1970
     10  CA        14.0780   36.5120   18.0250 C.3    26  CYS26       0.1712
     11  C         15.2180   35.5700   17.8040 C.2    26  CYS26       0.2296
     12  O         16.1540   35.8720   17.0790 O.2    26  CYS26      -0.2864
     13  CB        12.7950   35.9310   17.4140 C.3    26  CYS26       0.0983
     14  SG        11.2920   36.4010   18.3020 S.3    26  CYS26      -0.0798
     15  N          4.7230   33.9370   17.3790 N.3    41  HIS41      -0.1226
     16  CA         4.5060   35.2690   17.9590 C.3    41  HIS41       0.1752
     17  C          5.6020   36.2820   17.6030 C.2    41  HIS41       0.2596
     18  O          5.3820   37.4730   17.7690 O.2    41  HIS41      -0.2718
     19  CB         4.2750   35.1920   19.4810 C.3    41  HIS41       0.0759
     20  CG         5.5230   35.1630   20.3110 C.ar   41  HIS41       0.0818
     21  ND1        6.0320   33.9770   20.8060 N.ar   41  HIS41      -0.2268
     22  CD2        6.2840   36.1830   20.7640 C.ar   41  HIS41       0.1154
     23  CE1        7.1070   34.3080   21.4960 C.ar   41  HIS41       0.1986
     24  NE2        7.3090   35.6200   21.4790 N.ar   41  HIS41      -0.2212
     25  N          6.7690   35.8130   17.1250 N.am   42  CYS42      -0.1970
     26  CA         7.8890   36.6630   16.7200 C.3    42  CYS42       0.1712
     27  C          7.5110   37.5550   15.5450 C.2    42  CYS42       0.2296
     28  O          8.1570   38.5780   15.3360 O.2    42  CYS42      -0.2864
     29  CB         9.1030   35.8110   16.3590 C.3    42  CYS42       0.0983
     30  SG         9.9060   35.0090   17.7640 S.3    42  CYS42      -0.0798
     31  N          4.2300   38.6490   14.7560 N.3    44  ASP44      -0.1225
     32  CA         2.9790   39.3760   15.0120 C.3    44  ASP44       0.1805
     33  C          2.9970   40.8470   14.5940 C.2    44  ASP44       0.2597
     34  O          1.9790   41.3530   14.1350 O.2    44  ASP44      -0.2718
     35  CB         2.6350   39.3270   16.5090 C.3    44  ASP44       0.1424
     36  CG         1.8590   38.1150   16.9260 C.2    44  ASP44       0.3668
     37  OD1        1.8700   37.1180   16.1700 O.co2  44  ASP44      -0.2456
     38  OD2        1.2210   38.1610   18.0040 O.co2  44  ASP44      -0.2456
     39  N          4.1410   41.5320   14.7910 N.am   45  LYS45      -0.1979
     40  CA         4.3230   42.9620   14.5230 C.3    45  LYS45       0.1596
     41  C          5.1730   43.2460   13.2930 C.2    45  LYS45       0.2287
     42  O          5.5850   44.3870   13.1160 O.2    45  LYS45      -0.2864
     43  CB         4.8870   43.6800   15.7780 C.3    45  LYS45       0.0298
     44  CG         3.9140   43.6820   16.9690 C.3    45  LYS45       0.0038
     45  CD         4.5670   44.1650   18.2630 C.3    45  LYS45       0.0206
     46  CE         3.7280   43.8990   19.4920 C.3    45  LYS45       0.1093
     47  NZ         4.4990   44.1390   20.7470 N.3    45  LYS45      -0.1314
     48  N         -1.3480   37.5720   19.1370 N.3    85  GLY85      -0.1210
     49  CA        -1.5900   38.1260   20.4650 C.3    85  GLY85       0.1956
     50  C         -1.9650   37.1110   21.5190 C.2    85  GLY85       0.2613
     51  O         -2.2070   37.4910   22.6660 O.2    85  GLY85      -0.2717
     52  N         -2.0220   35.8070   21.1470 N.am   86  THR86      -0.1938
     53  CA        -2.3320   34.7140   22.0790 C.3    86  THR86       0.2028
     54  C         -1.1170   33.7580   22.2080 C.2    86  THR86       0.2642
     55  O         -0.0520   34.0320   21.6490 O.2    86  THR86      -0.2714
     56  CB        -3.6610   34.0400   21.7420 C.3    86  THR86       0.1808
     57  OG1       -3.4990   33.3290   20.5290 O.3    86  THR86      -0.2208
     58  CG2       -4.8410   35.0540   21.6290 C.3    86  THR86       0.0379
     59  N         -1.2720   32.6820   23.0010 N.am   87  THR87      -0.1950
     60  CA        -0.2340   31.7200   23.3790 C.3    87  THR87       0.1897
     61  C         -0.1830   30.4050   22.5980 C.2    87  THR87       0.2313
     62  O          0.9050   29.8860   22.4040 O.2    87  THR87      -0.2863
     63  CB        -0.3640   31.3760   24.8910 C.3    87  THR87       0.1794
     64  OG1       -1.6630   30.8440   25.1220 O.3    87  THR87      -0.2208
     65  CG2       -0.1510   32.5710   25.7980 C.3    87  THR87       0.0378
     66  N          2.2600   28.1580   19.0760 N.3    90  ASP90      -0.1239
     67  CA         3.3300   29.1380   18.9160 C.3    90  ASP90       0.1674
     68  C          4.5850   28.5670   18.2460 C.2    90  ASP90       0.2266
     69  O          5.6340   28.3890   18.8770 O.2    90  ASP90      -0.2867
     70  CB         3.6530   29.8080   20.2640 C.3    90  ASP90       0.1410
     71  CG         4.4760   31.0670   20.1270 C.2    90  ASP90       0.3668
     72  OD1        4.4770   31.6680   19.0160 O.co2  90  ASP90      -0.2456
     73  OD2        5.1330   31.4450   21.1100 O.co2  90  ASP90      -0.2456
     74  N         -3.1390   32.6890   31.6600 N.3   166  PRO166     -0.2116
     75  CA        -3.4450   31.8190   30.5090 C.3   166  PRO166      0.1372
     76  C         -3.1800   30.3450   30.8220 C.2   166  PRO166      0.2244
     77  O         -2.2640   30.0240   31.5870 O.2   166  PRO166     -0.2868
     78  CB        -2.5290   32.3440   29.3880 C.3   166  PRO166      0.0268
     79  CG        -1.8610   33.5760   29.9350 C.3   166  PRO166      0.0207
     80  CD        -1.9000   33.4540   31.4250 C.3   166  PRO166      0.0892
     81  N         15.6920   31.7100   34.1070 N.3   183  ASP183     -0.1225
     82  CA        14.5910   31.7050   33.1410 C.3   183  ASP183      0.1805
     83  C         15.0130   32.0900   31.7260 C.2   183  ASP183      0.2598
     84  O         16.0740   32.6840   31.5230 O.2   183  ASP183     -0.2718
     85  CB        13.4710   32.6790   33.6170 C.3   183  ASP183      0.1424
     86  CG        12.0440   32.3450   33.1770 C.2   183  ASP183      0.3668
     87  OD1       11.8310   31.2400   32.5890 O.co2 183  ASP183     -0.2456
     88  OD2       11.1410   33.1970   33.3870 O.co2 183  ASP183     -0.2456
     89  N         14.1520   31.7710   30.7510 N.am  184  SER184     -0.1938
     90  CA        14.2810   32.2550   29.3790 C.3   184  SER184      0.2055
     91  C         13.4210   33.5380   29.3980 C.2   184  SER184      0.2643
     92  O         12.4630   33.5950   30.1750 O.2   184  SER184     -0.2714
     93  CB        13.7160   31.2510   28.3790 C.3   184  SER184      0.2130
     94  OG        12.3420   30.9880   28.6190 O.3   184  SER184     -0.2179
     95  N         13.7680   34.5580   28.5930 N.am  185  CYS185     -0.1953
     96  CA        12.9700   35.7830   28.5550 C.3   185  CYS185      0.1843
     97  C         12.4560   36.0860   27.1550 C.2   185  CYS185      0.2625
     98  O         12.7180   35.3150   26.2380 O.2   185  CYS185     -0.2714
     99  CB        13.7100   36.9630   29.1800 C.3   185  CYS185      0.0997
    100  SG        13.2540   37.2710   30.9070 S.3   185  CYS185     -0.0797
    101  N         11.6750   37.1770   26.9970 N.am  186  LYS186     -0.1977
    102  CA        11.0390   37.5650   25.7440 C.3   186  LYS186      0.1596
    103  C         12.0180   37.6900   24.5450 C.2   186  LYS186      0.2287
    104  O         11.6230   37.3210   23.4430 O.2   186  LYS186     -0.2864
    105  CB        10.1660   38.8190   25.9150 C.3   186  LYS186      0.0298
    106  CG        10.8710   40.1430   26.0870 C.3   186  LYS186      0.0038
    107  CD         9.8310   41.2460   26.1970 C.3   186  LYS186      0.0206
    108  CE        10.4240   42.6340   26.2820 C.3   186  LYS186      0.1093
    109  NZ         9.3560   43.6710   26.3430 N.3   186  LYS186     -0.1314
    110  N         12.6620   34.3870   22.8590 N.3   189  SER189     -0.1217
    111  CA        11.5080   33.9000   22.0890 C.3   189  SER189      0.1889
    112  C         11.9630   33.2800   20.7730 C.2   189  SER189      0.2288
    113  O         12.7830   33.8680   20.0610 O.2   189  SER189     -0.2866
    114  CB        10.5660   35.0490   21.7550 C.3   189  SER189      0.2089
    115  OG         9.7780   35.4290   22.8690 O.3   189  SER189     -0.2183
    116  N         11.2150   28.4650   22.8730 N.3   207  VAL207     -0.1231
    117  CA        11.0170   29.5290   23.8890 C.3   207  VAL207      0.1692
    118  C          9.7540   30.2960   23.4520 C.2   207  VAL207      0.2593
    119  O          9.7330   30.8850   22.3680 O.2   207  VAL207     -0.2718
    120  CB        12.2390   30.4890   23.9910 C.3   207  VAL207      0.0266
    121  CG1       11.9980   31.5640   25.0470 C.3   207  VAL207      0.0020
    122  CG2       13.5320   29.7240   24.2670 C.3   207  VAL207      0.0020
    123  N          8.6870   30.2000   24.2390 N.am  208  SER208     -0.1938
    124  CA         7.3870   30.7460   23.8540 C.3   208  SER208      0.2055
    125  C          6.8920   31.9030   24.7530 C.2   208  SER208      0.2643
    126  O          6.8620   33.0440   24.2910 O.2   208  SER208     -0.2714
    127  CB         6.3730   29.6060   23.7750 C.3   208  SER208      0.2130
    128  OG         5.0900   30.0230   23.3510 O.3   208  SER208     -0.2179
    129  N          6.4850   31.6250   26.0080 N.am  209  TRP209     -0.1959
    130  CA         5.9760   32.6690   26.9110 C.3   209  TRP209      0.1771
    131  C          6.1640   32.3610   28.4200 C.2   209  TRP209      0.2620
    132  O          6.7680   31.3610   28.8030 O.2   209  TRP209     -0.2715
    133  CB         4.5110   33.0170   26.5900 C.3   209  TRP209      0.0590
    134  CG         3.5550   31.8740   26.7550 C.ar  209  TRP209      0.0006
    135  CD1        3.3480   30.8430   25.8870 C.ar  209  TRP209      0.0946
    136  CD2        2.6540   31.6660   27.8500 C.ar  209  TRP209      0.0152
    137  NE1        2.4330   29.9620   26.4090 N.ar  209  TRP209     -0.2442
    138  CE2        1.9830   30.4450   27.6130 C.ar  209  TRP209      0.0810
    139  CE3        2.3760   32.3750   29.0360 C.ar  209  TRP209      0.0012
    140  CZ2        1.0010   29.9460   28.4890 C.ar  209  TRP209      0.0191
    141  CZ3        1.4570   31.8410   29.9340 C.ar  209  TRP209      0.0001
    142  CH2        0.7810   30.6410   29.6550 C.ar  209  TRP209      0.0015
    143  N          5.6890   33.2930   29.2380 N.am  210  GLY210     -0.1954
    144  CA         5.7020   33.2510   30.6910 C.3   210  GLY210      0.1869
    145  C          4.9620   34.4600   31.2200 C.2   210  GLY210      0.2309
    146  O          4.5170   35.3040   30.4290 O.2   210  GLY210     -0.2863
    147  N          6.0060   37.1600   32.9420 N.3   212  GLY212     -0.1210
    148  CA         7.0790   38.0650   33.3260 C.3   212  GLY212      0.1956
    149  C          8.3830   37.3170   33.4300 C.2   212  GLY212      0.2612
    150  O          8.3930   36.1340   33.7970 O.2   212  GLY212     -0.2717
    151  N          9.4840   38.0180   33.0940 N.am  213  CYS213     -0.1970
    152  CA        10.8420   37.4630   33.0890 C.3   213  CYS213      0.1712
    153  C         11.3320   37.1040   34.4890 C.2   213  CYS213      0.2296
    154  O         11.4080   37.9610   35.3710 O.2   213  CYS213     -0.2864
    155  CB        11.8230   38.3790   32.3550 C.3   213  CYS213      0.0983
    156  SG        11.6110   38.4160   30.5500 S.3   213  CYS213     -0.0798
    157  N          6.8760   29.5440   35.9690 N.3   219  PHE219     -0.1227
    158  CA         7.7480   28.7660   35.0870 C.3   219  PHE219      0.1736
    159  C          7.6910   29.2670   33.6380 C.2   219  PHE219      0.2596
    160  O          6.7570   29.9810   33.2560 O.2   219  PHE219     -0.2718
    161  CB         7.3490   27.2760   35.1400 C.3   219  PHE219      0.0547
    162  CG         7.5350   26.6030   36.4790 C.ar  219  PHE219     -0.0202
    163  CD1        8.7740   26.0890   36.8530 C.ar  219  PHE219     -0.0042
    164  CD2        6.4730   26.4880   37.3720 C.ar  219  PHE219     -0.0042
    165  CE1        8.9490   25.4710   38.0980 C.ar  219  PHE219     -0.0003
    166  CE2        6.6470   25.8700   38.6170 C.ar  219  PHE219     -0.0003
    167  CZ         7.8860   25.3720   38.9750 C.ar  219  PHE219     -0.0000
    168  N          8.6990   28.8800   32.8470 N.am  220  GLY220     -0.1942
    169  CA         8.7490   29.1840   31.4220 C.3   220  GLY220      0.2014
    170  C          7.7960   28.2730   30.6780 C.2   220  GLY220      0.2638
    171  O          7.5660   27.1430   31.0930 O.2   220  GLY220     -0.2714
    172  N          7.1790   28.7690   29.6220 N.am  221  VAL221     -0.1977
    173  CA         6.2750   27.9660   28.8010 C.3   221  VAL221      0.1596
    174  C          6.9110   27.8320   27.4030 C.2   221  VAL221      0.2287
    175  O          7.3880   28.8170   26.8190 O.2   221  VAL221     -0.2864
    176  CB         4.7950   28.4400   28.7870 C.3   221  VAL221      0.0276
    177  CG1        3.9010   27.3910   28.1400 C.3   221  VAL221      0.0022
    178  CG2        4.2940   28.7530   30.2050 C.3   221  VAL221      0.0022
@<TRIPOS>BOND
     1    42    41    2
     2    41    40    1
     3     8     6    1
     4    34    33    2
     5    40    39    1
     6    40    43    1
     7    33    39   am
     8    33    32    1
     9    31    32    1
    10    32    35    1
    11     6     5    1
    12     6     7    1
    13    28    27    2
    14     5     2    1
    15    27    26    1
    16    43    44    1
    17    37    36   ar
    18    29    26    1
    19    29    30    1
    20    35    36    1
    21    26    25    1
    22     1     2    1
    23     2     3    1
    24    36    38   ar
    25    44    45    1
    26    12    11    2
    27    25    17   am
    28    15    16    1
    29     9     3   am
    30     9    10    1
    31    13    10    1
    32    13    14    1
    33    17    18    2
    34    17    16    1
    35     3     4    2
    36    30    14    1
    37    11    10    1
    38    16    19    1
    39    68    69    2
    40    68    67    1
    41    45    46    1
    42    67    66    1
    43    67    70    1
    44    72    71   ar
    45    48    49    1
    46    19    20    1
    47    46    47    1
    48   113   112    2
    49    71    70    1
    50    71    73   ar
    51    20    22   ar
    52    20    21   ar
    53    49    50    1
    54    57    56    1
    55    22    24   ar
    56   112   111    1
    57    21    23   ar
    58    52    50   am
    59    52    53    1
    60    24    23   ar
    61    50    51    2
    62    58    56    1
    63    55    54    2
    64    56    53    1
    65   114   111    1
    66   114   115    1
    67    53    54    1
    68   111   110    1
    69    54    59   am
    70   119   118    2
    71    62    61    2
    72    61    60    1
    73   116   117    1
    74    59    60    1
    75   128   127    1
    76    60    63    1
    77   104   103    2
    78   118   117    1
    79   118   123   am
    80   127   124    1
    81   124   123    1
    82   124   125    1
    83   117   120    1
    84   120   122    1
    85   120   121    1
    86   126   125    2
    87   103   102    1
    88   125   129   am
    89    63    64    1
    90    63    65    1
    91   102   105    1
    92   102   101    1
    93   135   137   ar
    94   135   134   ar
    95   105   106    1
    96   129   130    1
    97   106   107    1
    98   107   108    1
    99    98    97    2
   100   108   109    1
   101   137   138   ar
   102   133   134    1
   103   133   130    1
   104   134   136   ar
   105   175   174    2
   106   130   131    1
   107   101    97   am
   108    97    96    1
   109   174   173    1
   110   138   136   ar
   111   138   140   ar
   112   136   139   ar
   113   177   176    1
   114    93    94    1
   115    93    90    1
   116   131   132    2
   117   131   143   am
   118   140   142   ar
   119    96    95    1
   120    96    99    1
   121    95    91   am
   122   176   173    1
   123   176   178    1
   124   173   172    1
   125   139   141   ar
   126    99   100    1
   127   143   144    1
   128    90    91    1
   129    90    89    1
   130    78    79    1
   131    78    75    1
   132    91    92    2
   133   172   170   am
   134   142   141   ar
   135    79    80    1
   136   146   145    2
   137    75    76    1
   138    75    74    1
   139   156   100    1
   140   156   155    1
   141   170   171    2
   142   170   169    1
   143   144   145    1
   144    89    83   am
   145    76    77    2
   146   169   168    1
   147    80    74    1
   148    84    83    2
   149    83    82    1
   150   155   152    1
   151    87    86   ar
   152   168   159   am
   153   147   148    1
   154   152   151    1
   155   152   153    1
   156   151   149   am
   157    82    85    1
   158    82    81    1
   159    86    88   ar
   160    86    85    1
   161   160   159    2
   162   148   149    1
   163   149   150    2
   164   159   158    1
   165   153   154    2
   166   158   161    1
   167   158   157    1
   168   161   162    1
   169   162   163   ar
   170   162   164   ar
   171   163   165   ar
   172   164   166   ar
   173   165   167   ar
   174   166   167   ar
