@<TRIPOS>MOLECULE
tmp/5u6nB01.pdb
 183 181 0 0 0
SMALL
GASTEIGER

@<TRIPOS>ATOM
      1  N         55.2850   75.3950   75.9230 N.3    13  TYR13      -0.1228
      2  CA        54.1310   74.5510   76.1520 C.3    13  TYR13       0.1721
      3  C         53.0580   74.8970   75.1090 C.2    13  TYR13       0.2437
      4  O         52.8050   76.0820   74.8470 O.2    13  TYR13      -0.2733
      5  CB        53.6030   74.7740   77.5760 C.3    13  TYR13       0.0547
      6  CG        52.4880   73.8000   77.9480 C.ar   13  TYR13      -0.0200
      7  CD1       51.1610   74.1230   77.7080 C.ar   13  TYR13      -0.0009
      8  CD2       52.7650   72.5570   78.5250 C.ar   13  TYR13      -0.0009
      9  CE1       50.1180   73.2290   78.0360 C.ar   13  TYR13       0.0417
     10  CE2       51.7320   71.6700   78.8610 C.ar   13  TYR13       0.0417
     11  CZ        50.4160   72.0160   78.6120 C.ar   13  TYR13       0.1957
     12  OH        49.3950   71.1200   78.9150 O.3    13  TYR13      -0.2866
     13  N         52.3930   73.8590   74.4560 N.am   14  PRO14      -0.2718
     14  CA        51.5390   74.1260   73.2600 C.3    14  PRO14       0.1535
     15  C         50.1700   74.6960   73.6140 C.2    14  PRO14       0.2599
     16  O         49.1260   74.0490   73.4440 O.2    14  PRO14      -0.2715
     17  CB        51.4470   72.7380   72.6070 C.3    14  PRO14       0.0310
     18  CG        51.6500   71.7550   73.7280 C.3    14  PRO14       0.0237
     19  CD        52.5950   72.4190   74.7040 C.3    14  PRO14       0.0939
     20  N         50.1670   75.9370   74.0910 N.am   15  SER15      -0.1936
     21  CA        48.9450   76.6610   74.3920 C.3    15  SER15       0.2055
     22  C         49.2400   78.1110   74.1000 C.2    15  SER15       0.2642
     23  O         50.3980   78.4970   73.9990 O.2    15  SER15      -0.2714
     24  CB        48.5140   76.5140   75.8480 C.3    15  SER15       0.2130
     25  OG        49.4340   77.2760   76.6390 O.3    15  SER15      -0.2179
     26  N         48.1770   78.9030   73.9660 N.am   16  GLN16      -0.1976
     27  CA        48.3080   80.2850   73.5100 C.3    16  GLN16       0.1601
     28  C         49.0930   81.1310   74.4920 C.2    16  GLN16       0.2287
     29  O         49.8750   82.0030   74.0870 O.2    16  GLN16      -0.2864
     30  CB        46.9260   80.9130   73.3210 C.3    16  GLN16       0.0394
     31  CG        46.9790   82.3210   72.7650 C.3    16  GLN16       0.0908
     32  CD        47.2660   82.3230   71.2780 C.2    16  GLN16       0.2608
     33  OE1       46.4600   81.8480   70.4840 O.2    16  GLN16      -0.2717
     34  NE2       48.4570   82.8070   70.8960 N.am   16  GLN16      -0.0878
     35  N         50.0370   69.3180   65.7120 N.3    43  PHE43      -0.1227
     36  CA        48.6270   69.6960   65.7910 C.3    43  PHE43       0.1736
     37  C         48.4600   71.2030   65.8260 C.2    43  PHE43       0.2595
     38  O         47.5880   71.7600   65.1510 O.2    43  PHE43      -0.2718
     39  CB        47.9380   69.0900   67.0200 C.3    43  PHE43       0.0547
     40  CG        46.4850   69.5270   67.1510 C.ar   43  PHE43      -0.0202
     41  CD1       45.4990   68.9300   66.3720 C.ar   43  PHE43      -0.0042
     42  CD2       46.1190   70.5720   67.9940 C.ar   43  PHE43      -0.0042
     43  CE1       44.1620   69.3340   66.4530 C.ar   43  PHE43      -0.0003
     44  CE2       44.7760   70.9750   68.0960 C.ar   43  PHE43      -0.0003
     45  CZ        43.7970   70.3570   67.3160 C.ar   43  PHE43      -0.0000
     46  N         49.2600   71.8850   66.6430 N.am   44  VAL44      -0.1980
     47  CA        49.1150   73.3330   66.7100 C.3    44  VAL44       0.1595
     48  C         49.5240   73.9720   65.3810 C.2    44  VAL44       0.2287
     49  O         48.8430   74.8780   64.8780 O.2    44  VAL44      -0.2864
     50  CB        49.9130   73.8900   67.9110 C.3    44  VAL44       0.0276
     51  CG1       50.1690   75.4070   67.7610 C.3    44  VAL44       0.0022
     52  CG2       49.1570   73.5730   69.2200 C.3    44  VAL44       0.0022
     53  N         45.4020   67.9620   72.1310 N.3    70  PHE70      -0.1227
     54  CA        45.1740   67.6500   73.5400 C.3    70  PHE70       0.1736
     55  C         43.8020   67.0110   73.7810 C.2    70  PHE70       0.2595
     56  O         43.6860   66.0940   74.6040 O.2    70  PHE70      -0.2718
     57  CB        45.3210   68.9090   74.4100 C.3    70  PHE70       0.0547
     58  CG        44.8720   68.6950   75.8440 C.ar   70  PHE70      -0.0202
     59  CD1       43.5260   68.8480   76.1990 C.ar   70  PHE70      -0.0042
     60  CD2       45.7680   68.2650   76.8170 C.ar   70  PHE70      -0.0042
     61  CE1       43.0800   68.5950   77.5120 C.ar   70  PHE70      -0.0003
     62  CE2       45.3230   68.0150   78.1390 C.ar   70  PHE70      -0.0003
     63  CZ        43.9790   68.1910   78.4730 C.ar   70  PHE70      -0.0000
     64  N         42.7600   67.4370   73.0470 N.am   71  GLU71      -0.1979
     65  CA        41.4290   66.9060   73.3370 C.3    71  GLU71       0.1602
     66  C         41.3200   65.4260   73.0250 C.2    71  GLU71       0.2287
     67  O         40.4090   64.7630   73.5390 O.2    71  GLU71      -0.2864
     68  CB        40.3330   67.6830   72.5940 C.3    71  GLU71       0.0415
     69  CG        40.0800   69.0650   73.2040 C.3    71  GLU71       0.1163
     70  CD        39.7680   69.0310   74.7090 C.2    71  GLU71       0.3649
     71  OE1       39.1440   68.0490   75.1820 O.co2  71  GLU71      -0.2457
     72  OE2       40.1280   70.0030   75.4200 O.co2  71  GLU71      -0.2457
     73  N         45.0340   64.3300   81.2800 N.3    76  ILE76      -0.1245
     74  CA        46.2020   65.2110   81.3430 C.3    76  ILE76       0.1561
     75  C         47.4680   64.3960   81.5990 C.2    76  ILE76       0.2260
     76  O         48.5050   64.6090   80.9490 O.2    76  ILE76      -0.2867
     77  CB        46.0120   66.2950   82.4220 C.3    76  ILE76       0.0252
     78  CG1       44.9260   67.2970   82.0470 C.3    76  ILE76       0.0019
     79  CG2       47.3150   67.0580   82.7120 C.3    76  ILE76       0.0019
     80  CD1       44.3630   67.9470   83.3300 C.3    76  ILE76       0.0001
     81  N         48.6300   62.8020   78.5100 N.3    79  TYR79      -0.1241
     82  CA        49.1330   63.8120   77.5850 C.3    79  TYR79       0.1605
     83  C         50.5610   64.2340   77.9290 C.2    79  TYR79       0.2264
     84  O         51.4380   64.2400   77.0620 O.2    79  TYR79      -0.2867
     85  CB        48.2230   65.0220   77.6020 C.3    79  TYR79       0.0534
     86  CG        48.7020   66.0840   76.6360 C.ar   79  TYR79      -0.0201
     87  CD1       48.4950   65.9530   75.2640 C.ar   79  TYR79      -0.0009
     88  CD2       49.3490   67.2200   77.0970 C.ar   79  TYR79      -0.0009
     89  CE1       48.9170   66.9430   74.3820 C.ar   79  TYR79       0.0417
     90  CE2       49.7730   68.2100   76.2280 C.ar   79  TYR79       0.0417
     91  CZ        49.5760   68.0520   74.8760 C.ar   79  TYR79       0.1957
     92  OH        50.0060   69.0420   74.0370 O.3    79  TYR79      -0.2866
     93  N         43.3080   68.2350   89.5620 N.3   177  TYR177     -0.1241
     94  CA        44.3450   68.2550   88.5330 C.3   177  TYR177      0.1605
     95  C         45.7070   67.8220   89.0810 C.2   177  TYR177      0.2264
     96  O         46.6890   68.5660   88.9450 O.2   177  TYR177     -0.2867
     97  CB        44.4470   69.6410   87.9180 C.3   177  TYR177      0.0534
     98  CG        43.1810   70.1800   87.3410 C.ar  177  TYR177     -0.0201
     99  CD1       42.6570   69.6410   86.1700 C.ar  177  TYR177     -0.0009
    100  CD2       42.5060   71.2440   87.9580 C.ar  177  TYR177     -0.0009
    101  CE1       41.4840   70.1300   85.6270 C.ar  177  TYR177      0.0417
    102  CE2       41.3450   71.7480   87.4190 C.ar  177  TYR177      0.0417
    103  CZ        40.8420   71.1850   86.2410 C.ar  177  TYR177      0.1957
    104  OH        39.6850   71.6560   85.6730 O.3   177  TYR177     -0.2866
    105  N         48.7780   68.3270   86.6930 N.3   180  TYR180     -0.1241
    106  CA        49.3170   69.6790   86.5620 C.3   180  TYR180      0.1605
    107  C         49.9540   70.1740   87.8580 C.2   180  TYR180      0.2264
    108  O         50.8940   70.9810   87.8070 O.2   180  TYR180     -0.2867
    109  CB        48.2490   70.6750   86.1490 C.3   180  TYR180      0.0534
    110  CG        47.9280   70.6970   84.6310 C.ar  180  TYR180     -0.0201
    111  CD1       48.8900   70.3910   83.6540 C.ar  180  TYR180     -0.0009
    112  CD2       46.6560   71.0390   84.2200 C.ar  180  TYR180     -0.0009
    113  CE1       48.5700   70.4100   82.3090 C.ar  180  TYR180      0.0417
    114  CE2       46.3240   71.0800   82.9040 C.ar  180  TYR180      0.0417
    115  CZ        47.2550   70.7670   81.9420 C.ar  180  TYR180      0.1957
    116  OH        46.7550   70.8460   80.6250 O.3   180  TYR180     -0.2866
    117  N         46.0680   80.9050   68.0000 N.3   245  LEU245     -0.1231
    118  CA        45.4300   79.6040   67.9260 C.3   245  LEU245      0.1693
    119  C         43.9320   79.7150   67.7280 C.2   245  LEU245      0.2592
    120  O         43.2590   78.6810   67.6450 O.2   245  LEU245     -0.2718
    121  CB        45.7020   78.7840   69.2000 C.3   245  LEU245      0.0284
    122  CG        47.0160   77.9900   69.2660 C.3   245  LEU245      0.0019
    123  CD1       48.2130   78.9050   69.1190 C.3   245  LEU245      0.0001
    124  CD2       47.1130   77.2280   70.6020 C.3   245  LEU245      0.0001
    125  N         43.3880   80.9280   67.7180 N.am  246  PHE246     -0.1976
    126  CA        41.9530   81.1420   67.5550 C.3   246  PHE246      0.1639
    127  C         41.7380   82.0990   66.3960 C.2   246  PHE246      0.2290
    128  O         42.4000   83.1400   66.3140 O.2   246  PHE246     -0.2864
    129  CB        41.3060   81.7050   68.8310 C.3   246  PHE246      0.0560
    130  CG        41.3910   80.7870   70.0240 C.ar  246  PHE246     -0.0200
    131  CD1       42.5730   80.6850   70.7600 C.ar  246  PHE246     -0.0042
    132  CD2       40.2930   80.0350   70.4180 C.ar  246  PHE246     -0.0042
    133  CE1       42.6580   79.8390   71.8590 C.ar  246  PHE246     -0.0003
    134  CE2       40.3650   79.1770   71.5240 C.ar  246  PHE246     -0.0003
    135  CZ        41.5520   79.0810   72.2470 C.ar  246  PHE246     -0.0000
    136  N         42.2860   81.7840   76.9480 N.3   273  SER273     -0.1202
    137  CA        42.1890   80.7780   75.8950 C.3   273  SER273      0.2020
    138  C         41.6590   79.4160   76.3530 C.2   273  SER273      0.2618
    139  O         41.4600   78.5350   75.5080 O.2   273  SER273     -0.2717
    140  CB        43.5670   80.5860   75.2410 C.3   273  SER273      0.2103
    141  OG        44.5050   80.0220   76.1540 O.3   273  SER273     -0.2182
    142  N         41.4320   79.1940   77.6440 N.am  274  MET274     -0.1979
    143  CA        41.0740   77.8340   78.0250 C.3   274  MET274      0.1605
    144  C         40.1760   77.7130   79.2470 C.2   274  MET274      0.2287
    145  O         39.5390   76.6690   79.4220 O.2   274  MET274     -0.2864
    146  CB        42.3370   77.0010   78.2540 C.3   274  MET274      0.0413
    147  CG        43.1950   77.4370   79.4220 C.3   274  MET274      0.0598
    148  SD        44.5780   76.2810   79.5640 S.3   274  MET274     -0.1393
    149  CE        45.6380   76.8580   78.2530 C.3   274  MET274      0.0692
    150  N         37.0720   77.6210   81.4760 N.3   276  GLN276     -0.1245
    151  CA        35.6930   77.3400   81.1160 C.3   276  GLN276      0.1566
    152  C         34.7900   77.6860   82.2840 C.2   276  GLN276      0.2260
    153  O         35.0760   77.3400   83.4370 O.2   276  GLN276     -0.2867
    154  CB        35.5050   75.8670   80.7320 C.3   276  GLN276      0.0367
    155  CG        36.1740   75.4860   79.4290 C.3   276  GLN276      0.0905
    156  CD        36.4280   73.9950   79.3300 C.2   276  GLN276      0.2608
    157  OE1       37.5750   73.5560   79.1750 O.2   276  GLN276     -0.2717
    158  NE2       35.3610   73.2030   79.4360 N.am  276  GLN276     -0.0878
    159  N         34.2010   82.5130   74.1250 N.3   299  ARG299     -0.1245
    160  CA        34.7960   81.5840   73.1720 C.3   299  ARG299      0.1563
    161  C         33.7050   80.6940   72.5790 C.2   299  ARG299      0.2260
    162  O         32.6930   80.4160   73.2270 O.2   299  ARG299     -0.2867
    163  CB        35.8930   80.7500   73.8490 C.3   299  ARG299      0.0307
    164  CG        37.2330   81.4800   73.9860 C.3   299  ARG299      0.0489
    165  CD        38.3950   80.5490   74.3840 C.3   299  ARG299      0.2205
    166  NE        37.9440   79.4560   75.2440 N.pl3 299  ARG299     -0.0865
    167  CZ        37.8510   79.5180   76.5690 C.cat 299  ARG299      0.5346
    168  NH1       38.1990   80.6330   77.2120 N.pl3 299  ARG299      0.1354
    169  NH2       37.4080   78.4630   77.2490 N.pl3 299  ARG299      0.1354
    170  N         41.5050   79.3000   88.3460 N.3   364  TRP364     -0.1241
    171  CA        42.3120   78.1640   88.7780 C.3   364  TRP364      0.1605
    172  C         43.7730   78.4590   88.4830 C.2   364  TRP364      0.2264
    173  O         44.1270   79.5500   88.0380 O.2   364  TRP364     -0.2867
    174  CB        41.8510   76.8760   88.0970 C.3   364  TRP364      0.0550
    175  CG        42.1940   76.7990   86.6550 C.ar  364  TRP364      0.0003
    176  CD1       41.9260   77.7280   85.6920 C.ar  364  TRP364      0.0946
    177  CD2       42.8690   75.7220   86.0000 C.ar  364  TRP364      0.0152
    178  NE1       42.3950   77.2880   84.4670 N.ar  364  TRP364     -0.2442
    179  CE2       42.9890   76.0660   84.6360 C.ar  364  TRP364      0.0810
    180  CE3       43.4050   74.5070   86.4380 C.ar  364  TRP364      0.0012
    181  CZ2       43.6110   75.2350   83.7080 C.ar  364  TRP364      0.0191
    182  CZ3       44.0180   73.6810   85.5140 C.ar  364  TRP364      0.0001
    183  CH2       44.1160   74.0510   84.1590 C.ar  364  TRP364      0.0015
@<TRIPOS>BOND
     1    49    48    2
     2    38    37    2
     3    48    47    1
     4    35    36    1
     5    36    37    1
     6    36    39    1
     7    37    46   am
     8   128   127    2
     9    41    43   ar
    10    41    40   ar
    11   127   126    1
    12    43    45   ar
    13    46    47    1
    14    47    50    1
    15    39    40    1
    16    40    42   ar
    17    45    44   ar
    18   126   125    1
    19   126   129    1
    20   120   119    2
    21   125   119   am
    22   119   118    1
    23    51    50    1
    24    50    52    1
    25   118   117    1
    26   118   121    1
    27    42    44   ar
    28   129   130    1
    29   123   122    1
    30   121   122    1
    31   122   124    1
    32   130   132   ar
    33   130   131   ar
    34   132   134   ar
    35    33    32    2
    36   131   133   ar
    37    34    32   am
    38    32    31    1
    39   134   135   ar
    40   133   135   ar
    41    53    54    1
    42   161   160    1
    43   161   162    2
    44    68    69    1
    45    68    65    1
    46    17    14    1
    47    17    18    1
    48    31    30    1
    49    66    65    1
    50    66    67    2
    51    64    65    1
    52    64    55   am
    53   160   163    1
    54   160   159    1
    55    69    70    1
    56    14    15    1
    57    14    13    1
    58    30    27    1
    59    16    15    2
    60    27    26    1
    61    27    28    1
    62    54    55    1
    63    54    57    1
    64    15    20   am
    65    18    19    1
    66    55    56    2
    67   163   164    1
    68    26    22   am
    69   164   165    1
    70    23    22    2
    71    92    91    1
    72    29    28    2
    73    20    21    1
    74    22    21    1
    75    89    91   ar
    76    89    87   ar
    77   165   166    1
    78    21    24    1
    79    57    58    1
    80    13    19    1
    81    13     3   am
    82    70    71   ar
    83    70    72   ar
    84     4     3    2
    85    91    90   ar
    86     3     2    1
    87   140   137    1
    88   140   141    1
    89   166   167    2
    90    87    86   ar
    91   139   138    2
    92    58    59   ar
    93    58    60   ar
    94    24    25    1
    95   137   138    1
    96   137   136    1
    97     1     2    1
    98     2     5    1
    99    59    61   ar
   100    90    88   ar
   101   138   142   am
   102   167   168    1
   103   167   169    1
   104    86    88   ar
   105    86    85    1
   106    60    62   ar
   107    84    83    2
   108    61    63   ar
   109     5     6    1
   110    82    85    1
   111    82    83    1
   112    82    81    1
   113   142   143    1
   114     7     6   ar
   115     7     9   ar
   116     6     8   ar
   117   143   146    1
   118   143   144    1
   119     9    11   ar
   120    62    63   ar
   121   149   148    1
   122   146   147    1
   123     8    10   ar
   124    11    10   ar
   125    11    12    1
   126   157   156    2
   127   144   145    2
   128   156   155    1
   129   156   158   am
   130   147   148    1
   131   155   154    1
   132   116   115    1
   133   154   151    1
   134    76    75    2
   135   151   150    1
   136   151   152    1
   137    73    74    1
   138    74    75    1
   139    74    77    1
   140   115   113   ar
   141   115   114   ar
   142    78    77    1
   143    78    80    1
   144   152   153    2
   145   113   111   ar
   146    77    79    1
   147   114   112   ar
   148   111   110   ar
   149   181   183   ar
   150   181   179   ar
   151   183   182   ar
   152   112   110   ar
   153   178   179   ar
   154   178   176   ar
   155   110   109    1
   156   179   177   ar
   157   182   180   ar
   158   101    99   ar
   159   101   103   ar
   160   104   103    1
   161   176   175   ar
   162   177   180   ar
   163   177   175   ar
   164   109   106    1
   165    99    98   ar
   166   103   102   ar
   167   106   105    1
   168   106   107    1
   169   175   174    1
   170    98    97    1
   171    98   100   ar
   172   102   100   ar
   173   108   107    2
   174    97    94    1
   175   173   172    2
   176   174   171    1
   177   170   171    1
   178   172   171    1
   179    94    95    1
   180    94    93    1
   181    96    95    2
