@<TRIPOS>MOLECULE
tmp/5u6nB02.pdb
 207 203 0 0 0
SMALL
GASTEIGER

@<TRIPOS>ATOM
      1  N         50.1670   75.9370   74.0910 N.3    15  SER15      -0.1202
      2  CA        48.9450   76.6610   74.3920 C.3    15  SER15       0.2020
      3  C         49.2400   78.1110   74.1000 C.2    15  SER15       0.2619
      4  O         50.3980   78.4970   73.9990 O.2    15  SER15      -0.2717
      5  CB        48.5140   76.5140   75.8480 C.3    15  SER15       0.2103
      6  OG        49.4340   77.2760   76.6390 O.3    15  SER15      -0.2182
      7  N         48.1770   78.9030   73.9660 N.am   16  GLN16      -0.1965
      8  CA        48.3080   80.2850   73.5100 C.3    16  GLN16       0.1733
      9  C         49.0930   81.1310   74.4920 C.2    16  GLN16       0.2617
     10  O         49.8750   82.0030   74.0870 O.2    16  GLN16      -0.2715
     11  CB        46.9260   80.9130   73.3210 C.3    16  GLN16       0.0408
     12  CG        46.9790   82.3210   72.7650 C.3    16  GLN16       0.0908
     13  CD        47.2660   82.3230   71.2780 C.2    16  GLN16       0.2608
     14  OE1       46.4600   81.8480   70.4840 O.2    16  GLN16      -0.2717
     15  NE2       48.4570   82.8070   70.8960 N.am   16  GLN16      -0.0878
     16  N         48.8870   80.9050   75.7830 N.am   17  GLY17      -0.1940
     17  CA        49.5100   81.7710   76.7570 C.3    17  GLY17       0.2014
     18  C         50.9690   81.4760   77.0040 C.2    17  GLY17       0.2638
     19  O         51.6360   82.1870   77.7720 O.2    17  GLY17      -0.2714
     20  N         51.4830   80.4060   76.4000 N.am   18  HIS18      -0.1973
     21  CA        52.9040   80.0880   76.4250 C.3    18  HIS18       0.1656
     22  C         53.5690   80.3450   75.0680 C.2    18  HIS18       0.2291
     23  O         54.6840   80.8670   75.0120 O.2    18  HIS18      -0.2864
     24  CB        53.1100   78.6080   76.8440 C.3    18  HIS18       0.0771
     25  CG        52.7880   78.3240   78.2870 C.ar   18  HIS18       0.0820
     26  ND1       53.7520   77.9640   79.2160 N.ar   18  HIS18      -0.2267
     27  CD2       51.6130   78.3750   78.9690 C.ar   18  HIS18       0.1154
     28  CE1       53.1790   77.7900   80.3970 C.ar   18  HIS18       0.1986
     29  NE2       51.8840   78.0400   80.2730 N.ar   18  HIS18      -0.2212
     30  N         52.7300   82.6200   72.9120 N.3    20  THR20      -0.1218
     31  CA        52.8460   84.0650   72.7590 C.3    20  THR20       0.1862
     32  C         54.0600   84.6620   73.4650 C.2    20  THR20       0.2287
     33  O         54.8630   85.3420   72.7930 O.2    20  THR20      -0.2866
     34  CB        51.5530   84.7370   73.2130 C.3    20  THR20       0.1770
     35  OG1       50.5280   84.5410   72.2280 O.3    20  THR20      -0.2211
     36  CG2       51.7700   86.2400   73.4320 C.3    20  THR20       0.0375
     37  N         50.5970   90.4070   68.4960 N.3   241  TYR241     -0.1241
     38  CA        50.7010   88.9520   68.5150 C.3   241  TYR241      0.1605
     39  C         50.3400   88.4050   67.1330 C.2   241  TYR241      0.2264
     40  O         49.2620   88.7040   66.6070 O.2   241  TYR241     -0.2867
     41  CB        49.7770   88.3820   69.5840 C.3   241  TYR241      0.0534
     42  CG        50.1200   88.8200   70.9920 C.ar  241  TYR241     -0.0201
     43  CD1       51.4210   89.1630   71.3390 C.ar  241  TYR241     -0.0009
     44  CD2       49.1390   88.8950   71.9780 C.ar  241  TYR241     -0.0009
     45  CE1       51.7390   89.5630   72.6290 C.ar  241  TYR241      0.0417
     46  CE2       49.4500   89.3030   73.2810 C.ar  241  TYR241      0.0417
     47  CZ        50.7570   89.6310   73.5890 C.ar  241  TYR241      0.1957
     48  OH        51.1080   90.0300   74.8470 O.3   241  TYR241     -0.2866
     49  N         48.3220   83.0530   66.4740 N.3   244  ASN244     -0.1240
     50  CA        47.0780   82.9410   67.2110 C.3   244  ASN244      0.1653
     51  C         46.4650   81.5850   66.9330 C.2   244  ASN244      0.2266
     52  O         46.3580   81.1680   65.7760 O.2   244  ASN244     -0.2867
     53  CB        46.1000   84.0640   66.8460 C.3   244  ASN244      0.1155
     54  CG        46.5770   85.4240   67.3380 C.2   244  ASN244      0.2627
     55  OD1       47.1810   86.1950   66.5850 O.2   244  ASN244     -0.2716
     56  ND2       46.3310   85.7100   68.6180 N.am  244  ASN244     -0.0877
     57  N         35.5960   95.6710   79.6160 N.3   268  TYR268     -0.1241
     58  CA        36.1300   94.5530   78.8390 C.3   268  TYR268      0.1605
     59  C         36.1500   93.3020   79.7100 C.2   268  TYR268      0.2264
     60  O         36.6630   93.3290   80.8390 O.2   268  TYR268     -0.2867
     61  CB        37.5300   94.8660   78.3150 C.3   268  TYR268      0.0534
     62  CG        38.1680   93.7300   77.5480 C.ar  268  TYR268     -0.0201
     63  CD1       37.5210   93.1480   76.4540 C.ar  268  TYR268     -0.0009
     64  CD2       39.4240   93.2460   77.9040 C.ar  268  TYR268     -0.0009
     65  CE1       38.1030   92.1110   75.7480 C.ar  268  TYR268      0.0417
     66  CE2       40.0220   92.2010   77.1990 C.ar  268  TYR268      0.0417
     67  CZ        39.3580   91.6390   76.1250 C.ar  268  TYR268      0.1957
     68  OH        39.9440   90.6030   75.4280 O.3   268  TYR268     -0.2866
     69  N         37.0430   89.1440   79.5500 N.3   270  ALA270     -0.1245
     70  CA        37.6260   88.0550   78.7670 C.3   270  ALA270      0.1562
     71  C         38.2940   87.0680   79.7070 C.2   270  ALA270      0.2260
     72  O         38.8540   87.4450   80.7410 O.2   270  ALA270     -0.2867
     73  CB        38.6430   88.5540   77.7340 C.3   270  ALA270      0.0290
     74  N         40.6020   84.5250   78.6940 N.3   272  GLY272     -0.1210
     75  CA        41.7410   83.8060   78.1480 C.3   272  GLY272      0.1956
     76  C         41.3520   82.7190   77.1480 C.2   272  GLY272      0.2613
     77  O         40.2620   82.7120   76.5740 O.2   272  GLY272     -0.2717
     78  N         42.2860   81.7840   76.9480 N.am  273  SER273     -0.1938
     79  CA        42.1890   80.7780   75.8950 C.3   273  SER273      0.2055
     80  C         41.6590   79.4160   76.3530 C.2   273  SER273      0.2643
     81  O         41.4600   78.5350   75.5080 O.2   273  SER273     -0.2714
     82  CB        43.5670   80.5860   75.2410 C.3   273  SER273      0.2130
     83  OG        44.5050   80.0220   76.1540 O.3   273  SER273     -0.2179
     84  N         41.4320   79.1940   77.6440 N.am  274  MET274     -0.1962
     85  CA        41.0740   77.8340   78.0250 C.3   274  MET274      0.1736
     86  C         40.1760   77.7130   79.2470 C.2   274  MET274      0.2616
     87  O         39.5390   76.6690   79.4220 O.2   274  MET274     -0.2715
     88  CB        42.3370   77.0010   78.2540 C.3   274  MET274      0.0427
     89  CG        43.1950   77.4370   79.4220 C.3   274  MET274      0.0599
     90  SD        44.5780   76.2810   79.5640 S.3   274  MET274     -0.1393
     91  CE        45.6380   76.8580   78.2530 C.3   274  MET274      0.0692
     92  N         40.1250   78.7260   80.1110 N.am  275  ALA275     -0.1977
     93  CA        39.2710   78.6030   81.2830 C.3   275  ALA275      0.1597
     94  C         37.8210   78.5170   80.8380 C.2   275  ALA275      0.2287
     95  O         37.3930   79.2310   79.9280 O.2   275  ALA275     -0.2864
     96  CB        39.4610   79.7810   82.2490 C.3   275  ALA275      0.0319
     97  N         34.3160   88.7640   75.4650 N.3   297  VAL297     -0.1245
     98  CA        34.7180   87.6100   74.6650 C.3   297  VAL297      0.1561
     99  C         34.0920   86.3500   75.2480 C.2   297  VAL297      0.2260
    100  O         34.3200   86.0090   76.4110 O.2   297  VAL297     -0.2867
    101  CB        36.2420   87.4620   74.6040 C.3   297  VAL297      0.0252
    102  CG1       36.6160   86.2190   73.7410 C.3   297  VAL297      0.0019
    103  CG2       36.8870   88.7310   74.0690 C.3   297  VAL297      0.0019
    104  N         36.5550   85.9590   69.8220 N.3   324  TRP324     -0.1227
    105  CA        37.9700   86.1280   70.1270 C.3   324  TRP324      0.1737
    106  C         38.3620   87.5660   69.8060 C.2   324  TRP324      0.2596
    107  O         37.8850   88.1360   68.8220 O.2   324  TRP324     -0.2718
    108  CB        38.8260   85.1390   69.3180 C.3   324  TRP324      0.0564
    109  CG        40.2840   85.1120   69.6930 C.ar  324  TRP324      0.0003
    110  CD1       41.3310   85.5970   68.9590 C.ar  324  TRP324      0.0946
    111  CD2       40.8550   84.5580   70.8840 C.ar  324  TRP324      0.0152
    112  NE1       42.5200   85.3810   69.6280 N.ar  324  TRP324     -0.2442
    113  CE2       42.2510   84.7500   70.8110 C.ar  324  TRP324      0.0810
    114  CE3       40.3210   83.9200   72.0060 C.ar  324  TRP324      0.0012
    115  CZ2       43.1190   84.3230   71.8170 C.ar  324  TRP324      0.0191
    116  CZ3       41.1810   83.4960   72.9980 C.ar  324  TRP324      0.0001
    117  CH2       42.5610   83.6970   72.8990 C.ar  324  TRP324      0.0015
    118  N         39.2610   88.1300   70.6070 N.am  325  SER325     -0.1938
    119  CA        39.4720   89.5560   70.4580 C.3   325  SER325      0.2040
    120  C         40.9280   89.8610   70.1540 C.2   325  SER325      0.2485
    121  O         41.8150   89.0680   70.4790 O.2   325  SER325     -0.2729
    122  CB        39.0640   90.3120   71.7250 C.3   325  SER325      0.2129
    123  OG        39.9060   89.9700   72.8220 O.3   325  SER325     -0.2179
    124  N         41.1690   90.8570   69.5760 N.am  326  PRO326     -0.2715
    125  CA        42.5450   91.3810   69.5190 C.3   326  PRO326      0.1536
    126  C         42.8550   92.1090   70.8210 C.2   326  PRO326      0.2598
    127  O         42.8040   93.3350   70.9280 O.2   326  PRO326     -0.2715
    128  CB        42.4950   92.3280   68.3200 C.3   326  PRO326      0.0310
    129  CG        41.0700   92.8240   68.3280 C.3   326  PRO326      0.0237
    130  CD        40.2410   91.6400   68.7330 C.3   326  PRO326      0.0939
    131  N         43.1760   91.3180   71.8600 N.am  327  GLN327     -0.1964
    132  CA        43.1250   91.8480   73.2190 C.3   327  GLN327      0.1733
    133  C         44.1170   92.9800   73.4190 C.2   327  GLN327      0.2616
    134  O         43.8720   93.8800   74.2330 O.2   327  GLN327     -0.2715
    135  CB        43.3690   90.7330   74.2370 C.3   327  GLN327      0.0408
    136  CG        43.5310   91.1980   75.6830 C.3   327  GLN327      0.0908
    137  CD        43.1780   90.1220   76.6830 C.2   327  GLN327      0.2608
    138  OE1       42.0990   89.5260   76.6140 O.2   327  GLN327     -0.2717
    139  NE2       44.0960   89.8480   77.6080 N.am  327  GLN327     -0.0878
    140  N         45.2290   92.9670   72.6810 N.am  328  LEU328     -0.1977
    141  CA        46.2130   94.0380   72.7980 C.3   328  LEU328      0.1596
    142  C         45.6320   95.3650   72.3380 C.2   328  LEU328      0.2287
    143  O         45.7700   96.3920   73.0150 O.2   328  LEU328     -0.2864
    144  CB        47.4430   93.6980   71.9660 C.3   328  LEU328      0.0297
    145  CG        48.4110   92.6880   72.5630 C.3   328  LEU328      0.0022
    146  CD1       49.6120   92.6410   71.6280 C.3   328  LEU328      0.0001
    147  CD2       48.8180   93.0890   73.9730 C.3   328  LEU328      0.0001
    148  N         40.1920   86.7440   84.0540 N.3   342  HIS342     -0.1241
    149  CA        40.4910   85.5640   84.8520 C.3   342  HIS342      0.1621
    150  C         41.8650   85.6350   85.4890 C.2   342  HIS342      0.2264
    151  O         42.2440   84.6980   86.1980 O.2   342  HIS342     -0.2867
    152  CB        40.3760   84.2900   84.0220 C.3   342  HIS342      0.0745
    153  CG        41.5130   84.0700   83.0740 C.ar  342  HIS342      0.0817
    154  ND1       41.8640   84.9870   82.1070 N.ar  342  HIS342     -0.2268
    155  CD2       42.3310   83.0010   82.8970 C.ar  342  HIS342      0.1154
    156  CE1       42.8740   84.5080   81.3980 C.ar  342  HIS342      0.1986
    157  NE2       43.1770   83.3060   81.8580 N.ar  342  HIS342     -0.2212
    158  N         44.8160   85.4940   84.0460 N.3   344  GLY344     -0.1210
    159  CA        45.9450   84.8750   83.3660 C.3   344  GLY344      0.1956
    160  C         47.1150   85.8400   83.3160 C.2   344  GLY344      0.2612
    161  O         46.9320   87.0640   83.3000 O.2   344  GLY344     -0.2717
    162  N         48.3340   85.2920   83.3630 N.am  345  TRP345     -0.1962
    163  CA        49.4900   86.1670   83.5430 C.3   345  TRP345      0.1771
    164  C         49.7180   87.0830   82.3440 C.2   345  TRP345      0.2620
    165  O         50.0960   88.2480   82.5170 O.2   345  TRP345     -0.2715
    166  CB        50.7550   85.3660   83.8370 C.3   345  TRP345      0.0590
    167  CG        51.9450   86.2860   84.0280 C.ar  345  TRP345      0.0006
    168  CD1       53.1300   86.2550   83.3440 C.ar  345  TRP345      0.0946
    169  CD2       52.0350   87.3910   84.9320 C.ar  345  TRP345      0.0152
    170  NE1       53.9580   87.2550   83.7880 N.ar  345  TRP345     -0.2442
    171  CE2       53.3120   87.9620   84.7670 C.ar  345  TRP345      0.0810
    172  CE3       51.1730   87.9340   85.8920 C.ar  345  TRP345      0.0012
    173  CZ2       53.7390   89.0540   85.5050 C.ar  345  TRP345      0.0191
    174  CZ3       51.6010   89.0230   86.6280 C.ar  345  TRP345      0.0001
    175  CH2       52.8710   89.5740   86.4270 C.ar  345  TRP345      0.0015
    176  N         49.4960   86.5940   81.1170 N.am  346  ASN346     -0.1958
    177  CA        49.6190   87.5150   79.9870 C.3   346  ASN346      0.1819
    178  C         48.5250   88.5780   80.0340 C.2   346  ASN346      0.2622
    179  O         48.7960   89.7680   79.8260 O.2   346  ASN346     -0.2715
    180  CB        49.5930   86.7590   78.6580 C.3   346  ASN346      0.1195
    181  CG        50.7490   85.7730   78.5280 C.2   346  ASN346      0.2630
    182  OD1       51.9190   86.1740   78.4370 O.2   346  ASN346     -0.2716
    183  ND2       50.4280   84.4710   78.5700 N.am  346  ASN346     -0.0877
    184  N         47.2930   88.1840   80.3690 N.am  347  SER347     -0.1950
    185  CA        46.2410   89.1810   80.5060 C.3   347  SER347      0.1924
    186  C         46.5840   90.1760   81.6010 C.2   347  SER347      0.2314
    187  O         46.3980   91.3840   81.4240 O.2   347  SER347     -0.2863
    188  CB        44.8950   88.5040   80.7950 C.3   347  SER347      0.2116
    189  OG        44.3150   88.0100   79.5870 O.3   347  SER347     -0.2180
    190  N         49.3980   92.4810   80.5170 N.3   350  GLU350     -0.1245
    191  CA        48.8690   93.3750   79.4950 C.3   350  GLU350      0.1567
    192  C         48.0370   94.4820   80.1340 C.2   350  GLU350      0.2260
    193  O         48.1700   95.6580   79.7760 O.2   350  GLU350     -0.2867
    194  CB        48.0300   92.5870   78.4870 C.3   350  GLU350      0.0388
    195  CG        48.8510   91.7750   77.4870 C.3   350  GLU350      0.1160
    196  CD        48.0860   90.5910   76.8980 C.2   350  GLU350      0.3649
    197  OE1       46.8390   90.5660   76.9660 O.co2 350  GLU350     -0.2457
    198  OE2       48.7450   89.6700   76.3700 O.co2 350  GLU350     -0.2457
    199  N         46.0240   81.8800   88.8150 N.3   367  GLN367     -0.1245
    200  CA        45.1580   83.0560   88.7890 C.3   367  GLN367      0.1566
    201  C         44.7730   83.5830   90.1860 C.2   367  GLN367      0.2260
    202  O         44.8840   84.8080   90.3960 O.2   367  GLN367     -0.2867
    203  CB        43.9430   82.7370   87.8980 C.3   367  GLN367      0.0367
    204  CG        44.3870   82.2680   86.4520 C.3   367  GLN367      0.0905
    205  CD        43.3760   81.3320   85.7830 C.2   367  GLN367      0.2608
    206  OE1       42.2230   81.2620   86.2010 O.2   367  GLN367     -0.2717
    207  NE2       43.8260   80.5840   84.7670 N.am  367  GLN367     -0.0878
@<TRIPOS>BOND
     1    52    51    2
     2    49    50    1
     3    55    54    2
     4    40    39    2
     5    53    50    1
     6    53    54    1
     7    51    50    1
     8    39    38    1
     9    54    56   am
    10   128   129    1
    11   128   125    1
    12   129   130    1
    13    37    38    1
    14    38    41    1
    15   130   124    1
    16   107   106    2
    17   110   112   ar
    18   110   109   ar
    19   108   109    1
    20   108   105    1
    21   125   124    1
    22   125   126    1
    23   124   120   am
    24    41    42    1
    25   112   113   ar
    26   109   111   ar
    27   106   105    1
    28   106   118   am
    29   104   105    1
    30   120   119    1
    31   120   121    2
    32   119   118    1
    33   119   122    1
    34    14    13    2
    35   113   111   ar
    36   113   115   ar
    37   126   127    2
    38   126   131   am
    39   111   114   ar
    40    15    13   am
    41    42    43   ar
    42    42    44   ar
    43    13    12    1
    44    43    45   ar
    45   146   145    1
    46   122   123    1
    47   115   117   ar
    48   131   132    1
    49   144   145    1
    50   144   141    1
    51    44    46   ar
    52   114   116   ar
    53    35    34    1
    54   142   141    1
    55   142   143    2
    56   145   147    1
    57    45    47   ar
    58   140   141    1
    59   140   133   am
    60    31    30    1
    61    31    34    1
    62    31    32    1
    63    12    11    1
    64    33    32    2
    65   117   116   ar
    66    34    36    1
    67   132   133    1
    68   132   135    1
    69    46    47   ar
    70    11     8    1
    71   133   134    2
    72     8     7    1
    73     8     9    1
    74    47    48    1
    75   102   101    1
    76     7     3   am
    77     4     3    2
    78   103   101    1
    79    10     9    2
    80     1     2    1
    81     3     2    1
    82   135   136    1
    83     2     5    1
    84     9    16   am
    85   101    98    1
    86    98    99    1
    87    98    97    1
    88    23    22    2
    89    22    21    1
    90    82    79    1
    91    82    83    1
    92    99   100    2
    93    68    67    1
    94    81    80    2
    95   136   137    1
    96    65    67   ar
    97    65    63   ar
    98    16    17    1
    99     5     6    1
   100    79    80    1
   101    79    78    1
   102    67    66   ar
   103    80    84   am
   104   198   196   ar
   105    20    21    1
   106    20    18   am
   107    21    24    1
   108    63    62   ar
   109    77    76    2
   110   138   137    2
   111   137   139   am
   112    17    18    1
   113    24    25    1
   114   196   197   ar
   115   196   195    1
   116    78    76   am
   117    18    19    2
   118    76    75    1
   119    66    64   ar
   120   195   194    1
   121    62    64   ar
   122    62    61    1
   123    84    85    1
   124    73    70    1
   125    85    88    1
   126    85    86    1
   127    75    74    1
   128    91    90    1
   129    88    89    1
   130    25    27   ar
   131    25    26   ar
   132    61    58    1
   133   182   181    2
   134   194   191    1
   135   181   183   am
   136   181   180    1
   137   180   177    1
   138    70    69    1
   139    70    71    1
   140    58    57    1
   141    58    59    1
   142    27    29   ar
   143    26    28   ar
   144    86    87    2
   145    86    92   am
   146    89    90    1
   147   191   192    1
   148   191   190    1
   149   189   188    1
   150    71    72    2
   151    59    60    2
   152   193   192    2
   153   179   178    2
   154    95    94    2
   155   177   178    1
   156   177   176    1
   157   178   184   am
   158    92    93    1
   159    29    28   ar
   160   184   185    1
   161   185   188    1
   162   185   186    1
   163    94    93    1
   164   176   164   am
   165    93    96    1
   166   156   157   ar
   167   156   154   ar
   168   187   186    2
   169   157   155   ar
   170   154   153   ar
   171   164   165    2
   172   164   163    1
   173   155   153   ar
   174   153   152    1
   175   161   160    2
   176   160   162   am
   177   160   159    1
   178   168   170   ar
   179   168   167   ar
   180   162   163    1
   181   159   158    1
   182   163   166    1
   183   170   171   ar
   184   166   167    1
   185   152   149    1
   186   167   169   ar
   187   148   149    1
   188   207   205   am
   189   171   169   ar
   190   171   173   ar
   191   149   150    1
   192   169   172   ar
   193   150   151    2
   194   173   175   ar
   195   205   206    2
   196   205   204    1
   197   172   174   ar
   198   175   174   ar
   199   204   203    1
   200   203   200    1
   201   200   199    1
   202   200   201    1
   203   201   202    2
