@<TRIPOS>MOLECULE
tmp/5u6nB03.pdb
 127 124 0 0 0
SMALL
GASTEIGER

@<TRIPOS>ATOM
      1  N         55.2850   75.3950   75.9230 N.3    13  TYR13      -0.1241
      2  CA        54.1310   74.5510   76.1520 C.3    13  TYR13       0.1605
      3  C         53.0580   74.8970   75.1090 C.2    13  TYR13       0.2264
      4  O         52.8050   76.0820   74.8470 O.2    13  TYR13      -0.2867
      5  CB        53.6030   74.7740   77.5760 C.3    13  TYR13       0.0534
      6  CG        52.4880   73.8000   77.9480 C.ar   13  TYR13      -0.0201
      7  CD1       51.1610   74.1230   77.7080 C.ar   13  TYR13      -0.0009
      8  CD2       52.7650   72.5570   78.5250 C.ar   13  TYR13      -0.0009
      9  CE1       50.1180   73.2290   78.0360 C.ar   13  TYR13       0.0417
     10  CE2       51.7320   71.6700   78.8610 C.ar   13  TYR13       0.0417
     11  CZ        50.4160   72.0160   78.6120 C.ar   13  TYR13       0.1957
     12  OH        49.3950   71.1200   78.9150 O.3    13  TYR13      -0.2866
     13  N         50.1670   75.9370   74.0910 N.3    15  SER15      -0.1217
     14  CA        48.9450   76.6610   74.3920 C.3    15  SER15       0.1889
     15  C         49.2400   78.1110   74.1000 C.2    15  SER15       0.2288
     16  O         50.3980   78.4970   73.9990 O.2    15  SER15      -0.2866
     17  CB        48.5140   76.5140   75.8480 C.3    15  SER15       0.2089
     18  OG        49.4340   77.2760   76.6390 O.3    15  SER15      -0.2183
     19  N         48.8870   80.9050   75.7830 N.3    17  GLY17      -0.1210
     20  CA        49.5100   81.7710   76.7570 C.3    17  GLY17       0.1956
     21  C         50.9690   81.4760   77.0040 C.2    17  GLY17       0.2611
     22  O         51.6360   82.1870   77.7720 O.2    17  GLY17      -0.2717
     23  N         51.4830   80.4060   76.4000 N.am   18  HIS18      -0.1975
     24  CA        52.9040   80.0880   76.4250 C.3    18  HIS18       0.1656
     25  C         53.5690   80.3450   75.0680 C.2    18  HIS18       0.2291
     26  O         54.6840   80.8670   75.0120 O.2    18  HIS18      -0.2864
     27  CB        53.1100   78.6080   76.8440 C.3    18  HIS18       0.0771
     28  CG        52.7880   78.3240   78.2870 C.ar   18  HIS18       0.0820
     29  ND1       53.7520   77.9640   79.2160 N.ar   18  HIS18      -0.2267
     30  CD2       51.6130   78.3750   78.9690 C.ar   18  HIS18       0.1154
     31  CE1       53.1790   77.7900   80.3970 C.ar   18  HIS18       0.1986
     32  NE2       51.8840   78.0400   80.2730 N.ar   18  HIS18      -0.2212
     33  N         57.5410   74.3390   82.2970 N.3   113  PHE113     -0.1241
     34  CA        56.6610   73.1850   82.4960 C.3   113  PHE113      0.1605
     35  C         57.2440   71.8760   81.9730 C.2   113  PHE113      0.2264
     36  O         56.6870   70.8140   82.2780 O.2   113  PHE113     -0.2867
     37  CB        55.3070   73.3910   81.8040 C.3   113  PHE113      0.0534
     38  CG        54.3660   74.3340   82.5130 C.ar  113  PHE113     -0.0203
     39  CD1       54.7430   75.0310   83.6440 C.ar  113  PHE113     -0.0042
     40  CD2       53.0780   74.5500   81.9970 C.ar  113  PHE113     -0.0042
     41  CE1       53.8260   75.9020   84.2910 C.ar  113  PHE113     -0.0003
     42  CE2       52.1710   75.4170   82.6320 C.ar  113  PHE113     -0.0003
     43  CZ        52.5470   76.0990   83.7800 C.ar  113  PHE113     -0.0000
     44  N         55.1720   82.4030   83.9620 N.3   134  GLN134     -0.1245
     45  CA        54.4100   82.9520   85.0800 C.3   134  GLN134      0.1566
     46  C         55.3290   83.7470   86.0120 C.2   134  GLN134      0.2260
     47  O         56.5470   83.5540   85.9890 O.2   134  GLN134     -0.2867
     48  CB        53.7080   81.8140   85.8330 C.3   134  GLN134      0.0367
     49  CG        52.7660   81.0380   84.8740 C.3   134  GLN134      0.0905
     50  CD        52.1110   79.8250   85.4870 C.2   134  GLN134      0.2608
     51  OE1       52.3910   79.4400   86.6320 O.2   134  GLN134     -0.2717
     52  NE2       51.1890   79.2310   84.7400 N.am  134  GLN134     -0.0878
     53  N         45.8020   74.6840   93.2320 N.3   170  PHE170     -0.1241
     54  CA        46.1250   73.3260   93.6550 C.3   170  PHE170      0.1605
     55  C         46.2000   73.1990   95.1740 C.2   170  PHE170      0.2264
     56  O         45.9960   72.0980   95.7070 O.2   170  PHE170     -0.2867
     57  CB        47.4410   72.8670   93.0420 C.3   170  PHE170      0.0534
     58  CG        47.5200   73.0950   91.5540 C.ar  170  PHE170     -0.0203
     59  CD1       46.8100   72.2770   90.6860 C.ar  170  PHE170     -0.0042
     60  CD2       48.2980   74.1350   91.0320 C.ar  170  PHE170     -0.0042
     61  CE1       46.8830   72.4770   89.2900 C.ar  170  PHE170     -0.0003
     62  CE2       48.3740   74.3550   89.6450 C.ar  170  PHE170     -0.0003
     63  CZ        47.6620   73.5240   88.7740 C.ar  170  PHE170     -0.0000
     64  N         48.7780   68.3270   86.6930 N.3   180  TYR180     -0.1241
     65  CA        49.3170   69.6790   86.5620 C.3   180  TYR180      0.1605
     66  C         49.9540   70.1740   87.8580 C.2   180  TYR180      0.2264
     67  O         50.8940   70.9810   87.8070 O.2   180  TYR180     -0.2867
     68  CB        48.2490   70.6750   86.1490 C.3   180  TYR180      0.0534
     69  CG        47.9280   70.6970   84.6310 C.ar  180  TYR180     -0.0201
     70  CD1       48.8900   70.3910   83.6540 C.ar  180  TYR180     -0.0009
     71  CD2       46.6560   71.0390   84.2200 C.ar  180  TYR180     -0.0009
     72  CE1       48.5700   70.4100   82.3090 C.ar  180  TYR180      0.0417
     73  CE2       46.3240   71.0800   82.9040 C.ar  180  TYR180      0.0417
     74  CZ        47.2550   70.7670   81.9420 C.ar  180  TYR180      0.1957
     75  OH        46.7550   70.8460   80.6250 O.3   180  TYR180     -0.2866
     76  N         53.2810   68.8030   87.7130 N.3   183  MET183     -0.1230
     77  CA        53.9870   69.5440   86.6710 C.3   183  MET183      0.1702
     78  C         54.5560   70.8530   87.2040 C.2   183  MET183      0.2592
     79  O         55.7330   71.1610   86.9720 O.2   183  MET183     -0.2718
     80  CB        53.0580   69.8180   85.4820 C.3   183  MET183      0.0401
     81  CG        53.7390   70.3980   84.1990 C.3   183  MET183      0.0596
     82  SD        52.5170   71.0150   82.9610 S.3   183  MET183     -0.1393
     83  CE        51.6780   72.2890   83.9080 C.3   183  MET183      0.0692
     84  N         53.7330   71.6620   87.8920 N.am  184  VAL184     -0.1980
     85  CA        54.2440   72.9580   88.3460 C.3   184  VAL184      0.1595
     86  C         55.2440   72.7920   89.4800 C.2   184  VAL184      0.2287
     87  O         56.1370   73.6310   89.6340 O.2   184  VAL184     -0.2864
     88  CB        53.1240   73.9370   88.7550 C.3   184  VAL184      0.0276
     89  CG1       52.2990   74.3110   87.5290 C.3   184  VAL184      0.0022
     90  CG2       52.2680   73.3720   89.9190 C.3   184  VAL184      0.0022
     91  N         41.4320   79.1940   77.6440 N.3   274  MET274     -0.1245
     92  CA        41.0740   77.8340   78.0250 C.3   274  MET274      0.1570
     93  C         40.1760   77.7130   79.2470 C.2   274  MET274      0.2261
     94  O         39.5390   76.6690   79.4220 O.2   274  MET274     -0.2867
     95  CB        42.3370   77.0010   78.2540 C.3   274  MET274      0.0387
     96  CG        43.1950   77.4370   79.4220 C.3   274  MET274      0.0595
     97  SD        44.5780   76.2810   79.5640 S.3   274  MET274     -0.1393
     98  CE        45.6380   76.8580   78.2530 C.3   274  MET274      0.0692
     99  N         41.5050   79.3000   88.3460 N.3   364  TRP364     -0.1227
    100  CA        42.3120   78.1640   88.7780 C.3   364  TRP364      0.1737
    101  C         43.7730   78.4590   88.4830 C.2   364  TRP364      0.2596
    102  O         44.1270   79.5500   88.0380 O.2   364  TRP364     -0.2718
    103  CB        41.8510   76.8760   88.0970 C.3   364  TRP364      0.0564
    104  CG        42.1940   76.7990   86.6550 C.ar  364  TRP364      0.0003
    105  CD1       41.9260   77.7280   85.6920 C.ar  364  TRP364      0.0946
    106  CD2       42.8690   75.7220   86.0000 C.ar  364  TRP364      0.0152
    107  NE1       42.3950   77.2880   84.4670 N.ar  364  TRP364     -0.2442
    108  CE2       42.9890   76.0660   84.6360 C.ar  364  TRP364      0.0810
    109  CE3       43.4050   74.5070   86.4380 C.ar  364  TRP364      0.0012
    110  CZ2       43.6110   75.2350   83.7080 C.ar  364  TRP364      0.0191
    111  CZ3       44.0180   73.6810   85.5140 C.ar  364  TRP364      0.0001
    112  CH2       44.1160   74.0510   84.1590 C.ar  364  TRP364      0.0015
    113  N         44.6190   77.4720   88.7550 N.am  365  THR365     -0.1939
    114  CA        46.0940   77.5120   88.5950 C.3   365  THR365      0.2028
    115  C         46.6340   78.7820   89.2680 C.2   365  THR365      0.2642
    116  O         46.3070   79.0300   90.4430 O.2   365  THR365     -0.2714
    117  CB        46.4860   77.2710   87.1210 C.3   365  THR365      0.1808
    118  OG1       47.8930   77.0410   87.0630 O.3   365  THR365     -0.2208
    119  CG2       46.1500   78.4240   86.1760 C.3   365  THR365      0.0379
    120  N         47.5090   79.5660   88.6230 N.am  366  ASP366     -0.1971
    121  CA        48.1280   80.7100   89.2920 C.3   366  ASP366      0.1709
    122  C         47.1920   81.9090   89.4460 C.2   366  ASP366      0.2293
    123  O         47.5580   82.8760   90.1270 O.2   366  ASP366     -0.2864
    124  CB        49.3840   81.1840   88.5460 C.3   366  ASP366      0.1436
    125  CG        49.0960   81.5070   87.0940 C.2   366  ASP366      0.3671
    126  OD1       48.2930   80.7790   86.5060 O.co2 366  ASP366     -0.2456
    127  OD2       49.6490   82.4760   86.5450 O.co2 366  ASP366     -0.2456
@<TRIPOS>BOND
     1    16    15    2
     2    13    14    1
     3    15    14    1
     4    14    17    1
     5     4     3    2
     6    26    25    2
     7    25    24    1
     8     3     2    1
     9    19    20    1
    10    17    18    1
    11     1     2    1
    12     2     5    1
    13    23    24    1
    14    23    21   am
    15    24    27    1
    16    20    21    1
    17    27    28    1
    18    21    22    2
    19     5     6    1
    20    91    92    1
    21     7     6   ar
    22     7     9   ar
    23     6     8   ar
    24    92    95    1
    25    92    93    1
    26     9    11   ar
    27    98    97    1
    28    95    96    1
    29    28    30   ar
    30    28    29   ar
    31     8    10   ar
    32    11    10   ar
    33    11    12    1
    34    30    32   ar
    35    29    31   ar
    36    93    94    2
    37    96    97    1
    38    32    31   ar
    39    75    74    1
    40    37    34    1
    41    37    38    1
    42    74    72   ar
    43    74    73   ar
    44    35    36    2
    45    35    34    1
    46    40    38   ar
    47    40    42   ar
    48    33    34    1
    49    72    70   ar
    50    38    39   ar
    51    42    43   ar
    52    73    71   ar
    53    82    83    1
    54    82    81    1
    55    39    41   ar
    56    70    69   ar
    57   110   112   ar
    58   110   108   ar
    59    43    41   ar
    60    44    45    1
    61   112   111   ar
    62    81    80    1
    63    71    69   ar
    64   107   108   ar
    65   107   105   ar
    66    69    68    1
    67   108   106   ar
    68    52    50   am
    69    49    50    1
    70    49    48    1
    71    45    48    1
    72    45    46    1
    73    80    77    1
    74    50    51    2
    75   111   109   ar
    76   105   104   ar
    77    47    46    2
    78   106   109   ar
    79   106   104   ar
    80    68    65    1
    81   119   117    1
    82   126   125   ar
    83   127   125   ar
    84    65    64    1
    85    65    66    1
    86   104   103    1
    87    77    78    1
    88    77    76    1
    89    79    78    2
    90   118   117    1
    91   125   124    1
    92   117   114    1
    93    78    84   am
    94    89    88    1
    95    67    66    2
    96    84    85    1
    97   102   101    2
    98   103   100    1
    99    99   100    1
   100    85    88    1
   101    85    86    1
   102   101   113   am
   103   101   100    1
   104   124   121    1
   105   114   113    1
   106   114   115    1
   107   120   115   am
   108   120   121    1
   109    88    90    1
   110    63    61   ar
   111    63    62   ar
   112   115   116    2
   113    61    59   ar
   114   121   122    1
   115   122   123    2
   116    86    87    2
   117    62    60   ar
   118    59    58   ar
   119    60    58   ar
   120    58    57    1
   121    57    54    1
   122    53    54    1
   123    54    55    1
   124    55    56    2
