@<TRIPOS>MOLECULE
tmp/5u6pG00.pdb
 140 132 0 0 0
SMALL
GASTEIGER

@<TRIPOS>ATOM
      1  N        178.8060  170.2720  193.7480 N.3   399  ILE399     -0.1245
      2  CA       178.3400  170.5820  195.0970 C.3   399  ILE399      0.1561
      3  C        178.6390  172.0560  195.3860 C.2   399  ILE399      0.2260
      4  O        179.7260  172.5440  195.0680 O.2   399  ILE399     -0.2867
      5  CB       179.0310  169.6830  196.1490 C.3   399  ILE399      0.0252
      6  CG1      178.6520  168.2130  195.9240 C.3   399  ILE399      0.0019
      7  CG2      178.6470  170.0920  197.5700 C.3   399  ILE399      0.0019
      8  CD1      179.4950  167.2240  196.7030 C.3   399  ILE399      0.0001
      9  N        188.0680  170.6350  194.3020 N.3   418  VAL418     -0.1245
     10  CA       187.3910  170.9900  195.5510 C.3   418  VAL418      0.1561
     11  C        187.7600  172.4310  195.9140 C.2   418  VAL418      0.2260
     12  O        188.9240  172.8250  195.8030 O.2   418  VAL418     -0.2867
     13  CB       187.7990  170.0400  196.7040 C.3   418  VAL418      0.0252
     14  CG1      186.9940  170.3250  197.9680 C.3   418  VAL418      0.0019
     15  CG2      187.6230  168.5810  196.2950 C.3   418  VAL418      0.0019
     16  N        192.5100  171.7020  195.6340 N.3   426  MET426     -0.1245
     17  CA       192.6180  170.2420  195.7010 C.3   426  MET426      0.1570
     18  C        191.9240  169.6580  194.4770 C.2   426  MET426      0.2261
     19  O        190.8030  170.0550  194.1620 O.2   426  MET426     -0.2867
     20  CB       191.9390  169.7070  196.9620 C.3   426  MET426      0.0387
     21  CG       192.4540  170.2860  198.2690 C.3   426  MET426      0.0595
     22  SD       191.6320  169.5370  199.6900 S.3   426  MET426     -0.1393
     23  CE       192.3940  170.4260  201.0450 C.3   426  MET426      0.0692
     24  N        190.8180  166.0300  192.3070 N.3   428  LEU428     -0.1245
     25  CA       190.5360  164.5940  192.4280 C.3   428  LEU428      0.1561
     26  C        190.6120  163.8830  191.0780 C.2   428  LEU428      0.2260
     27  O        190.2200  164.4400  190.0510 O.2   428  LEU428     -0.2867
     28  CB       189.1500  164.3790  193.0390 C.3   428  LEU428      0.0270
     29  CG       188.9930  164.7950  194.5030 C.3   428  LEU428      0.0019
     30  CD1      187.5220  164.8760  194.8790 C.3   428  LEU428      0.0001
     31  CD2      189.7260  163.8300  195.4250 C.3   428  LEU428      0.0001
     32  N        183.5820  161.7010  196.3900 N.3   434  PHE434     -0.1227
     33  CA       183.3190  162.8930  197.1900 C.3   434  PHE434      0.1736
     34  C        181.8260  163.0280  197.4900 C.2   434  PHE434      0.2596
     35  O        180.9790  162.4750  196.7810 O.2   434  PHE434     -0.2718
     36  CB       183.8490  164.1450  196.4840 C.3   434  PHE434      0.0547
     37  CG       183.1920  164.4250  195.1660 C.ar  434  PHE434     -0.0202
     38  CD1      183.6960  163.8820  193.9900 C.ar  434  PHE434     -0.0042
     39  CD2      182.0650  165.2370  195.0970 C.ar  434  PHE434     -0.0042
     40  CE1      183.0860  164.1430  192.7710 C.ar  434  PHE434     -0.0003
     41  CE2      181.4490  165.4990  193.8820 C.ar  434  PHE434     -0.0003
     42  CZ       181.9620  164.9520  192.7170 C.ar  434  PHE434     -0.0000
     43  N        181.5290  163.7710  198.5510 N.am  435  GLY435     -0.1942
     44  CA       180.1630  163.9900  199.0210 C.3   435  GLY435      0.2014
     45  C        179.7010  162.9840  200.0650 C.2   435  GLY435      0.2639
     46  O        178.5000  162.8590  200.3140 O.2   435  GLY435     -0.2714
     47  N        180.6480  162.2810  200.6870 N.am  436  GLU436     -0.1963
     48  CA       180.3380  161.2400  201.6690 C.3   436  GLU436      0.1733
     49  C        180.0330  161.7840  203.0680 C.2   436  GLU436      0.2616
     50  O        179.3440  161.1220  203.8460 O.2   436  GLU436     -0.2715
     51  CB       181.4980  160.2460  201.7620 C.3   436  GLU436      0.0429
     52  CG       182.7110  160.7430  202.5030 C.3   436  GLU436      0.1163
     53  CD       183.6120  161.7220  201.8180 C.2   436  GLU436      0.3649
     54  OE1      183.3720  162.1560  200.6810 O.co2 436  GLU436     -0.2457
     55  OE2      184.6460  162.0760  202.4890 O.co2 436  GLU436     -0.2457
     56  N        180.5370  162.9790  203.3810 N.am  437  ILE437     -0.1963
     57  CA       180.4790  163.5260  204.7450 C.3   437  ILE437      0.1727
     58  C        179.0760  164.0120  205.1340 C.2   437  ILE437      0.2616
     59  O        178.6360  163.7760  206.2620 O.2   437  ILE437     -0.2715
     60  CB       181.5280  164.6510  204.9450 C.3   437  ILE437      0.0290
     61  CG1      182.9420  164.0790  204.7720 C.3   437  ILE437      0.0022
     62  CG2      181.3960  165.3020  206.3230 C.3   437  ILE437      0.0023
     63  CD1      184.0390  165.1180  204.6680 C.3   437  ILE437      0.0001
     64  N        178.3870  164.6840  204.2120 N.am  438  CYS438     -0.1968
     65  CA       177.0410  165.2170  204.4750 C.3   438  CYS438      0.1712
     66  C        176.0100  164.1210  204.7540 C.2   438  CYS438      0.2296
     67  O        175.0650  164.3350  205.5160 O.2   438  CYS438     -0.2864
     68  CB       176.5600  166.0820  203.3070 C.3   438  CYS438      0.0983
     69  SG       174.9250  166.7750  203.4640 S.3   438  CYS438     -0.0798
     70  N        175.2340  169.7850  206.7250 N.3   444  ARG444     -0.1231
     71  CA       175.4260  170.5220  205.4710 C.3   444  ARG444      0.1694
     72  C        176.7540  170.1820  204.8050 C.2   444  ARG444      0.2592
     73  O        177.6160  169.5320  205.4040 O.2   444  ARG444     -0.2718
     74  CB       175.3410  172.0320  205.7240 C.3   444  ARG444      0.0321
     75  CG       174.0640  172.4930  206.4190 C.3   444  ARG444      0.0489
     76  CD       172.8070  171.9740  205.7310 C.3   444  ARG444      0.2205
     77  NE       171.5860  172.5510  206.2920 N.pl3 444  ARG444     -0.0865
     78  CZ       171.0420  173.7210  205.9440 C.cat 444  ARG444      0.5346
     79  NH1      171.5930  174.5060  205.0150 N.pl3 444  ARG444      0.1354
     80  NH2      169.9220  174.1160  206.5430 N.pl3 444  ARG444      0.1354
     81  N        176.9010  170.6290  203.5580 N.am  445  ARG445     -0.1966
     82  CA       178.1060  170.3780  202.7660 C.3   445  ARG445      0.1729
     83  C        179.2650  171.2180  203.3040 C.2   445  ARG445      0.2617
     84  O        179.1360  172.4370  203.4490 O.2   445  ARG445     -0.2715
     85  CB       177.8740  170.7110  201.2860 C.3   445  ARG445      0.0348
     86  CG       176.7860  169.8970  200.5920 C.3   445  ARG445      0.0492
     87  CD       177.2020  168.4610  200.3110 C.3   445  ARG445      0.2205
     88  NE       176.3220  167.8230  199.3300 N.pl3 445  ARG445     -0.0865
     89  CZ       176.4490  166.5740  198.8800 C.cat 445  ARG445      0.5346
     90  NH1      177.4290  165.7810  199.3100 N.pl3 445  ARG445      0.1354
     91  NH2      175.5780  166.1080  197.9870 N.pl3 445  ARG445      0.1354
     92  N        180.3880  170.5600  203.5910 N.am  446  THR446     -0.1937
     93  CA       181.5500  171.2110  204.2060 C.3   446  THR446      0.2028
     94  C        182.2440  172.2070  203.2720 C.2   446  THR446      0.2642
     95  O        182.7560  173.2330  203.7270 O.2   446  THR446     -0.2714
     96  CB       182.5990  170.1760  204.6710 C.3   446  THR446      0.1808
     97  OG1      182.9850  169.3480  203.5660 O.3   446  THR446     -0.2208
     98  CG2      182.0440  169.3010  205.7930 C.3   446  THR446      0.0379
     99  N        182.2520  171.8970  201.9770 N.am  447  ALA447     -0.1977
    100  CA       182.9540  172.7000  200.9750 C.3   447  ALA447      0.1597
    101  C        182.3620  172.4810  199.5840 C.2   447  ALA447      0.2287
    102  O        181.6700  171.4900  199.3480 O.2   447  ALA447     -0.2864
    103  CB       184.4320  172.3440  200.9800 C.3   447  ALA447      0.0319
    104  N        182.4240  171.8610  195.3770 N.3   449  VAL449     -0.1245
    105  CA       183.1370  171.0130  194.4110 C.3   449  VAL449      0.1561
    106  C        182.7140  171.4090  192.9960 C.2   449  VAL449      0.2260
    107  O        181.5160  171.4410  192.6900 O.2   449  VAL449     -0.2867
    108  CB       182.8490  169.5060  194.6280 C.3   449  VAL449      0.0252
    109  CG1      183.6330  168.6480  193.6380 C.3   449  VAL449      0.0019
    110  CG2      183.1890  169.0860  196.0530 C.3   449  VAL449      0.0019
    111  N        190.0300  163.5630  206.0980 N.3   486  ARG486     -0.1245
    112  CA       189.7000  164.6330  205.1520 C.3   486  ARG486      0.1563
    113  C        189.3480  165.9090  205.9060 C.2   486  ARG486      0.2260
    114  O        189.8200  167.0010  205.5590 O.2   486  ARG486     -0.2867
    115  CB       188.5590  164.2270  204.2110 C.3   486  ARG486      0.0307
    116  CG       188.9530  163.1910  203.1710 C.3   486  ARG486      0.0489
    117  CD       187.8100  162.9200  202.2070 C.3   486  ARG486      0.2205
    118  NE       188.1820  161.9790  201.1500 N.pl3 486  ARG486     -0.0865
    119  CZ       187.4350  161.6880  200.0810 C.cat 486  ARG486      0.5346
    120  NH1      186.2450  162.2610  199.8910 N.pl3 486  ARG486      0.1354
    121  NH2      187.8850  160.8110  199.1850 N.pl3 486  ARG486      0.1354
    122  N        192.3530  167.5100  207.3950 N.3   489  ARG489     -0.1231
    123  CA       193.0980  168.1750  206.3260 C.3   489  ARG489      0.1694
    124  C        192.4870  169.5470  206.0330 C.2   489  ARG489      0.2591
    125  O        193.2000  170.5530  205.9160 O.2   489  ARG489     -0.2718
    126  CB       193.1650  167.3240  205.0490 C.3   489  ARG489      0.0321
    127  CG       194.0980  167.8900  203.9830 C.3   489  ARG489      0.0489
    128  CD       194.3410  166.9380  202.8180 C.3   489  ARG489      0.2205
    129  NE       195.1100  165.7440  203.1870 N.pl3 489  ARG489     -0.0865
    130  CZ       194.6050  164.5540  203.5370 C.cat 489  ARG489      0.5346
    131  NH1      193.2880  164.3350  203.5990 N.pl3 489  ARG489      0.1354
    132  NH2      195.4380  163.5600  203.8410 N.pl3 489  ARG489      0.1354
    133  N        191.1630  169.5520  205.9340 N.am  490  ILE490     -0.1980
    134  CA       190.4000  170.7670  205.6600 C.3   490  ILE490      0.1595
    135  C        190.6210  171.8000  206.7610 C.2   490  ILE490      0.2287
    136  O        190.9070  172.9790  206.4990 O.2   490  ILE490     -0.2864
    137  CB       188.8910  170.4780  205.5370 C.3   490  ILE490      0.0276
    138  CG1      188.6460  169.6970  204.2300 C.3   490  ILE490      0.0022
    139  CG2      188.0800  171.7490  205.6030 C.3   490  ILE490      0.0022
    140  CD1      187.2630  169.1180  204.1140 C.3   490  ILE490      0.0001
@<TRIPOS>BOND
     1    27    26    2
     2    26    25    1
     3    24    25    1
     4    25    28    1
     5   107   106    2
     6    42    40   ar
     7    42    41   ar
     8    40    38   ar
     9   106   105    1
    10    28    29    1
    11   109   108    1
    12     1     2    1
    13    41    39   ar
    14    38    37   ar
    15    19    18    2
    16     9    10    1
    17   105   108    1
    18   105   104    1
    19    18    17    1
    20    29    30    1
    21    29    31    1
    22   108   110    1
    23     4     3    2
    24     2     3    1
    25     2     5    1
    26    39    37   ar
    27    37    36    1
    28    10    11    1
    29    10    13    1
    30    16    17    1
    31    17    20    1
    32    12    11    2
    33     6     5    1
    34     6     8    1
    35     5     7    1
    36    15    13    1
    37    32    33    1
    38    36    33    1
    39    13    14    1
    40    35    34    2
    41    20    21    1
    42    33    34    1
    43    34    43   am
    44    91    89    1
    45    21    22    1
    46    43    44    1
    47    89    90    1
    48    89    88    2
    49    44    45    1
    50   121   119    1
    51    88    87    1
    52   102   101    2
    53   101   100    1
    54    22    23    1
    55   120   119    1
    56    45    46    2
    57    45    47   am
    58   119   118    2
    59    87    86    1
    60    86    85    1
    61    54    53   ar
    62    47    48    1
    63   100   103    1
    64   100    99    1
    65   118   117    1
    66    85    82    1
    67    48    51    1
    68    48    49    1
    69    51    52    1
    70    53    55   ar
    71    53    52    1
    72    99    94   am
    73   117   116    1
    74    82    83    1
    75    82    81    1
    76   128   129    1
    77   128   127    1
    78    49    56   am
    79    49    50    2
    80   116   115    1
    81   129   130    2
    82    94    95    2
    83    94    93    1
    84    83    84    2
    85    83    92   am
    86    68    69    1
    87    68    65    1
    88    56    57    1
    89   130   131    1
    90   130   132    1
    91    81    72   am
    92    97    96    1
    93    92    93    1
    94   127   126    1
    95   140   138    1
    96    93    96    1
    97   115   112    1
    98    64    65    1
    99    64    58   am
   100   138   137    1
   101    65    66    1
   102    63    61    1
   103    96    98    1
   104    57    60    1
   105    57    58    1
   106    66    67    2
   107    61    60    1
   108    72    73    2
   109    72    71    1
   110    60    62    1
   111    79    78    1
   112   126   123    1
   113    58    59    2
   114   112   113    1
   115   112   111    1
   116    71    74    1
   117    71    70    1
   118   137   139    1
   119   137   134    1
   120   114   113    2
   121   134   133    1
   122   134   135    1
   123    74    75    1
   124    76    77    1
   125    76    75    1
   126   125   124    2
   127   133   124   am
   128    78    77    2
   129    78    80    1
   130   124   123    1
   131   123   122    1
   132   136   135    2
