@<TRIPOS>MOLECULE
tmp/5u6qA00.pdb
 133 129 0 0 0
SMALL
GASTEIGER

@<TRIPOS>ATOM
      1  N        -48.1480   41.0780  184.0200 N.3     8  TYR8       -0.1241
      2  CA       -48.3130   41.6350  185.3620 C.3     8  TYR8        0.1605
      3  C        -47.9120   43.1030  185.3870 C.2     8  TYR8        0.2264
      4  O        -46.8290   43.4640  184.9120 O.2     8  TYR8       -0.2867
      5  CB       -47.4730   40.8780  186.3930 C.3     8  TYR8        0.0534
      6  CG       -47.8690   39.4470  186.6220 C.ar    8  TYR8       -0.0201
      7  CD1      -48.8510   39.1130  187.5500 C.ar    8  TYR8       -0.0009
      8  CD2      -47.2060   38.4210  185.9690 C.ar    8  TYR8       -0.0009
      9  CE1      -49.1750   37.7940  187.7900 C.ar    8  TYR8        0.0417
     10  CE2      -47.5220   37.1070  186.1980 C.ar    8  TYR8        0.0417
     11  CZ       -48.5070   36.8010  187.1110 C.ar    8  TYR8        0.1957
     12  OH       -48.8070   35.4900  187.3410 O.3     8  TYR8       -0.2866
     13  N        -47.4630   46.8190  187.6620 N.3    10  ARG10      -0.1245
     14  CA       -47.3540   47.5330  188.9200 C.3    10  ARG10       0.1563
     15  C        -47.5600   49.0270  188.6940 C.2    10  ARG10       0.2260
     16  O        -47.1500   49.5850  187.6730 O.2    10  ARG10      -0.2867
     17  CB       -45.9750   47.2810  189.5670 C.3    10  ARG10       0.0307
     18  CG       -45.6640   45.8260  189.8210 C.3    10  ARG10       0.0489
     19  CD       -44.2260   45.6040  190.3970 C.3    10  ARG10       0.2205
     20  NE       -43.8600   44.2010  190.2700 N.pl3  10  ARG10      -0.0865
     21  CZ       -42.6510   43.6980  190.4890 C.cat  10  ARG10       0.5346
     22  NH1      -41.6560   44.4890  190.8790 N.pl3  10  ARG10       0.1354
     23  NH2      -42.4410   42.3970  190.3040 N.pl3  10  ARG10       0.1354
     24  N        -50.8630   46.3190  192.1470 N.3    25  SER25      -0.1202
     25  CA       -50.3740   45.3590  191.1650 C.3    25  SER25       0.2020
     26  C        -51.4660   44.4170  190.6850 C.2    25  SER25       0.2618
     27  O        -52.1530   43.8000  191.5000 O.2    25  SER25      -0.2717
     28  CB       -49.2310   44.5320  191.7380 C.3    25  SER25       0.2103
     29  OG       -48.7720   43.6160  190.7560 O.3    25  SER25      -0.2182
     30  N        -51.6230   44.3000  189.3610 N.am   26  VAL26      -0.1979
     31  CA       -52.6400   43.4300  188.7960 C.3    26  VAL26       0.1595
     32  C        -52.0460   42.5560  187.6820 C.2    26  VAL26       0.2287
     33  O        -51.2780   43.0430  186.8390 O.2    26  VAL26      -0.2864
     34  CB       -53.8480   44.2580  188.2350 C.3    26  VAL26       0.0276
     35  CG1      -54.8890   43.3380  187.5960 C.3    26  VAL26       0.0022
     36  CG2      -54.5210   45.0800  189.3330 C.3    26  VAL26       0.0022
     37  N        -55.1760   38.3410  189.1450 N.3    35  THR35      -0.1218
     38  CA       -54.6680   38.5680  190.5070 C.3    35  THR35       0.1862
     39  C        -54.6210   40.0460  190.8200 C.2    35  THR35       0.2287
     40  O        -54.4980   40.8740  189.9160 O.2    35  THR35      -0.2866
     41  CB       -53.2340   38.0220  190.7200 C.3    35  THR35       0.1770
     42  OG1      -52.3280   38.7130  189.8510 O.3    35  THR35      -0.2211
     43  CG2      -53.1550   36.5380  190.4700 C.3    35  THR35       0.0375
     44  N        -52.4200   39.6310  198.4700 N.3    44  LYS44      -0.1245
     45  CA       -52.5570   39.2270  197.0780 C.3    44  LYS44       0.1561
     46  C        -53.7490   38.2830  196.9740 C.2    44  LYS44       0.2260
     47  O        -53.8280   37.2920  197.7110 O.2    44  LYS44      -0.2867
     48  CB       -51.3010   38.5460  196.5670 C.3    44  LYS44       0.0271
     49  CG       -51.4480   37.9910  195.1470 C.3    44  LYS44       0.0035
     50  CD       -50.4120   38.5580  194.2100 C.3    44  LYS44       0.0206
     51  CE       -50.3890   37.7730  192.9060 C.3    44  LYS44       0.1093
     52  NZ       -49.5360   38.4390  191.8990 N.3    44  LYS44      -0.1314
     53  N        -47.2620   34.7720  197.8010 N.3    63  TYR63      -0.1241
     54  CA       -47.1980   35.9330  196.9120 C.3    63  TYR63       0.1605
     55  C        -47.6110   37.1960  197.6420 C.2    63  TYR63       0.2264
     56  O        -47.1990   38.2980  197.2720 O.2    63  TYR63      -0.2867
     57  CB       -48.0550   35.6970  195.6510 C.3    63  TYR63       0.0534
     58  CG       -47.2350   34.8860  194.6760 C.ar   63  TYR63      -0.0201
     59  CD1      -46.4310   35.5100  193.7360 C.ar   63  TYR63      -0.0009
     60  CD2      -47.1980   33.5010  194.7610 C.ar   63  TYR63      -0.0009
     61  CE1      -45.6520   34.7670  192.8530 C.ar   63  TYR63       0.0417
     62  CE2      -46.4190   32.7520  193.9040 C.ar   63  TYR63       0.0417
     63  CZ       -45.6490   33.3890  192.9540 C.ar   63  TYR63       0.1957
     64  OH       -44.8660   32.6360  192.1220 O.3    63  TYR63      -0.2866
     65  N        -45.1740   40.4010  197.3450 N.3    67  LEU67      -0.1245
     66  CA       -45.6940   41.6940  196.9000 C.3    67  LEU67       0.1561
     67  C        -45.4850   42.7750  197.9570 C.2    67  LEU67       0.2260
     68  O        -45.2330   43.9340  197.6240 O.2    67  LEU67      -0.2867
     69  CB       -47.1950   41.5980  196.5300 C.3    67  LEU67       0.0270
     70  CG       -47.5210   41.3250  195.0450 C.3    67  LEU67       0.0019
     71  CD1      -47.2480   42.5310  194.1410 C.3    67  LEU67       0.0001
     72  CD2      -46.7740   40.1030  194.5040 C.3    67  LEU67       0.0001
     73  N        -42.1050   43.6930  197.1950 N.3    70  TRP70      -0.1241
     74  CA       -41.9840   44.3810  195.9240 C.3    70  TRP70       0.1605
     75  C        -42.5840   45.7790  196.0040 C.2    70  TRP70       0.2264
     76  O        -42.1000   46.7030  195.3450 O.2    70  TRP70      -0.2867
     77  CB       -42.6360   43.5610  194.8020 C.3    70  TRP70       0.0550
     78  CG       -41.8960   42.2830  194.5550 C.ar   70  TRP70       0.0003
     79  CD1      -40.6340   41.9610  195.0070 C.ar   70  TRP70       0.0946
     80  CD2      -42.3630   41.1440  193.8290 C.ar   70  TRP70       0.0152
     81  NE1      -40.2960   40.6980  194.5900 N.ar   70  TRP70      -0.2442
     82  CE2      -41.3400   40.1740  193.8700 C.ar   70  TRP70       0.0810
     83  CE3      -43.5480   40.8540  193.1360 C.ar   70  TRP70       0.0012
     84  CZ2      -41.4600   38.9320  193.2460 C.ar   70  TRP70       0.0191
     85  CZ3      -43.6710   39.6160  192.5160 C.ar   70  TRP70       0.0001
     86  CH2      -42.6270   38.6700  192.5760 C.ar   70  TRP70       0.0015
     87  N        -44.5610   49.3600  185.9890 N.3    95  ARG95      -0.1245
     88  CA       -43.8320   48.2330  185.4500 C.3    95  ARG95       0.1563
     89  C        -44.8170   47.3390  184.7200 C.2    95  ARG95       0.2260
     90  O        -45.9550   47.1740  185.1660 O.2    95  ARG95      -0.2867
     91  CB       -43.1420   47.4530  186.5680 C.3    95  ARG95       0.0307
     92  CG       -42.2090   46.3270  186.1130 C.3    95  ARG95       0.0489
     93  CD       -41.6700   45.6500  187.3740 C.3    95  ARG95       0.2205
     94  NE       -40.5300   44.7570  187.2020 N.pl3  95  ARG95      -0.0865
     95  CZ       -40.6370   43.4460  187.0290 C.cat  95  ARG95       0.5346
     96  NH1      -41.8440   42.8860  186.9550 N.pl3  95  ARG95       0.1354
     97  NH2      -39.5410   42.6940  186.9490 N.pl3  95  ARG95       0.1354
     98  N        -44.5840   43.3920  182.9050 N.3    97  ILE97      -0.1245
     99  CA       -43.8090   42.2310  182.4950 C.3    97  ILE97       0.1561
    100  C        -44.7800   41.2170  181.9540 C.2    97  ILE97       0.2260
    101  O        -45.9290   41.1790  182.3780 O.2    97  ILE97      -0.2867
    102  CB       -42.9740   41.6330  183.6700 C.3    97  ILE97       0.0252
    103  CG1      -41.9250   40.6540  183.1460 C.3    97  ILE97       0.0019
    104  CG2      -43.8740   40.9450  184.7100 C.3    97  ILE97       0.0019
    105  CD1      -40.8890   40.2380  184.2360 C.3    97  ILE97       0.0001
    106  N        -36.6600   34.1730  183.0450 N.3   157  TRP157     -0.1241
    107  CA       -38.0320   34.2690  183.5530 C.3   157  TRP157      0.1605
    108  C        -39.0090   34.4730  182.3970 C.2   157  TRP157      0.2264
    109  O        -40.0420   33.8060  182.2990 O.2   157  TRP157     -0.2867
    110  CB       -38.1930   35.4130  184.5550 C.3   157  TRP157      0.0550
    111  CG       -39.4430   35.2220  185.3200 C.ar  157  TRP157      0.0003
    112  CD1      -39.5980   34.4750  186.4620 C.ar  157  TRP157      0.0946
    113  CD2      -40.7420   35.7230  184.9880 C.ar  157  TRP157      0.0152
    114  NE1      -40.9040   34.4940  186.8630 N.ar  157  TRP157     -0.2442
    115  CE2      -41.6360   35.2420  185.9700 C.ar  157  TRP157      0.0810
    116  CE3      -41.2370   36.5350  183.9620 C.ar  157  TRP157      0.0012
    117  CZ2      -43.0040   35.5530  185.9590 C.ar  157  TRP157      0.0191
    118  CZ3      -42.6040   36.8380  183.9470 C.ar  157  TRP157      0.0001
    119  CH2      -43.4650   36.3500  184.9390 C.ar  157  TRP157      0.0015
    120  N        -46.0560   29.5880  183.3660 N.3   165  TRP165     -0.1241
    121  CA       -47.1780   30.0860  184.1700 C.3   165  TRP165      0.1605
    122  C        -48.4180   30.2590  183.2800 C.2   165  TRP165      0.2264
    123  O        -49.5570   29.9030  183.6510 O.2   165  TRP165     -0.2867
    124  CB       -46.8580   31.4310  184.8200 C.3   165  TRP165      0.0550
    125  CG       -45.9770   31.3500  186.0650 C.ar  165  TRP165      0.0003
    126  CD1      -44.7050   31.8060  186.2000 C.ar  165  TRP165      0.0946
    127  CD2      -46.3410   30.7750  187.3210 C.ar  165  TRP165      0.0152
    128  NE1      -44.2390   31.5410  187.4790 N.ar  165  TRP165     -0.2442
    129  CE2      -45.2300   30.9050  188.1810 C.ar  165  TRP165      0.0810
    130  CE3      -47.5030   30.1510  187.8020 C.ar  165  TRP165      0.0012
    131  CZ2      -45.2540   30.4580  189.5070 C.ar  165  TRP165      0.0191
    132  CZ3      -47.5260   29.6950  189.1150 C.ar  165  TRP165      0.0001
    133  CH2      -46.4030   29.8430  189.9480 C.ar  165  TRP165      0.0015
@<TRIPOS>BOND
     1   100   101    2
     2   100    99    1
     3   109   108    2
     4   108   107    1
     5    99    98    1
     6    99   102    1
     7   106   107    1
     8   103   102    1
     9   103   105    1
    10   122   123    2
    11   122   121    1
    12   120   121    1
    13   107   110    1
    14   102   104    1
    15   118   116   ar
    16   118   119   ar
    17   116   113   ar
    18     1     2    1
    19   121   124    1
    20   110   111    1
    21    89    90    2
    22    89    88    1
    23   124   125    1
    24     4     3    2
    25   119   117   ar
    26   113   111   ar
    27   113   115   ar
    28   111   112   ar
    29     2     3    1
    30     2     5    1
    31    88    87    1
    32    88    91    1
    33   117   115   ar
    34     8    10   ar
    35     8     6   ar
    36   115   114   ar
    37   125   126   ar
    38   125   127   ar
    39    92    91    1
    40    92    93    1
    41    10    11   ar
    42   126   128   ar
    43     5     6    1
    44   112   114   ar
    45     6     7   ar
    46    33    32    2
    47    97    95    1
    48    96    95    1
    49    95    94    2
    50    11    12    1
    51    11     9   ar
    52    94    93    1
    53   127   130   ar
    54   127   129   ar
    55   128   129   ar
    56     7     9   ar
    57    35    34    1
    58    13    14    1
    59    16    15    2
    60    32    31    1
    61   130   132   ar
    62   129   131   ar
    63    34    31    1
    64    34    36    1
    65    15    14    1
    66    31    30    1
    67    14    17    1
    68   132   133   ar
    69    37    38    1
    70    30    26   am
    71   131   133   ar
    72    17    18    1
    73    18    19    1
    74    42    41    1
    75    40    39    2
    76    20    19    1
    77    20    21    2
    78    23    21    1
    79    43    41    1
    80    21    22    1
    81    38    41    1
    82    38    39    1
    83    26    25    1
    84    26    27    2
    85    29    28    1
    86    25    28    1
    87    25    24    1
    88    52    51    1
    89    64    63    1
    90    85    86   ar
    91    85    83   ar
    92    86    84   ar
    93    61    63   ar
    94    61    59   ar
    95    51    50    1
    96    63    62   ar
    97    83    80   ar
    98    84    82   ar
    99    59    58   ar
   100    80    82   ar
   101    80    78   ar
   102    82    81   ar
   103    62    60   ar
   104    71    70    1
   105    50    49    1
   106    72    70    1
   107    78    77    1
   108    78    79   ar
   109    81    79   ar
   110    58    60   ar
   111    58    57    1
   112    77    74    1
   113    70    69    1
   114    49    48    1
   115    76    75    2
   116    57    54    1
   117    74    75    1
   118    74    73    1
   119    69    66    1
   120    48    45    1
   121    66    65    1
   122    66    67    1
   123    54    55    1
   124    54    53    1
   125    46    45    1
   126    46    47    2
   127    45    44    1
   128    56    55    2
   129    68    67    2
