@<TRIPOS>MOLECULE
tmp/5u6uA01.pdb
 122 114 0 0 0
SMALL
GASTEIGER

@<TRIPOS>ATOM
      1  N         -0.9240    5.8570   25.3040 N.3    64  VAL64      -0.1245
      2  CA        -1.0950    4.4050   25.4970 C.3    64  VAL64       0.1561
      3  C         -0.0700    3.8910   26.4970 C.2    64  VAL64       0.2260
      4  O          0.0810    2.6690   26.7020 O.2    64  VAL64      -0.2867
      5  CB        -0.9730    3.6120   24.1660 C.3    64  VAL64       0.0252
      6  CG1       -2.0770    4.0220   23.2020 C.3    64  VAL64       0.0019
      7  CG2        0.3760    3.7860   23.5680 C.3    64  VAL64       0.0019
      8  N          7.7060   13.1320   24.4620 N.3    76  ARG76      -0.1245
      9  CA         8.0000   13.5360   23.0880 C.3    76  ARG76       0.1563
     10  C          6.6430   13.9110   22.4880 C.2    76  ARG76       0.2260
     11  O          5.6100   13.4900   23.0130 O.2    76  ARG76      -0.2867
     12  CB         8.6690   12.4300   22.2460 C.3    76  ARG76       0.0307
     13  CG         7.8170   11.1980   22.0780 C.3    76  ARG76       0.0489
     14  CD         8.3840   10.1380   21.1120 C.3    76  ARG76       0.2205
     15  NE         7.4060    9.0740   20.9390 N.pl3  76  ARG76      -0.0865
     16  CZ         7.5170    8.0820   20.0520 C.cat  76  ARG76       0.5346
     17  NH1        8.5520    8.0090   19.2180 N.pl3  76  ARG76       0.1354
     18  NH2        6.5580    7.1940   19.9720 N.pl3  76  ARG76       0.1354
     19  N          2.5540   10.6990   18.9860 N.3    79  SER79      -0.1217
     20  CA         2.4870   10.0270   17.7180 C.3    79  SER79       0.1889
     21  C          1.1770   10.3790   17.0370 C.2    79  SER79       0.2288
     22  O          0.1190   10.3460   17.6640 O.2    79  SER79      -0.2866
     23  CB         2.5850    8.5120   17.8950 C.3    79  SER79       0.2089
     24  OG         2.3460    7.8730   16.6590 O.3    79  SER79      -0.2183
     25  N         -0.3310    8.7250   14.8730 N.3    81  ILE81      -0.1231
     26  CA        -1.1220    7.5800   14.5310 C.3    81  ILE81       0.1692
     27  C         -1.4190    6.7380   15.7830 C.2    81  ILE81       0.2591
     28  O         -2.5750    6.4800   16.0590 O.2    81  ILE81      -0.2718
     29  CB        -0.4540    6.7550   13.4180 C.3    81  ILE81       0.0266
     30  CG1       -1.3050    5.5340   13.1410 C.3    81  ILE81       0.0019
     31  CG2        0.9760    6.3720   13.7590 C.3    81  ILE81       0.0020
     32  CD1       -0.8520    4.7190   11.9600 C.3    81  ILE81       0.0001
     33  N         -0.3970    6.3810   16.5590 N.am   82  LEU82      -0.1980
     34  CA        -0.5810    5.5260   17.7520 C.3    82  LEU82       0.1596
     35  C         -1.3850    6.2430   18.8180 C.2    82  LEU82       0.2287
     36  O         -2.2030    5.6350   19.5090 O.2    82  LEU82      -0.2864
     37  CB         0.7840    5.1060   18.3200 C.3    82  LEU82       0.0297
     38  CG         0.7550    4.2050   19.5710 C.3    82  LEU82       0.0022
     39  CD1        0.3470    2.8120   19.1960 C.3    82  LEU82       0.0001
     40  CD2        2.1140    4.1810   20.2610 C.3    82  LEU82       0.0001
     41  N         11.5150    4.1320   23.7570 N.3   165  VAL165     -0.1231
     42  CA        10.0780    4.2840   23.4570 C.3   165  VAL165      0.1692
     43  C          9.2500    3.2950   24.2700 C.2   165  VAL165      0.2592
     44  O          8.2770    3.6630   24.9310 O.2   165  VAL165     -0.2718
     45  CB         9.8000    4.1060   21.9420 C.3   165  VAL165      0.0266
     46  CG1        8.2900    3.9400   21.6460 C.3   165  VAL165      0.0020
     47  CG2       10.3410    5.2980   21.1480 C.3   165  VAL165      0.0020
     48  N          9.6510    2.0330   24.2640 N.am  166  PHE166     -0.1976
     49  CA         8.8500    1.0230   24.9390 C.3   166  PHE166      0.1639
     50  C          8.9420    1.0920   26.4630 C.2   166  PHE166      0.2290
     51  O          7.9740    0.8390   27.1620 O.2   166  PHE166     -0.2864
     52  CB         9.2240   -0.3500   24.3750 C.3   166  PHE166      0.0560
     53  CG         8.6340   -0.5760   23.0190 C.ar  166  PHE166     -0.0200
     54  CD1        7.3190   -0.9800   22.9030 C.ar  166  PHE166     -0.0042
     55  CD2        9.3540   -0.3140   21.8700 C.ar  166  PHE166     -0.0042
     56  CE1        6.7440   -1.1680   21.6540 C.ar  166  PHE166     -0.0003
     57  CE2        8.7950   -0.4960   20.6180 C.ar  166  PHE166     -0.0003
     58  CZ         7.4770   -0.9110   20.5070 C.ar  166  PHE166     -0.0000
     59  N          6.4280    3.8620   27.7060 N.3   169  PHE169     -0.1241
     60  CA         5.0070    3.5450   27.8810 C.3   169  PHE169      0.1605
     61  C          4.7580    3.1140   29.3260 C.2   169  PHE169      0.2264
     62  O          3.6110    3.0050   29.7460 O.2   169  PHE169     -0.2867
     63  CB         4.5120    2.4040   26.9790 C.3   169  PHE169      0.0534
     64  CG         4.5300    2.7190   25.5000 C.ar  169  PHE169     -0.0203
     65  CD1        3.9590    3.9000   25.0130 C.ar  169  PHE169     -0.0042
     66  CD2        5.1070    1.8400   24.6050 C.ar  169  PHE169     -0.0042
     67  CE1        3.9810    4.1860   23.6610 C.ar  169  PHE169     -0.0003
     68  CE2        5.1300    2.1380   23.2390 C.ar  169  PHE169     -0.0003
     69  CZ         4.5690    3.3050   22.7760 C.ar  169  PHE169     -0.0000
     70  N          8.8730    8.8840   12.0720 N.3   227  ARG227     -0.1231
     71  CA         9.2820    8.6220   13.4490 C.3   227  ARG227      0.1694
     72  C          8.5770    7.3870   13.9730 C.2   227  ARG227      0.2592
     73  O          9.1590    6.5800   14.6760 O.2   227  ARG227     -0.2718
     74  CB         8.9740    9.8160   14.3610 C.3   227  ARG227      0.0321
     75  CG         9.7700    9.7810   15.6640 C.3   227  ARG227      0.0489
     76  CD         9.2400   10.7770   16.7190 C.3   227  ARG227      0.2205
     77  NE         7.8520   10.4690   17.0480 N.pl3 227  ARG227     -0.0865
     78  CZ         7.1050   11.1450   17.9050 C.cat 227  ARG227      0.5346
     79  NH1        5.8560   10.7680   18.1360 N.pl3 227  ARG227      0.1354
     80  NH2        7.6000   12.2100   18.4990 N.pl3 227  ARG227      0.1354
     81  N          7.2970    7.2480   13.6210 N.am  228  SER228     -0.1952
     82  CA         6.5420    6.0870   14.0140 C.3   228  SER228      0.1924
     83  C          7.1910    4.7860   13.5350 C.2   228  SER228      0.2314
     84  O          7.2710    3.8200   14.3000 O.2   228  SER228     -0.2863
     85  CB         5.1040    6.1810   13.4810 C.3   228  SER228      0.2116
     86  OG         4.3040    7.0290   14.2680 O.3   228  SER228     -0.2180
     87  N         10.2020    4.0180   15.3630 N.3   231  SER231     -0.1202
     88  CA         9.9650    3.7190   16.7760 C.3   231  SER231      0.2020
     89  C          9.5570    2.2420   16.8900 C.2   231  SER231      0.2618
     90  O         10.0140    1.5270   17.7680 O.2   231  SER231     -0.2717
     91  CB         8.8810    4.6100   17.3900 C.3   231  SER231      0.2103
     92  OG         9.2490    5.9940   17.3770 O.3   231  SER231     -0.2182
     93  N          8.6720    1.8350   15.9900 N.am  232  ALA232     -0.1979
     94  CA         7.8600    0.6350   16.1290 C.3   232  ALA232      0.1597
     95  C          8.3450   -0.5320   15.2880 C.2   232  ALA232      0.2287
     96  O          7.9250   -1.6770   15.4960 O.2   232  ALA232     -0.2864
     97  CB         6.3950    0.9570   15.7410 C.3   232  ALA232      0.0319
     98  N         10.6340   -4.4360   17.6930 N.3   236  THR236     -0.1218
     99  CA         9.5550   -5.4030   17.8000 C.3   236  THR236      0.1862
    100  C          9.8860   -6.6690   16.9990 C.2   236  THR236      0.2287
    101  O          9.7460   -7.8080   17.4800 O.2   236  THR236     -0.2866
    102  CB         8.2540   -4.8100   17.2670 C.3   236  THR236      0.1770
    103  OG1        8.4910   -4.2820   15.9610 O.3   236  THR236     -0.2211
    104  CG2        7.7490   -3.6870   18.1390 C.3   236  THR236      0.0375
    105  N          5.1940   -7.3650   22.2580 N.3   279  VAL279     -0.1245
    106  CA         4.6150   -6.1840   22.8870 C.3   279  VAL279      0.1561
    107  C          3.6260   -6.7220   23.8920 C.2   279  VAL279      0.2260
    108  O          2.5490   -7.2110   23.5450 O.2   279  VAL279     -0.2867
    109  CB         3.9400   -5.2160   21.8730 C.3   279  VAL279      0.0252
    110  CG1        3.2690   -4.0220   22.5780 C.3   279  VAL279      0.0019
    111  CG2        4.9790   -4.6520   20.9290 C.3   279  VAL279      0.0019
    112  N         -0.0180   -2.4880   26.9860 N.3   282  PHE282     -0.1241
    113  CA        -0.1190   -1.0160   26.9330 C.3   282  PHE282      0.1605
    114  C         -1.5360   -0.6020   27.3360 C.2   282  PHE282      0.2264
    115  O         -2.3750   -1.4470   27.6640 O.2   282  PHE282     -0.2867
    116  CB         0.2480   -0.4760   25.5370 C.3   282  PHE282      0.0534
    117  CG        -0.4130   -1.1990   24.4070 C.ar  282  PHE282     -0.0203
    118  CD1       -1.7500   -0.9680   24.0970 C.ar  282  PHE282     -0.0042
    119  CD2        0.3000   -2.1080   23.6480 C.ar  282  PHE282     -0.0042
    120  CE1       -2.3680   -1.6310   23.0530 C.ar  282  PHE282     -0.0003
    121  CE2       -0.2990   -2.7940   22.5980 C.ar  282  PHE282     -0.0003
    122  CZ        -1.6440   -2.5660   22.2910 C.ar  282  PHE282     -0.0000
@<TRIPOS>BOND
     1    32    30    1
     2    70    71    1
     3    30    29    1
     4    29    31    1
     5    29    26    1
     6    71    72    1
     7    71    74    1
     8    85    82    1
     9    85    86    1
    10    83    82    1
    11    83    84    2
    12    81    72   am
    13    81    82    1
    14    72    73    2
    15    74    75    1
    16    26    25    1
    17    26    27    1
    18    95    96    2
    19    95    94    1
    20    87    88    1
    21    75    76    1
    22    97    94    1
    23    27    28    2
    24    27    33   am
    25   103   102    1
    26    93    94    1
    27    93    89   am
    28    33    34    1
    29    24    23    1
    30    76    77    1
    31    88    89    1
    32    88    91    1
    33    89    90    2
    34   100   101    2
    35   100    99    1
    36    21    22    2
    37    21    20    1
    38    77    78    2
    39   102    99    1
    40   102   104    1
    41    92    91    1
    42    98    99    1
    43    20    23    1
    44    20    19    1
    45    34    37    1
    46    34    35    1
    47    78    79    1
    48    78    80    1
    49    37    38    1
    50    35    36    2
    51    39    38    1
    52    17    16    1
    53    38    40    1
    54    18    16    1
    55    16    15    2
    56    58    57   ar
    57    58    56   ar
    58    57    55   ar
    59   111   109    1
    60    15    14    1
    61    14    13    1
    62    47    45    1
    63    46    45    1
    64    56    54   ar
    65    55    53   ar
    66   109   110    1
    67   109   106    1
    68    45    42    1
    69    13    12    1
    70    12     9    1
    71   105   106    1
    72   122   121   ar
    73   122   120   ar
    74    10    11    2
    75    10     9    1
    76   121   119   ar
    77    69    68   ar
    78    69    67   ar
    79   106   107    1
    80    54    53   ar
    81    53    52    1
    82   120   118   ar
    83     9     8    1
    84     6     5    1
    85    68    66   ar
    86    42    41    1
    87    42    43    1
    88   108   107    2
    89     7     5    1
    90   119   117   ar
    91    67    65   ar
    92   118   117   ar
    93     5     2    1
    94    48    43   am
    95    48    49    1
    96    43    44    2
    97    52    49    1
    98   117   116    1
    99    66    64   ar
   100    49    50    1
   101    65    64   ar
   102     1     2    1
   103     2     3    1
   104    64    63    1
   105   116   113    1
   106    50    51    2
   107     3     4    2
   108   113   112    1
   109   113   114    1
   110    63    60    1
   111   114   115    2
   112    59    60    1
   113    60    61    1
   114    61    62    2
