@<TRIPOS>MOLECULE
tmp/5u6vA00.pdb
 158 156 0 0 0
SMALL
GASTEIGER

@<TRIPOS>ATOM
      1  N        -16.0870    4.2920   -9.0740 N.3    24  TRP24      -0.1228
      2  CA       -17.4370    4.0180   -8.5870 C.3    24  TRP24       0.1722
      3  C        -17.6130    2.6400   -7.9500 C.2    24  TRP24       0.2437
      4  O        -18.4150    2.5450   -7.0050 O.2    24  TRP24      -0.2733
      5  CB       -18.4630    4.2370   -9.7150 C.3    24  TRP24       0.0563
      6  CG       -18.3590    3.3150  -10.8840 C.ar   24  TRP24       0.0003
      7  CD1      -17.7370    3.5640  -12.0840 C.ar   24  TRP24       0.0946
      8  CD2      -18.9060    1.9960  -10.9790 C.ar   24  TRP24       0.0152
      9  NE1      -17.8650    2.4650  -12.9140 N.ar   24  TRP24      -0.2442
     10  CE2      -18.5760    1.4940  -12.2570 C.ar   24  TRP24       0.0810
     11  CE3      -19.6480    1.1880  -10.1070 C.ar   24  TRP24       0.0012
     12  CZ2      -18.9600    0.2220  -12.6770 C.ar   24  TRP24       0.0191
     13  CZ3      -20.0230   -0.0770  -10.5300 C.ar   24  TRP24       0.0001
     14  CH2      -19.6800   -0.5440  -11.8030 C.ar   24  TRP24       0.0015
     15  N        -16.9270    1.5700   -8.3690 N.am   25  PRO25      -0.2718
     16  CA       -17.0920    0.2930   -7.6490 C.3    25  PRO25       0.1535
     17  C        -16.6830    0.3730   -6.1870 C.2    25  PRO25       0.2598
     18  O        -17.0810   -0.4840   -5.3920 O.2    25  PRO25      -0.2715
     19  CB       -16.1880   -0.6750   -8.4260 C.3    25  PRO25       0.0310
     20  CG       -16.0370   -0.0610   -9.7710 C.3    25  PRO25       0.0237
     21  CD       -16.0100    1.4270   -9.5140 C.3    25  PRO25       0.0939
     22  N        -15.8970    1.3710   -5.8070 N.am   26  PHE26      -0.1974
     23  CA       -15.3470    1.4520   -4.4660 C.3    26  PHE26       0.1639
     24  C        -16.0930    2.4480   -3.6000 C.2    26  PHE26       0.2290
     25  O        -15.6860    2.6900   -2.4560 O.2    26  PHE26      -0.2864
     26  CB       -13.8510    1.7940   -4.5670 C.3    26  PHE26       0.0560
     27  CG       -13.1250    0.8610   -5.4830 C.ar   26  PHE26      -0.0200
     28  CD1      -12.7780   -0.4190   -5.0530 C.ar   26  PHE26      -0.0042
     29  CD2      -12.8810    1.2150   -6.7980 C.ar   26  PHE26      -0.0042
     30  CE1      -12.1630   -1.3120   -5.9150 C.ar   26  PHE26      -0.0003
     31  CE2      -12.2670    0.3390   -7.6680 C.ar   26  PHE26      -0.0003
     32  CZ       -11.9030   -0.9330   -7.2260 C.ar   26  PHE26      -0.0000
     33  N        -19.2110    2.3210   -2.2310 N.3    28  LYS28      -0.1231
     34  CA       -20.0350    1.7660   -1.1680 C.3    28  LYS28       0.1678
     35  C        -19.5750    0.3580   -0.8250 C.2    28  LYS28       0.2434
     36  O        -18.9020   -0.2940   -1.6270 O.2    28  LYS28      -0.2733
     37  CB       -21.5080    1.7260   -1.5940 C.3    28  LYS28       0.0284
     38  CG       -22.0560    3.0950   -1.9490 C.3    28  LYS28       0.0035
     39  CD       -22.2630    3.9420   -0.7020 C.3    28  LYS28       0.0206
     40  CE       -22.7190    5.3580   -1.0670 C.3    28  LYS28       0.1093
     41  NZ       -23.4350    6.0180    0.0530 N.3    28  LYS28      -0.1314
     42  N        -19.9570   -0.1590    0.3440 N.am   29  PRO29      -0.2718
     43  CA       -19.6090   -1.5540    0.6690 C.3    29  PRO29       0.1535
     44  C        -20.1200   -2.5050   -0.4060 C.2    29  PRO29       0.2598
     45  O        -21.2180   -2.3300   -0.9410 O.2    29  PRO29      -0.2715
     46  CB       -20.3070   -1.7950    2.0160 C.3    29  PRO29       0.0310
     47  CG       -20.5470   -0.4120    2.5880 C.3    29  PRO29       0.0237
     48  CD       -20.7670    0.4830    1.3900 C.3    29  PRO29       0.0939
     49  N        -19.3070   -3.5180   -0.7320 N.am   30  VAL30      -0.1964
     50  CA       -19.7630   -4.5690   -1.6440 C.3    30  VAL30       0.1727
     51  C        -21.0170   -5.2150   -1.0680 C.2    30  VAL30       0.2616
     52  O        -21.0120   -5.7240    0.0610 O.2    30  VAL30      -0.2715
     53  CB       -18.6620   -5.6150   -1.8770 C.3    30  VAL30       0.0290
     54  CG1      -19.2070   -6.7840   -2.7090 C.3    30  VAL30       0.0023
     55  CG2      -17.4540   -5.0040   -2.5850 C.3    30  VAL30       0.0023
     56  N        -22.1050   -5.1870   -1.8380 N.am   31  ASP31      -0.1971
     57  CA       -23.3500   -5.8620   -1.4650 C.3    31  ASP31       0.1709
     58  C        -23.3200   -7.2120   -2.1710 C.2    31  ASP31       0.2293
     59  O        -23.8150   -7.3660   -3.2930 O.2    31  ASP31      -0.2864
     60  CB       -24.5740   -5.0370   -1.8480 C.3    31  ASP31       0.1436
     61  CG       -25.8690   -5.6530   -1.3430 C.2    31  ASP31       0.3671
     62  OD1      -25.8690   -6.8700   -1.0540 O.co2  31  ASP31      -0.2456
     63  OD2      -26.8830   -4.9280   -1.2330 O.co2  31  ASP31      -0.2456
     64  N        -25.1650   -8.5760   -5.6630 N.3    35  LEU35      -0.1245
     65  CA       -24.3290   -8.7900   -6.8340 C.3    35  LEU35       0.1561
     66  C        -24.2020  -10.2580   -7.2120 C.2    35  LEU35       0.2260
     67  O        -23.5890  -10.5660   -8.2400 O.2    35  LEU35      -0.2867
     68  CB       -22.9390   -8.1970   -6.5970 C.3    35  LEU35       0.0270
     69  CG       -22.8770   -6.6660   -6.4800 C.3    35  LEU35       0.0019
     70  CD1      -21.4780   -6.2110   -6.0710 C.3    35  LEU35       0.0001
     71  CD2      -23.3010   -6.0110   -7.7840 C.3    35  LEU35       0.0001
     72  N        -22.4910  -12.4730   -5.4720 N.3    37  LEU37      -0.1245
     73  CA       -21.1670  -12.9570   -5.0780 C.3    37  LEU37       0.1561
     74  C        -21.2550  -13.6490   -3.7200 C.2    37  LEU37       0.2260
     75  O        -20.7560  -13.1680   -2.7020 O.2    37  LEU37      -0.2867
     76  CB       -20.1700  -11.8020   -5.0490 C.3    37  LEU37       0.0270
     77  CG       -20.2500  -10.8500   -6.2370 C.3    37  LEU37       0.0019
     78  CD1      -19.3480   -9.6390   -6.0130 C.3    37  LEU37       0.0001
     79  CD2      -19.9050  -11.5560   -7.5460 C.3    37  LEU37       0.0001
     80  N        -18.2140  -14.0260   -1.4540 N.3    40  TYR40      -0.1241
     81  CA       -17.3980  -12.8390   -1.1740 C.3    40  TYR40       0.1605
     82  C        -16.9350  -12.7970    0.2810 C.2    40  TYR40       0.2264
     83  O        -15.7560  -12.5500    0.5660 O.2    40  TYR40      -0.2867
     84  CB       -18.1790  -11.5570   -1.5090 C.3    40  TYR40       0.0534
     85  CG       -17.2900  -10.3260   -1.4530 C.ar   40  TYR40      -0.0201
     86  CD1      -16.4200  -10.0380   -2.4920 C.ar   40  TYR40      -0.0009
     87  CD2      -17.2780   -9.4950   -0.3310 C.ar   40  TYR40      -0.0009
     88  CE1      -15.5740   -8.9230   -2.4360 C.ar   40  TYR40       0.0417
     89  CE2      -16.4190   -8.3870   -0.2590 C.ar   40  TYR40       0.0417
     90  CZ       -15.5780   -8.1100   -1.3170 C.ar   40  TYR40       0.1957
     91  OH       -14.7250   -7.0220   -1.2730 O.3    40  TYR40      -0.2866
     92  N         -8.8730   -1.9130    0.9520 N.3    75  MET75      -0.1245
     93  CA        -9.9340   -1.9090   -0.0480 C.3    75  MET75       0.1570
     94  C         -9.4200   -2.4300   -1.3870 C.2    75  MET75       0.2261
     95  O        -10.0670   -3.2590   -2.0380 O.2    75  MET75      -0.2867
     96  CB       -10.4960   -0.4900   -0.1750 C.3    75  MET75       0.0387
     97  CG       -11.5590   -0.2880   -1.2270 C.3    75  MET75       0.0595
     98  SD       -11.9550    1.4690   -1.3610 S.3    75  MET75      -0.1393
     99  CE       -10.5390    2.0230   -2.3260 C.3    75  MET75       0.0692
    100  N        -10.0380   -6.2790   -3.5490 N.3    79  CYS79      -0.1235
    101  CA       -10.3510   -6.4100   -4.9650 C.3    79  CYS79       0.1677
    102  C         -9.3570   -7.3350   -5.6650 C.2    79  CYS79       0.2270
    103  O         -9.7530   -8.1760   -6.4830 O.2    79  CYS79      -0.2867
    104  CB       -10.3660   -5.0210   -5.6050 C.3    79  CYS79       0.0956
    105  SG       -10.9670   -4.9420   -7.2980 S.3    79  CYS79      -0.0801
    106  N        -10.1540  -11.0680   -4.5270 N.3    82  TYR82      -0.1227
    107  CA       -11.4030  -11.7390   -4.8780 C.3    82  TYR82       0.1736
    108  C        -11.5200  -11.9920   -6.3800 C.2    82  TYR82       0.2595
    109  O        -12.0760  -13.0170   -6.7990 O.2    82  TYR82      -0.2718
    110  CB       -12.6050  -10.9220   -4.3910 C.3    82  TYR82       0.0548
    111  CG       -13.9020  -11.6030   -4.7610 C.ar   82  TYR82      -0.0200
    112  CD1      -14.3380  -12.7220   -4.0630 C.ar   82  TYR82      -0.0009
    113  CD2      -14.6500  -11.1750   -5.8560 C.ar   82  TYR82      -0.0009
    114  CE1      -15.4980  -13.3790   -4.4230 C.ar   82  TYR82       0.0417
    115  CE2      -15.8090  -11.8190   -6.2210 C.ar   82  TYR82       0.0417
    116  CZ       -16.2280  -12.9260   -5.5010 C.ar   82  TYR82       0.1957
    117  OH       -17.3790  -13.5770   -5.8620 O.3    82  TYR82      -0.2866
    118  N        -11.0100  -11.0750   -7.2000 N.am   83  ASN83      -0.1974
    119  CA       -11.2480  -11.0650   -8.6390 C.3    83  ASN83       0.1688
    120  C        -10.0510  -11.5960   -9.4150 C.2    83  ASN83       0.2292
    121  O         -8.8980  -11.3540   -9.0380 O.2    83  ASN83      -0.2864
    122  CB       -11.5350   -9.6400   -9.1140 C.3    83  ASN83       0.1181
    123  CG       -12.8080   -9.0840   -8.5190 C.2    83  ASN83       0.2629
    124  OD1      -13.8950   -9.4000   -8.9850 O.2    83  ASN83      -0.2716
    125  ND2      -12.6780   -8.2570   -7.4870 N.am   83  ASN83      -0.0877
    126  N         -9.7870   -9.0040  -14.6790 N.3    87  HIS87      -0.1226
    127  CA       -11.1470   -8.4920  -14.5950 C.3    87  HIS87       0.1752
    128  C        -11.1540   -6.9700  -14.7340 C.2    87  HIS87       0.2596
    129  O        -10.2310   -6.2750  -14.3010 O.2    87  HIS87      -0.2718
    130  CB       -11.7800   -8.9210  -13.2670 C.3    87  HIS87       0.0759
    131  CG       -13.2650   -8.7350  -13.2040 C.ar   87  HIS87       0.0818
    132  ND1      -13.8650   -7.4940  -13.2570 N.ar   87  HIS87      -0.2268
    133  CD2      -14.2710   -9.6330  -13.0690 C.ar   87  HIS87       0.1154
    134  CE1      -15.1750   -7.6350  -13.1670 C.ar   87  HIS87       0.1986
    135  NE2      -15.4490   -8.9230  -13.0510 N.ar   87  HIS87      -0.2212
    136  N        -12.2170   -6.4510  -15.3530 N.am   88  ASP88      -0.1960
    137  CA       -12.3600   -5.0040  -15.4980 C.3    88  ASP88       0.1840
    138  C        -12.2360   -4.2810  -14.1590 C.2    88  ASP88       0.2621
    139  O        -11.6100   -3.2160  -14.0760 O.2    88  ASP88      -0.2715
    140  CB       -13.7100   -4.6760  -16.1490 C.3    88  ASP88       0.1450
    141  CG       -13.7880   -5.1320  -17.5960 C.2    88  ASP88       0.3671
    142  OD1      -12.7720   -5.0300  -18.3180 O.co2  88  ASP88      -0.2456
    143  OD2      -14.8700   -5.5950  -18.0070 O.co2  88  ASP88      -0.2456
    144  N        -12.8220   -4.8400  -13.0950 N.am   89  VAL89      -0.1977
    145  CA       -12.8190   -4.1180  -11.8250 C.3    89  VAL89       0.1596
    146  C        -11.4140   -4.0470  -11.2430 C.2    89  VAL89       0.2287
    147  O        -11.0840   -3.1020  -10.5130 O.2    89  VAL89      -0.2864
    148  CB       -13.8010   -4.7460  -10.8230 C.3    89  VAL89       0.0276
    149  CG1      -13.2960   -6.1150  -10.3410 C.3    89  VAL89       0.0022
    150  CG2      -14.0020   -3.8020   -9.6340 C.3    89  VAL89       0.0022
    151  N         -9.7610   -1.1250  -12.8510 N.3    92  MET92      -0.1245
    152  CA       -10.2130    0.1030  -12.2030 C.3    92  MET92       0.1570
    153  C         -9.5290    0.3130  -10.8520 C.2    92  MET92       0.2261
    154  O         -9.1290    1.4380  -10.5210 O.2    92  MET92      -0.2867
    155  CB       -11.7330    0.0620  -12.0520 C.3    92  MET92       0.0387
    156  CG       -12.4370   -0.0340  -13.4000 C.3    92  MET92       0.0595
    157  SD       -14.1720   -0.5390  -13.2400 S.3    92  MET92      -0.1393
    158  CE       -14.9530    0.9900  -12.7960 C.3    92  MET92       0.0692
@<TRIPOS>BOND
     1   142   141   ar
     2   143   141   ar
     3   141   140    1
     4   140   137    1
     5   137   136    1
     6   137   138    1
     7   136   128   am
     8   128   127    1
     9   128   129    2
    10   126   127    1
    11   127   130    1
    12   138   139    2
    13   138   144   am
    14   156   157    1
    15   156   155    1
    16   130   131    1
    17   132   131   ar
    18   132   134   ar
    19   157   158    1
    20   131   133   ar
    21   134   135   ar
    22   144   145    1
    23   133   135   ar
    24     9    10   ar
    25     9     7   ar
    26   151   152    1
    27    12    10   ar
    28    12    14   ar
    29    10     8   ar
    30   152   155    1
    31   152   153    1
    32     7     6   ar
    33   145   146    1
    34   145   148    1
    35    14    13   ar
    36   146   147    2
    37     8     6   ar
    38     8    11   ar
    39     6     5    1
    40   153   154    2
    41   148   149    1
    42   148   150    1
    43    13    11   ar
    44    20    21    1
    45    20    19    1
    46     5     2    1
    47    21    15    1
    48   120   121    2
    49   120   119    1
    50   122   119    1
    51   122   123    1
    52     1     2    1
    53   124   123    2
    54   119   118    1
    55     2     3    1
    56   123   125   am
    57    19    16    1
    58    15     3   am
    59    15    16    1
    60    67    66    2
    61     3     4    2
    62    71    69    1
    63    31    32   ar
    64    31    29   ar
    65    16    17    1
    66    79    77    1
    67   105   104    1
    68    32    30   ar
    69    66    65    1
    70   118   108   am
    71    65    68    1
    72    65    64    1
    73   109   108    2
    74    29    27   ar
    75    68    69    1
    76   103   102    2
    77    69    70    1
    78   108   107    1
    79    77    78    1
    80    77    76    1
    81   115   113   ar
    82   115   116   ar
    83    17    22   am
    84    17    18    2
    85    30    28   ar
    86   117   116    1
    87   113   111   ar
    88    22    23    1
    89   102   101    1
    90   104   101    1
    91   116   114   ar
    92    27    28   ar
    93    27    26    1
    94    72    73    1
    95    73    76    1
    96    73    74    1
    97   101   100    1
    98   107   106    1
    99   107   110    1
   100   111   110    1
   101   111   112   ar
   102    26    23    1
   103    23    24    1
   104   114   112   ar
   105    74    75    2
   106    24    25    2
   107    59    58    2
   108    54    53    1
   109    55    53    1
   110    86    88   ar
   111    86    85   ar
   112    88    90   ar
   113    99    98    1
   114    33    34    1
   115    58    57    1
   116    95    94    2
   117    38    37    1
   118    38    39    1
   119    53    50    1
   120    60    57    1
   121    60    61    1
   122    56    57    1
   123    56    51   am
   124    50    51    1
   125    50    49    1
   126    36    35    2
   127    37    34    1
   128    84    85    1
   129    84    81    1
   130    80    81    1
   131    85    87   ar
   132    94    93    1
   133    98    97    1
   134    61    63   ar
   135    61    62   ar
   136    90    91    1
   137    90    89   ar
   138    97    96    1
   139    81    82    1
   140    34    35    1
   141    51    52    2
   142    40    39    1
   143    40    41    1
   144    45    44    2
   145    35    42   am
   146    49    44   am
   147    44    43    1
   148    87    89   ar
   149    96    93    1
   150    93    92    1
   151    82    83    2
   152    42    43    1
   153    42    48    1
   154    43    46    1
   155    48    47    1
   156    46    47    1
