@<TRIPOS>MOLECULE
tmp/5u6wA01.pdb
 121 113 0 0 0
SMALL
GASTEIGER

@<TRIPOS>ATOM
      1  N          7.6830   13.0080   24.3400 N.3    76  ARG76      -0.1245
      2  CA         8.0200   13.4140   22.9830 C.3    76  ARG76       0.1563
      3  C          6.7160   13.8270   22.3280 C.2    76  ARG76       0.2260
      4  O          5.6550   13.4620   22.8310 O.2    76  ARG76      -0.2867
      5  CB         8.6600   12.2860   22.1890 C.3    76  ARG76       0.0307
      6  CG         7.7130   11.1290   22.0020 C.3    76  ARG76       0.0489
      7  CD         8.3080   10.0370   21.1900 C.3    76  ARG76       0.2205
      8  NE         7.3010    9.0190   20.9320 N.pl3  76  ARG76      -0.0865
      9  CZ         7.4190    8.0770   20.0080 C.cat  76  ARG76       0.5346
     10  NH1        8.5150    8.0160   19.2690 N.pl3  76  ARG76       0.1354
     11  NH2        6.4410    7.2000   19.8260 N.pl3  76  ARG76       0.1354
     12  N          2.6180   10.5380   18.8980 N.3    79  SER79      -0.1217
     13  CA         2.4530    9.8730   17.6140 C.3    79  SER79       0.1889
     14  C          1.1080   10.2550   17.0060 C.2    79  SER79       0.2288
     15  O          0.0840   10.2580   17.6890 O.2    79  SER79      -0.2866
     16  CB         2.5520    8.3550   17.7650 C.3    79  SER79       0.2089
     17  OG         2.1440    7.7070   16.5740 O.3    79  SER79      -0.2183
     18  N         -0.5320    8.5550   14.9430 N.3    81  ILE81      -0.1231
     19  CA        -1.3480    7.3740   14.6930 C.3    81  ILE81       0.1692
     20  C         -1.5760    6.5490   15.9700 C.2    81  ILE81       0.2591
     21  O         -2.7220    6.2860   16.3350 O.2    81  ILE81      -0.2718
     22  CB        -0.7180    6.5000   13.5680 C.3    81  ILE81       0.0266
     23  CG1       -1.5890    5.2740   13.2980 C.3    81  ILE81       0.0019
     24  CG2        0.7570    6.1730   13.8550 C.3    81  ILE81       0.0020
     25  CD1       -1.0890    4.3800   12.1800 C.3    81  ILE81       0.0001
     26  N         -0.5040    6.1390   16.6430 N.am   82  LEU82      -0.1980
     27  CA        -0.6270    5.2980   17.8360 C.3    82  LEU82       0.1596
     28  C         -1.3870    5.9850   18.9630 C.2    82  LEU82       0.2287
     29  O         -2.1560    5.3450   19.6830 O.2    82  LEU82      -0.2864
     30  CB         0.7580    4.8980   18.3440 C.3    82  LEU82       0.0297
     31  CG         0.7730    3.9060   19.5110 C.3    82  LEU82       0.0022
     32  CD1        0.2950    2.5320   19.0750 C.3    82  LEU82       0.0001
     33  CD2        2.1580    3.8310   20.1260 C.3    82  LEU82       0.0001
     34  N         11.3680    4.0180   23.7130 N.3   165  VAL165     -0.1231
     35  CA         9.9550    4.2490   23.4320 C.3   165  VAL165      0.1692
     36  C          9.1200    3.2540   24.1950 C.2   165  VAL165      0.2592
     37  O          8.1240    3.6180   24.8240 O.2   165  VAL165     -0.2718
     38  CB         9.6660    4.1260   21.9180 C.3   165  VAL165      0.0266
     39  CG1        8.1580    4.1430   21.6300 C.3   165  VAL165      0.0020
     40  CG2       10.3330    5.2650   21.1690 C.3   165  VAL165      0.0020
     41  N          9.5390    2.0040   24.1670 N.am  166  PHE166     -0.1976
     42  CA         8.7500    0.9480   24.7460 C.3   166  PHE166      0.1639
     43  C          8.9300    0.9970   26.2630 C.2   166  PHE166      0.2290
     44  O          8.0070    0.6250   27.0010 O.2   166  PHE166     -0.2864
     45  CB         9.0940   -0.4180   24.1500 C.3   166  PHE166      0.0560
     46  CG         8.4470   -0.6430   22.8160 C.ar  166  PHE166     -0.0200
     47  CD1        7.1460   -1.1120   22.7460 C.ar  166  PHE166     -0.0042
     48  CD2        9.1200   -0.3750   21.6400 C.ar  166  PHE166     -0.0042
     49  CE1        6.5290   -1.3090   21.5290 C.ar  166  PHE166     -0.0003
     50  CE2        8.5070   -0.5760   20.4170 C.ar  166  PHE166     -0.0003
     51  CZ         7.2110   -1.0440   20.3620 C.ar  166  PHE166     -0.0000
     52  N          6.3650    3.7380   27.6780 N.3   169  PHE169     -0.1241
     53  CA         4.9620    3.3890   27.8820 C.3   169  PHE169      0.1605
     54  C          4.7330    2.9310   29.3210 C.2   169  PHE169      0.2264
     55  O          3.6000    2.8870   29.7980 O.2   169  PHE169     -0.2867
     56  CB         4.5110    2.2760   26.9390 C.3   169  PHE169      0.0534
     57  CG         4.5620    2.6370   25.4860 C.ar  169  PHE169     -0.0203
     58  CD1        3.8190    3.6870   24.9760 C.ar  169  PHE169     -0.0042
     59  CD2        5.3200    1.8760   24.6150 C.ar  169  PHE169     -0.0042
     60  CE1        3.8710    3.9970   23.6270 C.ar  169  PHE169     -0.0003
     61  CE2        5.3740    2.1770   23.2710 C.ar  169  PHE169     -0.0003
     62  CZ         4.6480    3.2360   22.7740 C.ar  169  PHE169     -0.0000
     63  N          8.8540    8.7160   11.8940 N.3   227  ARG227     -0.1231
     64  CA         9.2920    8.4420   13.2640 C.3   227  ARG227      0.1694
     65  C          8.6230    7.2110   13.8750 C.2   227  ARG227      0.2592
     66  O          9.2600    6.4350   14.5880 O.2   227  ARG227     -0.2718
     67  CB         9.0180    9.6460   14.1670 C.3   227  ARG227      0.0321
     68  CG         9.7120    9.5720   15.5210 C.3   227  ARG227      0.0489
     69  CD         9.1110   10.5660   16.4970 C.3   227  ARG227      0.2205
     70  NE         7.7520   10.1790   16.8740 N.pl3 227  ARG227     -0.0865
     71  CZ         7.0030   10.8220   17.7650 C.cat 227  ARG227      0.5346
     72  NH1        5.7830   10.3850   18.0410 N.pl3 227  ARG227      0.1354
     73  NH2        7.4350   11.9490   18.3160 N.pl3 227  ARG227      0.1354
     74  N          7.3360    7.0390   13.5870 N.am  228  SER228     -0.1952
     75  CA         6.5910    5.8780   14.0590 C.3   228  SER228      0.1924
     76  C          7.2440    4.5700   13.6200 C.2   228  SER228      0.2314
     77  O          7.3930    3.6320   14.4150 O.2   228  SER228     -0.2863
     78  CB         5.1490    5.9190   13.5480 C.3   228  SER228      0.2116
     79  OG         4.3930    6.9120   14.2090 O.3   228  SER228     -0.2180
     80  N         10.3320    3.8960   15.3760 N.3   231  SER231     -0.1202
     81  CA        10.0160    3.4980   16.7400 C.3   231  SER231      0.2020
     82  C          9.5830    2.0410   16.8450 C.2   231  SER231      0.2618
     83  O         10.0820    1.2890   17.6880 O.2   231  SER231     -0.2717
     84  CB         8.9220    4.4010   17.3050 C.3   231  SER231      0.2103
     85  OG         9.3420    5.7500   17.3190 O.3   231  SER231     -0.2182
     86  N          8.6470    1.6530   15.9850 N.am  232  ALA232     -0.1979
     87  CA         7.9650    0.3750   16.1400 C.3   232  ALA232      0.1597
     88  C          8.5110   -0.7350   15.2440 C.2   232  ALA232      0.2287
     89  O          8.2960   -1.9180   15.5110 O.2   232  ALA232     -0.2864
     90  CB         6.4960    0.5750   15.8630 C.3   232  ALA232      0.0319
     91  N         10.5920   -4.5780   17.7480 N.3   236  THR236     -0.1218
     92  CA         9.5180   -5.5650   17.7550 C.3   236  THR236      0.1862
     93  C          9.8690   -6.8370   16.9760 C.2   236  THR236      0.2287
     94  O          9.7070   -7.9610   17.4710 O.2   236  THR236     -0.2866
     95  CB         8.2320   -4.9700   17.1720 C.3   236  THR236      0.1770
     96  OG1        8.5110   -4.3700   15.8980 O.3   236  THR236     -0.2211
     97  CG2        7.6580   -3.9270   18.1100 C.3   236  THR236      0.0375
     98  N          5.2750   -7.6170   22.2130 N.3   279  VAL279     -0.1245
     99  CA         4.6500   -6.4700   22.8550 C.3   279  VAL279      0.1561
    100  C          3.6620   -6.9830   23.9020 C.2   279  VAL279      0.2260
    101  O          2.5870   -7.4790   23.5650 O.2   279  VAL279     -0.2867
    102  CB         3.9200   -5.5750   21.8340 C.3   279  VAL279      0.0252
    103  CG1        3.1640   -4.4600   22.5320 C.3   279  VAL279      0.0019
    104  CG2        4.9080   -4.9880   20.8340 C.3   279  VAL279      0.0019
    105  N         -0.4680   -2.9170   26.6780 N.3   282  PHE282     -0.1241
    106  CA        -0.7480   -1.5000   26.4110 C.3   282  PHE282      0.1605
    107  C         -1.8450   -0.9420   27.2910 C.2   282  PHE282      0.2264
    108  O         -2.6600   -1.6950   27.7900 O.2   282  PHE282     -0.2867
    109  CB        -1.1090   -1.2800   24.9340 C.3   282  PHE282      0.0534
    110  CG         0.0840   -1.0170   24.0550 C.ar  282  PHE282     -0.0203
    111  CD1        0.8890    0.0870   24.2830 C.ar  282  PHE282     -0.0042
    112  CD2        0.3980   -1.8600   23.0050 C.ar  282  PHE282     -0.0042
    113  CE1        1.9840    0.3450   23.4890 C.ar  282  PHE282     -0.0003
    114  CE2        1.4970   -1.6030   22.2080 C.ar  282  PHE282     -0.0003
    115  CZ         2.2900   -0.4970   22.4560 C.ar  282  PHE282     -0.0000
    116  N         -1.6210   -3.6100   14.3580 N.3   342  CYS342     -0.1235
    117  CA        -0.3070   -3.3230   13.7700 C.3   342  CYS342      0.1677
    118  C         -0.3190   -3.0430   12.2710 C.2   342  CYS342      0.2270
    119  O         -0.5840   -3.9380   11.4640 O.2   342  CYS342     -0.2867
    120  CB         0.6660   -4.4560   14.0430 C.3   342  CYS342      0.0956
    121  SG         2.3160   -4.0710   13.4210 S.3   342  CYS342     -0.0801
@<TRIPOS>BOND
     1   119   118    2
     2    63    64    1
     3    25    23    1
     4   118   117    1
     5    64    65    1
     6    64    67    1
     7    23    22    1
     8   121   120    1
     9    78    75    1
    10    78    79    1
    11    22    24    1
    12    22    19    1
    13    74    65   am
    14    74    75    1
    15    76    75    1
    16    76    77    2
    17   117   120    1
    18   117   116    1
    19    65    66    2
    20    67    68    1
    21    19    18    1
    22    19    20    1
    23    88    89    2
    24    88    87    1
    25    80    81    1
    26    68    69    1
    27    90    87    1
    28    96    95    1
    29    20    21    2
    30    20    26   am
    31    86    87    1
    32    86    82   am
    33    69    70    1
    34    17    16    1
    35    26    27    1
    36    81    82    1
    37    81    84    1
    38    82    83    2
    39    70    71    2
    40    93    94    2
    41    93    92    1
    42    14    13    1
    43    14    15    2
    44    95    92    1
    45    95    97    1
    46    84    85    1
    47    13    16    1
    48    13    12    1
    49    91    92    1
    50    71    72    1
    51    71    73    1
    52    27    30    1
    53    27    28    1
    54    30    31    1
    55    28    29    2
    56    32    31    1
    57    10     9    1
    58    31    33    1
    59    11     9    1
    60     9     8    2
    61    51    50   ar
    62    51    49   ar
    63    50    48   ar
    64   104   102    1
    65     8     7    1
    66    40    38    1
    67     7     6    1
    68    49    47   ar
    69    39    38    1
    70    48    46   ar
    71   102   103    1
    72   102    99    1
    73    38    35    1
    74     6     5    1
    75     5     2    1
    76   114   115   ar
    77   114   112   ar
    78    98    99    1
    79     3     4    2
    80     3     2    1
    81   115   113   ar
    82    47    46   ar
    83    62    61   ar
    84    62    60   ar
    85    46    45    1
    86    99   100    1
    87     2     1    1
    88   112   110   ar
    89    61    59   ar
    90    35    34    1
    91    35    36    1
    92   113   111   ar
    93   101   100    2
    94    60    58   ar
    95   110   111   ar
    96   110   109    1
    97    45    42    1
    98    41    36   am
    99    41    42    1
   100    36    37    2
   101    59    57   ar
   102    42    43    1
   103   109   106    1
   104    58    57   ar
   105    57    56    1
   106    43    44    2
   107   106   105    1
   108   106   107    1
   109    56    53    1
   110   107   108    2
   111    52    53    1
   112    53    54    1
   113    54    55    2
