@<TRIPOS>MOLECULE
tmp/5u6xA01.pdb
 182 175 0 0 0
SMALL
GASTEIGER

@<TRIPOS>ATOM
      1  N         48.8080  164.9680   31.4370 N.3    62  LEU62      -0.1245
      2  CA        47.9960  166.0250   30.8490 C.3    62  LEU62       0.1561
      3  C         47.4710  167.0150   31.8850 C.2    62  LEU62       0.2260
      4  O         47.1290  168.1440   31.5160 O.2    62  LEU62      -0.2867
      5  CB        46.8350  165.4090   30.0680 C.3    62  LEU62       0.0270
      6  CG        47.2190  164.6520   28.7960 C.3    62  LEU62       0.0019
      7  CD1       46.0320  163.8610   28.3000 C.3    62  LEU62       0.0001
      8  CD2       47.7600  165.6070   27.7160 C.3    62  LEU62       0.0001
      9  N         45.8960  162.5370   19.7610 N.3    85  VAL85      -0.1245
     10  CA        44.6400  162.3880   20.5090 C.3    85  VAL85       0.1561
     11  C         43.5030  161.9740   19.5820 C.2    85  VAL85       0.2260
     12  O         42.8090  160.9760   19.8190 O.2    85  VAL85      -0.2867
     13  CB        44.2890  163.6900   21.2530 C.3    85  VAL85       0.0252
     14  CG1       42.8400  163.6660   21.6730 C.3    85  VAL85       0.0019
     15  CG2       45.1760  163.8760   22.4820 C.3    85  VAL85       0.0019
     16  N         42.2070  157.8970   19.7430 N.3    89  ARG89      -0.1245
     17  CA        40.8450  157.7620   20.2590 C.3    89  ARG89       0.1563
     18  C         39.8880  157.2180   19.2010 C.2    89  ARG89       0.2260
     19  O         39.2390  156.1780   19.4010 O.2    89  ARG89      -0.2867
     20  CB        40.3390  159.1040   20.7770 C.3    89  ARG89       0.0307
     21  CG        41.0690  159.6390   21.9540 C.3    89  ARG89       0.0489
     22  CD        40.9420  158.6910   23.1250 C.3    89  ARG89       0.2205
     23  NE        41.2450  159.3880   24.3680 N.pl3  89  ARG89      -0.0865
     24  CZ        41.3530  158.7970   25.5530 C.cat  89  ARG89       0.5346
     25  NH1       41.2310  157.4760   25.6540 N.pl3  89  ARG89       0.1354
     26  NH2       41.5840  159.5310   26.6360 N.pl3  89  ARG89       0.1354
     27  N         34.2220  173.2240   25.2110 N.3   317  TYR317     -0.1227
     28  CA        33.4220  172.1970   25.8740 C.3   317  TYR317      0.1736
     29  C         34.3000  171.0670   26.4080 C.2   317  TYR317      0.2595
     30  O         34.4270  170.8700   27.6270 O.2   317  TYR317     -0.2718
     31  CB        32.4040  171.6450   24.8720 C.3   317  TYR317      0.0548
     32  CG        31.4170  170.6060   25.3800 C.ar  317  TYR317     -0.0200
     33  CD1       30.2050  170.9780   25.9550 C.ar  317  TYR317     -0.0009
     34  CD2       31.7010  169.2500   25.2780 C.ar  317  TYR317     -0.0009
     35  CE1       29.3050  170.0290   26.3990 C.ar  317  TYR317      0.0417
     36  CE2       30.8080  168.2970   25.7270 C.ar  317  TYR317      0.0417
     37  CZ        29.6180  168.6910   26.2860 C.ar  317  TYR317      0.1957
     38  OH        28.7430  167.7280   26.7290 O.3   317  TYR317     -0.2866
     39  N         34.9310  170.3290   25.4910 N.am  318  VAL318     -0.1980
     40  CA        35.8010  169.2310   25.8940 C.3   318  VAL318      0.1595
     41  C         37.0110  169.7530   26.6580 C.2   318  VAL318      0.2287
     42  O         37.6060  169.0260   27.4620 O.2   318  VAL318     -0.2864
     43  CB        36.2150  168.4110   24.6610 C.3   318  VAL318      0.0276
     44  CG1       37.0870  167.2100   25.0710 C.3   318  VAL318      0.0022
     45  CG2       34.9730  167.9810   23.8690 C.3   318  VAL318      0.0022
     46  N         35.7250  169.9550   30.1510 N.3   321  LEU321     -0.1231
     47  CA        35.6400  168.6050   30.7060 C.3   321  LEU321      0.1693
     48  C         37.0150  168.0470   31.0600 C.2   321  LEU321      0.2592
     49  O         37.1710  167.3870   32.0950 O.2   321  LEU321     -0.2718
     50  CB        34.9350  167.6570   29.7430 C.3   321  LEU321      0.0284
     51  CG        33.4190  167.5860   29.7150 C.3   321  LEU321      0.0019
     52  CD1       32.8850  168.7030   28.8650 C.3   321  LEU321      0.0001
     53  CD2       32.9900  166.2340   29.1700 C.3   321  LEU321      0.0001
     54  N         38.0250  168.3080   30.2200 N.am  322  SER322     -0.1952
     55  CA        39.3010  167.6000   30.3160 C.3   322  SER322      0.1924
     56  C         40.1600  168.1110   31.4610 C.2   322  SER322      0.2314
     57  O         40.8600  167.3230   32.1110 O.2   322  SER322     -0.2863
     58  CB        40.0950  167.7330   29.0110 C.3   322  SER322      0.2116
     59  OG        40.6270  169.0410   28.8490 O.3   322  SER322     -0.2180
     60  N         42.7390  169.5140   30.8250 N.3   324  TYR324     -0.1241
     61  CA        44.0840  169.4150   30.2720 C.3   324  TYR324      0.1605
     62  C         44.7390  170.7840   30.1270 C.2   324  TYR324      0.2264
     63  O         44.1120  171.7450   29.6760 O.2   324  TYR324     -0.2867
     64  CB        44.0570  168.7380   28.9060 C.3   324  TYR324      0.0534
     65  CG        43.6700  167.2840   28.9330 C.ar  324  TYR324     -0.0201
     66  CD1       43.5710  166.5890   30.1270 C.ar  324  TYR324     -0.0009
     67  CD2       43.3930  166.6020   27.7530 C.ar  324  TYR324     -0.0009
     68  CE1       43.2030  165.2420   30.1430 C.ar  324  TYR324      0.0417
     69  CE2       43.0260  165.2610   27.7620 C.ar  324  TYR324      0.0417
     70  CZ        42.9330  164.5900   28.9540 C.ar  324  TYR324      0.1957
     71  OH        42.5780  163.2650   28.9690 O.3   324  TYR324     -0.2866
     72  N         43.3170  171.9410   23.5360 N.3   328  LEU328     -0.1245
     73  CA        42.7620  171.2210   22.3980 C.3   328  LEU328      0.1561
     74  C         42.5490  172.1980   21.2360 C.2   328  LEU328      0.2260
     75  O         42.4690  173.4210   21.4250 O.2   328  LEU328     -0.2867
     76  CB        41.4570  170.5300   22.7960 C.3   328  LEU328      0.0270
     77  CG        41.7000  169.5670   23.9660 C.3   328  LEU328      0.0019
     78  CD1       40.3940  169.0080   24.5170 C.3   328  LEU328      0.0001
     79  CD2       42.6500  168.4570   23.5640 C.3   328  LEU328      0.0001
     80  N         26.7420  154.9790   23.9880 N.3   350  PHE350     -0.1241
     81  CA        27.1910  156.3620   24.0150 C.3   350  PHE350      0.1605
     82  C         26.1170  157.3230   24.4790 C.2   350  PHE350      0.2264
     83  O         26.4550  158.3610   25.0590 O.2   350  PHE350     -0.2867
     84  CB        27.7490  156.7890   22.6540 C.3   350  PHE350      0.0534
     85  CG        28.1580  158.2330   22.6030 C.ar  350  PHE350     -0.0203
     86  CD1       28.9710  158.7680   23.5930 C.ar  350  PHE350     -0.0042
     87  CD2       27.8150  159.0290   21.5230 C.ar  350  PHE350     -0.0042
     88  CE1       29.3560  160.0950   23.5550 C.ar  350  PHE350     -0.0003
     89  CE2       28.2230  160.3550   21.4670 C.ar  350  PHE350     -0.0003
     90  CZ        28.9930  160.8880   22.4840 C.ar  350  PHE350     -0.0000
     91  N         26.0230  156.1660   28.2150 N.3   353  LEU353     -0.1231
     92  CA        27.1800  156.8130   28.8250 C.3   353  LEU353      0.1693
     93  C         26.9120  158.2810   29.1480 C.2   353  LEU353      0.2592
     94  O         27.4130  158.8030   30.1530 O.2   353  LEU353     -0.2718
     95  CB        28.3710  156.6960   27.8750 C.3   353  LEU353      0.0284
     96  CG        29.6820  157.3760   28.2290 C.3   353  LEU353      0.0019
     97  CD1       30.8160  156.6090   27.5750 C.3   353  LEU353      0.0001
     98  CD2       29.6480  158.8170   27.7400 C.3   353  LEU353      0.0001
     99  N         26.1510  158.9700   28.2950 N.am  354  TYR354     -0.1976
    100  CA        26.0810  160.4250   28.3180 C.3   354  TYR354      0.1639
    101  C         24.9630  160.9420   29.2260 C.2   354  TYR354      0.2290
    102  O         24.7040  162.1520   29.2550 O.2   354  TYR354     -0.2864
    103  CB        25.8890  160.9510   26.8860 C.3   354  TYR354      0.0560
    104  CG        26.5070  162.3150   26.6090 C.ar  354  TYR354     -0.0198
    105  CD1       27.7850  162.4200   26.0720 C.ar  354  TYR354     -0.0009
    106  CD2       25.8470  163.4820   26.9150 C.ar  354  TYR354     -0.0009
    107  CE1       28.3630  163.6430   25.8130 C.ar  354  TYR354      0.0417
    108  CE2       26.4330  164.7100   26.6730 C.ar  354  TYR354      0.0417
    109  CZ        27.6860  164.7790   26.1220 C.ar  354  TYR354      0.1957
    110  OH        28.2540  166.0030   25.8780 O.3   354  TYR354     -0.2866
    111  N         24.1280  162.4770   32.0080 N.3   356  TRP356     -0.1241
    112  CA        24.9140  163.2390   32.9820 C.3   356  TRP356      0.1605
    113  C         24.0460  164.0380   33.9560 C.2   356  TRP356      0.2264
    114  O         24.3930  165.1640   34.3320 O.2   356  TRP356     -0.2867
    115  CB        25.8720  164.1710   32.2530 C.3   356  TRP356      0.0550
    116  CG        26.9890  163.4740   31.5560 C.ar  356  TRP356      0.0003
    117  CD1       27.3040  162.1520   31.6380 C.ar  356  TRP356      0.0946
    118  CD2       27.9720  164.0710   30.6930 C.ar  356  TRP356      0.0152
    119  NE1       28.4210  161.8860   30.8760 N.ar  356  TRP356     -0.2442
    120  CE2       28.8470  163.0490   30.2880 C.ar  356  TRP356      0.0810
    121  CE3       28.1910  165.3710   30.2240 C.ar  356  TRP356      0.0012
    122  CZ2       29.9210  163.2840   29.4340 C.ar  356  TRP356      0.0191
    123  CZ3       29.2530  165.6010   29.3830 C.ar  356  TRP356      0.0001
    124  CH2       30.1050  164.5650   28.9930 C.ar  356  TRP356      0.0015
    125  N         36.0890  165.8230   37.3030 N.3   486  ILE486     -0.1231
    126  CA        34.6320  165.7570   37.2910 C.3   486  ILE486      0.1692
    127  C         34.0910  164.3330   37.2690 C.2   486  ILE486      0.2592
    128  O         32.9070  164.1340   37.5720 O.2   486  ILE486     -0.2718
    129  CB        34.0530  166.5440   36.1050 C.3   486  ILE486      0.0266
    130  CG1       32.5280  166.6130   36.2180 C.3   486  ILE486      0.0019
    131  CG2       34.5000  165.9280   34.7750 C.3   486  ILE486      0.0020
    132  CD1       31.8920  167.6410   35.3060 C.3   486  ILE486      0.0001
    133  N         34.9080  163.3420   36.9220 N.am  487  PHE487     -0.1976
    134  CA        34.5200  161.9340   37.0130 C.3   487  PHE487      0.1639
    135  C         35.7530  161.0640   36.7940 C.2   487  PHE487      0.2290
    136  O         36.8380  161.5600   36.4790 O.2   487  PHE487     -0.2864
    137  CB        33.3960  161.5660   36.0390 C.3   487  PHE487      0.0560
    138  CG        33.5880  162.0930   34.6490 C.ar  487  PHE487     -0.0200
    139  CD1       32.7980  163.1350   34.1810 C.ar  487  PHE487     -0.0042
    140  CD2       34.5710  161.5900   33.8260 C.ar  487  PHE487     -0.0042
    141  CE1       32.9570  163.6330   32.9010 C.ar  487  PHE487     -0.0003
    142  CE2       34.7370  162.0990   32.5530 C.ar  487  PHE487     -0.0003
    143  CZ        33.9190  163.1180   32.0960 C.ar  487  PHE487     -0.0000
    144  N         34.6730  156.9190   32.2780 N.3   491  MET491     -0.1230
    145  CA        33.9750  157.9210   31.4800 C.3   491  MET491      0.1702
    146  C         34.9360  158.6230   30.5160 C.2   491  MET491      0.2592
    147  O         34.5480  158.9470   29.3870 O.2   491  MET491     -0.2718
    148  CB        33.2740  158.9300   32.4000 C.3   491  MET491      0.0401
    149  CG        32.4230  159.9500   31.6840 C.3   491  MET491      0.0596
    150  SD        30.8900  159.2620   31.0670 S.3   491  MET491     -0.1393
    151  CE        29.9060  159.3440   32.5650 C.3   491  MET491      0.0692
    152  N         36.1920  158.8410   30.9210 N.am  492  ILE492     -0.1980
    153  CA        37.1640  159.4660   30.0200 C.3   492  ILE492      0.1595
    154  C         37.4250  158.5690   28.8190 C.2   492  ILE492      0.2287
    155  O         37.1370  158.9330   27.6730 O.2   492  ILE492     -0.2864
    156  CB        38.4850  159.7650   30.7510 C.3   492  ILE492      0.0276
    157  CG1       38.3310  160.8290   31.8250 C.3   492  ILE492      0.0022
    158  CG2       39.5320  160.2230   29.7460 C.3   492  ILE492      0.0022
    159  CD1       38.1440  162.1900   31.2440 C.3   492  ILE492      0.0001
    160  N         34.0380  157.6450   26.8260 N.3   495  GLY495     -0.1210
    161  CA        33.3220  158.7180   26.1590 C.3   495  GLY495      0.1956
    162  C         34.1560  159.4780   25.1440 C.2   495  GLY495      0.2611
    163  O         33.6310  159.9310   24.1240 O.2   495  GLY495     -0.2717
    164  N         35.4550  159.6240   25.3980 N.am  496  ALA496     -0.1979
    165  CA        36.2950  160.4170   24.5020 C.3   496  ALA496      0.1597
    166  C         36.3140  159.8590   23.0920 C.2   496  ALA496      0.2287
    167  O         36.1220  160.6340   22.1360 O.2   496  ALA496     -0.2864
    168  CB        37.7130  160.5050   25.0680 C.3   496  ALA496      0.0319
    169  N         33.0580  160.8610   21.4460 N.3   499  SER499     -0.1202
    170  CA        32.9290  162.3000   21.2530 C.3   499  SER499      0.2020
    171  C         33.7950  162.7780   20.0890 C.2   499  SER499      0.2618
    172  O         33.3260  163.5270   19.2200 O.2   499  SER499     -0.2717
    173  CB        33.3030  163.0350   22.5460 C.3   499  SER499      0.2103
    174  OG        32.3700  162.7790   23.5840 O.3   499  SER499     -0.2182
    175  N         35.0440  162.3170   20.0150 N.am  500  LEU500     -0.1979
    176  CA        35.9060  162.8350   18.9590 C.3   500  LEU500      0.1596
    177  C         35.5600  162.2210   17.6060 C.2   500  LEU500      0.2287
    178  O         35.5100  162.9350   16.5920 O.2   500  LEU500     -0.2864
    179  CB        37.3750  162.6130   19.3220 C.3   500  LEU500      0.0297
    180  CG        37.7900  163.4020   20.5730 C.3   500  LEU500      0.0022
    181  CD1       39.2300  163.1260   20.9290 C.3   500  LEU500      0.0001
    182  CD2       37.5720  164.8840   20.3950 C.3   500  LEU500      0.0001
@<TRIPOS>BOND
     1   178   177    2
     2   177   176    1
     3   176   179    1
     4   176   175    1
     5    18    19    2
     6    18    17    1
     7   172   171    2
     8   179   180    1
     9    11    12    2
    10    11    10    1
    11    16    17    1
    12     9    10    1
    13   175   171   am
    14   171   170    1
    15    17    20    1
    16   182   180    1
    17    10    13    1
    18   180   181    1
    19    20    21    1
    20    74    75    2
    21    74    73    1
    22    13    14    1
    23    13    15    1
    24   170   169    1
    25   170   173    1
    26    89    87   ar
    27    89    90   ar
    28    87    85   ar
    29    21    22    1
    30   167   166    2
    31    73    76    1
    32    73    72    1
    33    90    88   ar
    34   173   174    1
    35    85    84    1
    36    85    86   ar
    37    84    81    1
    38    76    77    1
    39   166   165    1
    40    22    23    1
    41    88    86   ar
    42    79    77    1
    43    45    43    1
    44    77    78    1
    45    80    81    1
    46    81    82    1
    47   163   162    2
    48    23    24    2
    49    82    83    2
    50   165   168    1
    51   165   164    1
    52    43    44    1
    53    43    40    1
    54    31    32    1
    55    31    28    1
    56   162   164   am
    57   162   161    1
    58    27    28    1
    59    34    32   ar
    60    34    36   ar
    61    32    33   ar
    62    39    40    1
    63    39    29   am
    64    24    25    1
    65    24    26    1
    66    36    37   ar
    67   107   105   ar
    68   107   109   ar
    69    28    29    1
    70   110   109    1
    71    40    41    1
    72    33    35   ar
    73   105   104   ar
    74   109   108   ar
    75   161   160    1
    76    37    35   ar
    77    37    38    1
    78    29    30    2
    79   104   103    1
    80   104   106   ar
    81    41    42    2
    82   108   106   ar
    83   103   100    1
    84    97    96    1
    85   155   154    2
    86     8     6    1
    87    98    96    1
    88    67    69   ar
    89    67    65   ar
    90    69    70   ar
    91    95    96    1
    92    95    92    1
    93    91    92    1
    94    99   100    1
    95    99    93   am
    96     7     6    1
    97   100   101    1
    98     6     5    1
    99   154   153    1
   100    92    93    1
   101    59    58    1
   102    52    51    1
   103    64    65    1
   104    64    61    1
   105    65    66   ar
   106    70    71    1
   107    70    68   ar
   108   124   123   ar
   109   124   122   ar
   110    58    55    1
   111    93    94    2
   112    53    51    1
   113   101   102    2
   114   123   121   ar
   115   147   146    2
   116   122   120   ar
   117    63    62    2
   118    51    50    1
   119    50    47    1
   120   158   156    1
   121   153   156    1
   122   153   152    1
   123     5     2    1
   124    62    61    1
   125    66    68   ar
   126    46    47    1
   127    54    55    1
   128    54    48   am
   129   121   118   ar
   130    61    60    1
   131   120   118   ar
   132   120   119   ar
   133    55    56    1
   134   146   152   am
   135   146   145    1
   136   118   116   ar
   137    47    48    1
   138   156   157    1
   139     2     1    1
   140     2     3    1
   141   119   117   ar
   142    48    49    2
   143   150   149    1
   144   150   151    1
   145   159   157    1
   146    56    57    2
   147   145   144    1
   148   145   148    1
   149     4     3    2
   150   116   117   ar
   151   116   115    1
   152   149   148    1
   153   111   112    1
   154   143   142   ar
   155   143   141   ar
   156   115   112    1
   157   142   140   ar
   158   141   139   ar
   159   112   113    1
   160   140   138   ar
   161   113   114    2
   162   139   138   ar
   163   138   137    1
   164   131   129    1
   165   132   130    1
   166   137   134    1
   167   129   130    1
   168   129   126    1
   169   136   135    2
   170   135   134    1
   171   133   134    1
   172   133   127   am
   173   127   126    1
   174   127   128    2
   175   126   125    1
