@<TRIPOS>MOLECULE
tmp/5u72E00.pdb
 163 158 0 0 0
SMALL
GASTEIGER

@<TRIPOS>ATOM
      1  N          4.8270   30.4010  241.8720 N.3     6  LEU6       -0.1245
      2  CA         4.8980   30.2830  243.3120 C.3     6  LEU6        0.1561
      3  C          5.2380   28.8260  243.5940 C.2     6  LEU6        0.2260
      4  O          4.5400   27.9260  243.1280 O.2     6  LEU6       -0.2867
      5  CB         3.5740   30.7090  243.9530 C.3     6  LEU6        0.0270
      6  CG         3.3520   30.4820  245.4490 C.3     6  LEU6        0.0019
      7  CD1        4.4630   31.1100  246.2720 C.3     6  LEU6        0.0001
      8  CD2        2.0260   31.0790  245.8390 C.3     6  LEU6        0.0001
      9  N          6.5240   26.1390  246.8540 N.3     8  TYR8       -0.1241
     10  CA         6.8740   25.8540  248.2330 C.3     8  TYR8        0.1605
     11  C          7.4730   24.4680  248.3590 C.2     8  TYR8        0.2264
     12  O          6.8970   23.4810  247.8860 O.2     8  TYR8       -0.2867
     13  CB         5.6550   26.0180  249.1310 C.3     8  TYR8        0.0534
     14  CG         5.5270   27.4220  249.6720 C.ar    8  TYR8       -0.0201
     15  CD1        6.0350   27.7430  250.9170 C.ar    8  TYR8       -0.0009
     16  CD2        4.8980   28.4220  248.9470 C.ar    8  TYR8       -0.0009
     17  CE1        5.9300   29.0150  251.4250 C.ar    8  TYR8        0.0417
     18  CE2        4.7920   29.7100  249.4500 C.ar    8  TYR8        0.0417
     19  CZ         5.3120   29.9970  250.6940 C.ar    8  TYR8        0.1957
     20  OH         5.2130   31.2680  251.2230 O.3     8  TYR8       -0.2866
     21  N          9.4440   21.4630  250.8970 N.3    10  ARG10      -0.1245
     22  CA         9.6990   20.9130  252.2270 C.3    10  ARG10       0.1563
     23  C         10.6840   19.7660  252.1200 C.2    10  ARG10       0.2260
     24  O         10.5890   18.9400  251.2160 O.2    10  ARG10      -0.2867
     25  CB         8.4000   20.4590  252.8880 C.3    10  ARG10       0.0307
     26  CG         7.4920   21.6180  253.2320 C.3    10  ARG10       0.0489
     27  CD         6.0880   21.1510  253.5170 C.3    10  ARG10       0.2205
     28  NE         5.1700   22.2770  253.6340 N.pl3  10  ARG10      -0.0865
     29  CZ         3.8520   22.1490  253.7040 C.cat  10  ARG10       0.5346
     30  NH1        3.3040   20.9370  253.6330 N.pl3  10  ARG10       0.1354
     31  NH2        3.0870   23.2310  253.8210 N.pl3  10  ARG10       0.1354
     32  N         11.4570   24.2140  255.3990 N.3    23  SER23      -0.1217
     33  CA        10.4050   24.6220  254.4810 C.3    23  SER23       0.1889
     34  C         10.6850   26.0130  253.9330 C.2    23  SER23       0.2288
     35  O         10.8110   26.9770  254.6830 O.2    23  SER23      -0.2866
     36  CB         9.0450   24.5930  255.1670 C.3    23  SER23       0.2089
     37  OG         8.0210   24.9640  254.2640 O.3    23  SER23      -0.2183
     38  N         10.0430   33.0460  252.0430 N.3    33  THR33      -0.1218
     39  CA         9.8470   32.6040  253.4210 C.3    33  THR33       0.1862
     40  C         10.7290   31.4040  253.7510 C.2    33  THR33       0.2287
     41  O         11.0340   30.5850  252.8710 O.2    33  THR33      -0.2866
     42  CB         8.3720   32.2200  253.6910 C.3    33  THR33       0.1770
     43  OG1        7.9990   31.1230  252.8430 O.3    33  THR33      -0.2211
     44  CG2        7.4330   33.3950  253.4180 C.3    33  THR33       0.0375
     45  N          8.7730   30.7200  261.3480 N.3    42  LYS42      -0.1245
     46  CA         8.6720   31.1140  259.9500 C.3    42  LYS42       0.1561
     47  C          9.1030   32.5690  259.8040 C.2    42  LYS42       0.2260
     48  O          8.5460   33.4550  260.4520 O.2    42  LYS42      -0.2867
     49  CB         7.2460   30.9330  259.4170 C.3    42  LYS42       0.0271
     50  CG         7.1720   30.8190  257.8970 C.3    42  LYS42       0.0035
     51  CD         5.8640   31.3750  257.3560 C.3    42  LYS42       0.0206
     52  CE         5.7150   31.1450  255.8490 C.3    42  LYS42       0.1093
     53  NZ         4.6130   31.9790  255.2670 N.3    42  LYS42      -0.1314
     54  N          0.5250   36.7690  260.5450 N.3    57  HIS57      -0.1241
     55  CA         0.7860   35.8450  259.4580 C.3    57  HIS57       0.1621
     56  C          1.8940   34.8850  259.8730 C.2    57  HIS57       0.2264
     57  O          1.7380   33.6660  259.8020 O.2    57  HIS57      -0.2867
     58  CB         1.1610   36.6000  258.1780 C.3    57  HIS57       0.0745
     59  CG         1.5380   35.7060  257.0380 C.ar   57  HIS57       0.0817
     60  ND1        0.6430   35.3180  256.0660 N.ar   57  HIS57      -0.2268
     61  CD2        2.7150   35.1160  256.7220 C.ar   57  HIS57       0.1154
     62  CE1        1.2550   34.5360  255.1950 C.ar   57  HIS57       0.1986
     63  NE2        2.5130   34.3920  255.5720 N.ar   57  HIS57      -0.2212
     64  N          1.5210   30.7330  260.5430 N.3    61  TYR61      -0.1241
     65  CA         2.2150   29.7420  259.7330 C.3    61  TYR61       0.1605
     66  C          3.3580   29.0650  260.4940 C.2    61  TYR61       0.2264
     67  O          3.6760   27.9110  260.2120 O.2    61  TYR61      -0.2867
     68  CB         2.6950   30.3640  258.4120 C.3    61  TYR61       0.0534
     69  CG         1.5530   30.4100  257.4310 C.ar   61  TYR61      -0.0201
     70  CD1        1.2100   29.2860  256.6770 C.ar   61  TYR61      -0.0009
     71  CD2        0.7730   31.5530  257.2990 C.ar   61  TYR61      -0.0009
     72  CE1        0.1330   29.3160  255.7950 C.ar   61  TYR61       0.0417
     73  CE2       -0.2980   31.5910  256.4300 C.ar   61  TYR61       0.0417
     74  CZ        -0.6170   30.4740  255.6840 C.ar   61  TYR61       0.1957
     75  OH        -1.6920   30.5340  254.8290 O.3    61  TYR61      -0.2866
     76  N          1.5490   26.1820  261.8630 N.3    64  LEU64      -0.1231
     77  CA         1.2810   25.1950  260.8200 C.3    64  LEU64       0.1693
     78  C          2.5370   24.4220  260.4480 C.2    64  LEU64       0.2591
     79  O          2.4820   23.2150  260.2040 O.2    64  LEU64      -0.2718
     80  CB         0.7030   25.8630  259.5640 C.3    64  LEU64       0.0284
     81  CG        -0.6380   26.5530  259.7970 C.3    64  LEU64       0.0019
     82  CD1       -1.0690   27.3030  258.5550 C.3    64  LEU64       0.0001
     83  CD2       -1.7010   25.5560  260.2590 C.3    64  LEU64       0.0001
     84  N          3.6710   25.1120  260.3990 N.am   65  LEU65      -0.1980
     85  CA         4.8970   24.4460  259.9840 C.3    65  LEU65       0.1596
     86  C          5.4340   23.5170  261.0830 C.2    65  LEU65       0.2287
     87  O          6.0300   22.4760  260.7830 O.2    65  LEU65      -0.2864
     88  CB         5.9550   25.4710  259.5640 C.3    65  LEU65       0.0297
     89  CG         5.6960   25.9750  258.1320 C.3    65  LEU65       0.0022
     90  CD1        6.4640   27.2580  257.8270 C.3    65  LEU65       0.0001
     91  CD2        5.9740   24.8950  257.0860 C.3    65  LEU65       0.0001
     92  N          3.6720   20.4950  260.4330 N.3    68  TRP68      -0.1241
     93  CA         4.2090   19.8110  259.2640 C.3    68  TRP68       0.1605
     94  C          5.5180   19.1170  259.5430 C.2    68  TRP68       0.2264
     95  O          5.7760   18.0340  259.0210 O.2    68  TRP68      -0.2867
     96  CB         4.3850   20.7740  258.0920 C.3    68  TRP68       0.0550
     97  CG         3.1280   20.9030  257.3310 C.ar   68  TRP68       0.0003
     98  CD1        2.2280   21.9250  257.3800 C.ar   68  TRP68       0.0946
     99  CD2        2.5980   19.9380  256.4280 C.ar   68  TRP68       0.0152
    100  NE1        1.1790   21.6610  256.5480 N.ar   68  TRP68      -0.2442
    101  CE2        1.3810   20.4450  255.9480 C.ar   68  TRP68       0.0810
    102  CE3        3.0470   18.6970  255.9610 C.ar   68  TRP68       0.0012
    103  CZ2        0.6000   19.7520  255.0180 C.ar   68  TRP68       0.0191
    104  CZ3        2.2770   18.0140  255.0440 C.ar   68  TRP68       0.0001
    105  CH2        1.0650   18.5410  254.5820 C.ar   68  TRP68       0.0015
    106  N          8.6500   17.6570  249.2670 N.3    93  ARG93      -0.1245
    107  CA         7.3630   18.0280  248.7320 C.3    93  ARG93       0.1563
    108  C          7.5310   19.3230  247.9620 C.2    93  ARG93       0.2260
    109  O          8.2340   20.2360  248.4070 O.2    93  ARG93      -0.2867
    110  CB         6.3370   18.1850  249.8550 C.3    93  ARG93       0.0307
    111  CG         4.9090   18.5280  249.4230 C.3    93  ARG93       0.0489
    112  CD         4.1670   19.0240  250.6440 C.3    93  ARG93       0.2205
    113  NE         2.7170   18.9750  250.5270 N.pl3  93  ARG93      -0.0865
    114  CZ         1.9360   20.0490  250.4760 C.cat  93  ARG93       0.5346
    115  NH1        2.4700   21.2630  250.5110 N.pl3  93  ARG93       0.1354
    116  NH2        0.6190   19.9060  250.3900 N.pl3  93  ARG93       0.1354
    117  N          4.9590   22.0880  246.0480 N.3    95  ILE95      -0.1245
    118  CA         3.6400   22.5250  245.6400 C.3    95  ILE95       0.1561
    119  C          3.7400   23.9290  245.0530 C.2    95  ILE95       0.2260
    120  O          4.6240   24.7110  245.4250 O.2    95  ILE95      -0.2867
    121  CB         2.6340   22.5040  246.8110 C.3    95  ILE95       0.0252
    122  CG1        1.1950   22.6140  246.2750 C.3    95  ILE95       0.0019
    123  CG2        2.9420   23.6030  247.8160 C.3    95  ILE95       0.0019
    124  CD1        0.1210   22.3400  247.3230 C.3    95  ILE95       0.0001
    125  N         -7.2310   24.5280  245.7480 N.3   155  TRP155     -0.1241
    126  CA        -6.1160   25.3030  246.2910 C.3   155  TRP155      0.1605
    127  C         -5.1200   25.6580  245.1980 C.2   155  TRP155      0.2264
    128  O         -4.6430   26.7870  245.1310 O.2   155  TRP155     -0.2867
    129  CB        -5.3940   24.5710  247.4250 C.3   155  TRP155      0.0550
    130  CG        -4.4600   25.5190  248.1010 C.ar  155  TRP155      0.0003
    131  CD1       -4.7430   26.3220  249.1670 C.ar  155  TRP155      0.0946
    132  CD2       -3.1130   25.8310  247.7110 C.ar  155  TRP155      0.0152
    133  NE1       -3.6560   27.0990  249.4770 N.ar  155  TRP155     -0.2442
    134  CE2       -2.6400   26.8160  248.6020 C.ar  155  TRP155      0.0810
    135  CE3       -2.2610   25.3660  246.7040 C.ar  155  TRP155      0.0012
    136  CZ2       -1.3470   27.3400  248.5250 C.ar  155  TRP155      0.0191
    137  CZ3       -0.9760   25.8820  246.6320 C.ar  155  TRP155      0.0001
    138  CH2       -0.5330   26.8600  247.5360 C.ar  155  TRP155      0.0015
    139  N         -2.5600   33.8250  245.9140 N.3   163  TRP163     -0.1241
    140  CA        -1.3310   34.0860  246.6790 C.3   163  TRP163      0.1605
    141  C         -0.2420   34.6850  245.7760 C.2   163  TRP163      0.2264
    142  O          0.4110   35.6750  246.1290 O.2   163  TRP163     -0.2867
    143  CB        -0.7970   32.8110  247.3450 C.3   163  TRP163      0.0550
    144  CG        -1.4940   32.3900  248.6180 C.ar  163  TRP163      0.0003
    145  CD1       -2.2530   31.2690  248.8030 C.ar  163  TRP163      0.0946
    146  CD2       -1.4610   33.0610  249.8900 C.ar  163  TRP163      0.0152
    147  NE1       -2.7100   31.2090  250.0980 N.ar  163  TRP163     -0.2442
    148  CE2       -2.2390   32.2970  250.7850 C.ar  163  TRP163      0.0810
    149  CE3       -0.8560   34.2320  250.3540 C.ar  163  TRP163      0.0012
    150  CZ2       -2.4320   32.6710  252.1120 C.ar  163  TRP163      0.0191
    151  CZ3       -1.0510   34.6070  251.6720 C.ar  163  TRP163      0.0001
    152  CH2       -1.8260   33.8260  252.5400 C.ar  163  TRP163      0.0015
    153  N          1.5980   38.2970  246.0840 N.3   167  PHE167     -0.1241
    154  CA         3.0330   38.4530  246.2980 C.3   167  PHE167      0.1605
    155  C          3.6820   39.2430  245.1680 C.2   167  PHE167      0.2264
    156  O          4.6170   40.0100  245.3970 O.2   167  PHE167     -0.2867
    157  CB         3.7070   37.0950  246.4540 C.3   167  PHE167      0.0534
    158  CG         3.3070   36.3660  247.7080 C.ar  167  PHE167     -0.0203
    159  CD1        2.6260   37.0270  248.7240 C.ar  167  PHE167     -0.0042
    160  CD2        3.6140   35.0260  247.8770 C.ar  167  PHE167     -0.0042
    161  CE1        2.2460   36.3640  249.8750 C.ar  167  PHE167     -0.0003
    162  CE2        3.2440   34.3570  249.0320 C.ar  167  PHE167     -0.0003
    163  CZ         2.5610   35.0270  250.0320 C.ar  167  PHE167     -0.0000
@<TRIPOS>BOND
     1     1     2    1
     2     4     3    2
     3     2     3    1
     4     2     5    1
     5     5     6    1
     6   119   120    2
     7   119   118    1
     8   128   127    2
     9   155   156    2
    10   155   154    1
    11   127   126    1
    12     6     8    1
    13     6     7    1
    14   118   117    1
    15   118   121    1
    16   125   126    1
    17   141   142    2
    18   141   140    1
    19   139   140    1
    20   153   154    1
    21   122   121    1
    22   122   124    1
    23   126   129    1
    24   154   157    1
    25   157   158    1
    26   137   135   ar
    27   137   138   ar
    28   140   143    1
    29   135   132   ar
    30   121   123    1
    31     9    10    1
    32   143   144    1
    33   129   130    1
    34   138   136   ar
    35   158   160   ar
    36   158   159   ar
    37   132   130   ar
    38   132   134   ar
    39   160   162   ar
    40    12    11    2
    41   108   109    2
    42   108   107    1
    43   130   131   ar
    44    10    11    1
    45    10    13    1
    46   136   134   ar
    47   134   133   ar
    48   144   145   ar
    49   144   146   ar
    50   159   161   ar
    51   107   106    1
    52   107   110    1
    53   145   147   ar
    54    16    18   ar
    55    16    14   ar
    56   162   163   ar
    57    13    14    1
    58   131   133   ar
    59   111   110    1
    60   111   112    1
    61    18    19   ar
    62    14    15   ar
    63   161   163   ar
    64   146   149   ar
    65   146   148   ar
    66   147   148   ar
    67   149   151   ar
    68   116   114    1
    69   114   115    1
    70   114   113    2
    71   113   112    1
    72    19    20    1
    73    19    17   ar
    74   148   150   ar
    75    21    22    1
    76    15    17   ar
    77    24    23    2
    78   151   152   ar
    79    38    39    1
    80   150   152   ar
    81    23    22    1
    82    22    25    1
    83    43    42    1
    84    41    40    2
    85    25    26    1
    86    26    27    1
    87    44    42    1
    88    39    42    1
    89    39    40    1
    90    27    28    1
    91    30    29    1
    92    28    29    2
    93    29    31    1
    94    34    33    1
    95    34    35    2
    96    37    36    1
    97    33    36    1
    98    33    32    1
    99   105   103   ar
   100   105   104   ar
   101    75    74    1
   102   103   101   ar
   103   104   102   ar
   104    62    63   ar
   105    62    60   ar
   106    53    52    1
   107    63    61   ar
   108    74    72   ar
   109    74    73   ar
   110    72    70   ar
   111    52    51    1
   112   101    99   ar
   113   101   100   ar
   114   102    99   ar
   115    60    59   ar
   116    99    97   ar
   117    73    71   ar
   118   100    98   ar
   119    70    69   ar
   120    61    59   ar
   121    59    58    1
   122    91    89    1
   123    71    69   ar
   124    97    98   ar
   125    97    96    1
   126    51    50    1
   127    69    68    1
   128    90    89    1
   129    50    49    1
   130    96    93    1
   131    89    88    1
   132    58    55    1
   133    68    65    1
   134    82    81    1
   135    95    94    2
   136    93    94    1
   137    93    92    1
   138    49    46    1
   139    55    56    1
   140    55    54    1
   141    80    81    1
   142    80    77    1
   143    88    85    1
   144    65    66    1
   145    65    64    1
   146    81    83    1
   147    57    56    2
   148    47    46    1
   149    47    48    2
   150    46    45    1
   151    85    84    1
   152    85    86    1
   153    79    78    2
   154    67    66    2
   155    84    78   am
   156    78    77    1
   157    87    86    2
   158    77    76    1
