@<TRIPOS>MOLECULE
tmp/5u74A02.pdb
 78 73 0 0 0
SMALL
GASTEIGER

@<TRIPOS>ATOM
      1  N         44.9750   -1.0850  -16.5060 N.3   115  ILE115     -0.1245
      2  CA        44.9930   -1.4960  -15.1060 C.3   115  ILE115      0.1561
      3  C         46.0470   -0.7090  -14.3390 C.2   115  ILE115      0.2260
      4  O         45.8160   -0.2850  -13.1990 O.2   115  ILE115     -0.2867
      5  CB        45.2230   -3.0160  -14.9980 C.3   115  ILE115      0.0252
      6  CG1       43.9300   -3.7750  -15.2960 C.3   115  ILE115      0.0019
      7  CG2       45.7520   -3.3890  -13.6210 C.3   115  ILE115      0.0019
      8  CD1       42.8140   -3.4720  -14.3220 C.3   115  ILE115      0.0001
      9  N         44.6060    2.5120  -13.8070 N.3   118  GLU118     -0.1245
     10  CA        43.4520    2.3380  -12.9320 C.3   118  GLU118      0.1567
     11  C         43.8310    2.3540  -11.4560 C.2   118  GLU118      0.2260
     12  O         42.9380    2.4060  -10.6020 O.2   118  GLU118     -0.2867
     13  CB        42.7300    1.0330  -13.2920 C.3   118  GLU118      0.0388
     14  CG        41.2890    0.9210  -12.7940 C.3   118  GLU118      0.1160
     15  CD        40.4590   -0.0560  -13.6150 C.2   118  GLU118      0.3649
     16  OE1       40.7500   -0.2190  -14.8180 O.co2 118  GLU118     -0.2457
     17  OE2       39.5190   -0.6640  -13.0580 O.co2 118  GLU118     -0.2457
     18  N         28.6920   -1.7170   -5.9280 N.3   143  ASN143     -0.1240
     19  CA        30.0870   -1.7190   -6.3320 C.3   143  ASN143      0.1653
     20  C         30.5110   -0.2860   -6.6240 C.2   143  ASN143      0.2266
     21  O         29.8840    0.4040   -7.4370 O.2   143  ASN143     -0.2867
     22  CB        30.3050   -2.6280   -7.5460 C.3   143  ASN143      0.1155
     23  CG        29.6760   -2.0830   -8.8130 C.2   143  ASN143      0.2627
     24  OD1       30.3740   -1.6190   -9.7100 O.2   143  ASN143     -0.2716
     25  ND2       28.3530   -2.1460   -8.8960 N.am  143  ASN143     -0.0877
     26  N         32.9880    0.4820   -8.2310 N.3   145  ASN145     -0.1240
     27  CA        33.7590    0.4520   -9.4640 C.3   145  ASN145      0.1653
     28  C         33.6380    1.7790  -10.1950 C.2   145  ASN145      0.2266
     29  O         32.5510    2.3510  -10.2990 O.2   145  ASN145     -0.2867
     30  CB        33.2500   -0.6510  -10.3800 C.3   145  ASN145      0.1155
     31  CG        33.8240   -2.0130  -10.0710 C.2   145  ASN145      0.2627
     32  OD1       34.8890   -2.1690   -9.4730 O.2   145  ASN145     -0.2716
     33  ND2       33.0890   -3.0180  -10.5150 N.am  145  ASN145     -0.0877
     34  N         34.7840   -6.5800  -19.6010 N.3   156  GLN156     -0.1231
     35  CA        34.8230   -6.3800  -18.1490 C.3   156  GLN156      0.1698
     36  C         36.2470   -6.2400  -17.6130 C.2   156  GLN156      0.2592
     37  O         36.5260   -6.5840  -16.4620 O.2   156  GLN156     -0.2718
     38  CB        34.0830   -7.5090  -17.4300 C.3   156  GLN156      0.0381
     39  CG        32.5970   -7.5870  -17.7670 C.3   156  GLN156      0.0905
     40  CD        32.3270   -8.1150  -19.1680 C.2   156  GLN156      0.2608
     41  OE1       32.9560   -9.0750  -19.6180 O.2   156  GLN156     -0.2717
     42  NE2       31.3890   -7.4860  -19.8630 N.am  156  GLN156     -0.0878
     43  N         37.1590   -5.7430  -18.4520 N.am  157  ASN157     -0.1960
     44  CA        38.5490   -5.4650  -18.0880 C.3   157  ASN157      0.1819
     45  C         39.2930   -6.6930  -17.5710 C.2   157  ASN157      0.2622
     46  O         40.3090   -6.5590  -16.8810 O.2   157  ASN157     -0.2715
     47  CB        38.6330   -4.3270  -17.0650 C.3   157  ASN157      0.1195
     48  CG        37.8830   -3.0880  -17.5100 C.2   157  ASN157      0.2630
     49  OD1       37.0460   -3.1440  -18.4090 O.2   157  ASN157     -0.2716
     50  ND2       38.1680   -1.9620  -16.8660 N.am  157  ASN157     -0.0877
     51  N         38.8240   -7.8940  -17.8990 N.am  158  SER158     -0.1950
     52  CA        39.4600   -9.1260  -17.4580 C.3   158  SER158      0.1924
     53  C         39.9280   -9.9260  -18.6640 C.2   158  SER158      0.2314
     54  O         39.2260  -10.0140  -19.6760 O.2   158  SER158     -0.2863
     55  CB        38.5080   -9.9720  -16.6020 C.3   158  SER158      0.2116
     56  OG        38.1480   -9.2890  -15.4110 O.3   158  SER158     -0.2180
     57  N         29.9410   -3.3390  -18.4330 N.3   202  GLY202     -0.1210
     58  CA        31.3150   -3.4450  -17.9900 C.3   202  GLY202      0.1956
     59  C         31.4270   -3.3040  -16.4870 C.2   202  GLY202      0.2613
     60  O         30.4230   -3.1910  -15.7820 O.2   202  GLY202     -0.2717
     61  N         32.6690   -3.3720  -16.0060 N.am  203  THR203     -0.1938
     62  CA        33.0110   -2.7100  -14.7580 C.3   203  THR203      0.2028
     63  C         32.3230   -1.3610  -14.7440 C.2   203  THR203      0.2642
     64  O         32.6690   -0.4700  -15.5300 O.2   203  THR203     -0.2714
     65  CB        34.5250   -2.5340  -14.6410 C.3   203  THR203      0.1808
     66  OG1       35.1850   -3.7780  -14.9060 O.3   203  THR203     -0.2208
     67  CG2       34.8920   -2.0460  -13.2600 C.3   203  THR203      0.0379
     68  N         31.3240   -1.2190  -13.8770 N.am  204  PHE204     -0.1973
     69  CA        30.1610   -0.4680  -14.3200 C.3   204  PHE204      0.1639
     70  C         30.4360    1.0110  -14.5610 C.2   204  PHE204      0.2290
     71  O         30.0380    1.8660  -13.7670 O.2   204  PHE204     -0.2864
     72  CB        28.9870   -0.6170  -13.3570 C.3   204  PHE204      0.0560
     73  CG        27.6830   -0.2470  -13.9950 C.ar  204  PHE204     -0.0200
     74  CD1       27.4700   -0.5550  -15.3290 C.ar  204  PHE204     -0.0042
     75  CD2       26.6950    0.4260  -13.3080 C.ar  204  PHE204     -0.0042
     76  CE1       26.2910   -0.2220  -15.9620 C.ar  204  PHE204     -0.0003
     77  CE2       25.5040    0.7670  -13.9410 C.ar  204  PHE204     -0.0003
     78  CZ        25.3090    0.4360  -15.2750 C.ar  204  PHE204     -0.0000
@<TRIPOS>BOND
     1    42    40   am
     2    54    53    2
     3    41    40    2
     4    34    35    1
     5    40    39    1
     6    53    52    1
     7    43    44    1
     8    43    36   am
     9    57    58    1
    10    49    48    2
    11    35    36    1
    12    35    38    1
    13    44    45    1
    14    44    47    1
    15    58    59    1
    16    51    45   am
    17    51    52    1
    18    39    38    1
    19    36    37    2
    20    45    46    2
    21    48    47    1
    22    48    50   am
    23    52    55    1
    24    55    56    1
    25     1     2    1
    26    59    61   am
    27    59    60    2
    28    61    62    1
    29    76    74   ar
    30    76    78   ar
    31    64    63    2
    32    74    73   ar
    33     6     5    1
    34     6     8    1
    35    78    77   ar
    36     2     5    1
    37     2     3    1
    38     5     7    1
    39    66    65    1
    40    16    15   ar
    41    62    63    1
    42    62    65    1
    43    63    68   am
    44    65    67    1
    45    70    69    1
    46    70    71    2
    47     3     4    2
    48    69    68    1
    49    69    72    1
    50    73    72    1
    51    73    75   ar
    52    77    75   ar
    53     9    10    1
    54    15    17   ar
    55    15    14    1
    56    13    10    1
    57    13    14    1
    58    10    11    1
    59    11    12    2
    60    33    31   am
    61    30    31    1
    62    30    27    1
    63    29    28    2
    64    28    27    1
    65    31    32    2
    66    24    23    2
    67    27    26    1
    68    25    23   am
    69    23    22    1
    70    22    19    1
    71    21    20    2
    72    20    19    1
    73    19    18    1
