@<TRIPOS>MOLECULE
tmp/5u74A00.pdb
 128 120 0 0 0
SMALL
GASTEIGER

@<TRIPOS>ATOM
      1  N         36.9740   34.1080  -18.7280 N.3    48  TRP48      -0.1241
      2  CA        36.5140   34.5020  -20.0510 C.3    48  TRP48       0.1605
      3  C         34.9930   34.5840  -20.1390 C.2    48  TRP48       0.2264
      4  O         34.4540   34.7920  -21.2320 O.2    48  TRP48      -0.2867
      5  CB        37.0420   33.5200  -21.0970 C.3    48  TRP48       0.0550
      6  CG        38.5120   33.2570  -20.9880 C.ar   48  TRP48       0.0003
      7  CD1       39.1080   32.1090  -20.5530 C.ar   48  TRP48       0.0946
      8  CD2       39.5760   34.1600  -21.3200 C.ar   48  TRP48       0.0152
      9  NE1       40.4750   32.2410  -20.5920 N.ar   48  TRP48      -0.2442
     10  CE2       40.7890   33.4900  -21.0600 C.ar   48  TRP48       0.0810
     11  CE3       39.6200   35.4690  -21.8120 C.ar   48  TRP48       0.0012
     12  CZ2       42.0330   34.0860  -21.2760 C.ar   48  TRP48       0.0191
     13  CZ3       40.8560   36.0580  -22.0250 C.ar   48  TRP48       0.0001
     14  CH2       42.0450   35.3650  -21.7560 C.ar   48  TRP48       0.0015
     15  N         49.8900   25.9080  -20.6420 N.3   280  LEU280     -0.1245
     16  CA        49.7130   27.3370  -20.8800 C.3   280  LEU280      0.1561
     17  C         50.5560   28.1500  -19.9060 C.2   280  LEU280      0.2260
     18  O         51.2780   29.0710  -20.3080 O.2   280  LEU280     -0.2867
     19  CB        48.2330   27.7080  -20.7640 C.3   280  LEU280      0.0270
     20  CG        47.7060   28.8460  -21.6430 C.3   280  LEU280      0.0019
     21  CD1       46.1970   28.9460  -21.5140 C.3   280  LEU280      0.0001
     22  CD2       48.3540   30.1810  -21.3060 C.3   280  LEU280      0.0001
     23  N         54.0530   28.0460  -21.0340 N.3   283  GLU283     -0.1231
     24  CA        54.3890   28.9850  -22.0990 C.3   283  GLU283      0.1699
     25  C         54.4070   30.4240  -21.5940 C.2   283  GLU283      0.2592
     26  O         55.1140   31.2690  -22.1570 O.2   283  GLU283     -0.2718
     27  CB        53.4030   28.8380  -23.2580 C.3   283  GLU283      0.0402
     28  CG        53.7150   29.7120  -24.4650 C.3   283  GLU283      0.1161
     29  CD        52.8410   29.3920  -25.6620 C.2   283  GLU283      0.3649
     30  OE1       53.3120   29.5460  -26.8090 O.co2 283  GLU283     -0.2457
     31  OE2       51.6800   28.9860  -25.4540 O.co2 283  GLU283     -0.2457
     32  N         53.6660   30.7180  -20.5260 N.am  284  SER284     -0.1952
     33  CA        53.6160   32.0680  -19.9760 C.3   284  SER284      0.1924
     34  C         54.8940   32.4220  -19.2190 C.2   284  SER284      0.2314
     35  O         54.9060   33.3620  -18.4190 O.2   284  SER284     -0.2863
     36  CB        52.3980   32.2150  -19.0610 C.3   284  SER284      0.2116
     37  OG        52.5000   33.3740  -18.2520 O.3   284  SER284     -0.2180
     38  N         58.5690   34.2040  -22.3030 N.3   287  ASP287     -0.1239
     39  CA        58.6970   35.5880  -22.7330 C.3   287  ASP287      0.1674
     40  C         59.1490   36.5310  -21.6280 C.2   287  ASP287      0.2266
     41  O         59.6010   37.6380  -21.9380 O.2   287  ASP287     -0.2867
     42  CB        57.3590   36.0920  -23.2800 C.3   287  ASP287      0.1410
     43  CG        56.2360   35.9560  -22.2710 C.2   287  ASP287      0.3668
     44  OD1       56.3300   35.0690  -21.3970 O.co2 287  ASP287     -0.2456
     45  OD2       55.2700   36.7440  -22.3390 O.co2 287  ASP287     -0.2456
     46  N         46.1040   38.3510  -15.7080 N.3   343  LEU343     -0.1231
     47  CA        47.4510   38.3780  -16.2730 C.3   343  LEU343      0.1693
     48  C         47.5820   39.3590  -17.4370 C.2   343  LEU343      0.2591
     49  O         48.5600   40.1190  -17.5070 O.2   343  LEU343     -0.2718
     50  CB        47.8480   36.9700  -16.7320 C.3   343  LEU343      0.0284
     51  CG        49.3370   36.7160  -16.9430 C.3   343  LEU343      0.0019
     52  CD1       50.1040   36.7960  -15.6320 C.3   343  LEU343      0.0001
     53  CD2       49.5690   35.3740  -17.6080 C.3   343  LEU343      0.0001
     54  N         46.6150   39.3440  -18.3600 N.am  344  ILE344     -0.1980
     55  CA        46.5970   40.3050  -19.4640 C.3   344  ILE344      0.1595
     56  C         46.6920   41.7280  -18.9310 C.2   344  ILE344      0.2287
     57  O         47.3440   42.5930  -19.5280 O.2   344  ILE344     -0.2864
     58  CB        45.3310   40.0990  -20.3140 C.3   344  ILE344      0.0276
     59  CG1       44.1340   39.8390  -19.4040 C.3   344  ILE344      0.0022
     60  CG2       45.4950   38.9260  -21.2460 C.3   344  ILE344      0.0022
     61  CD1       42.8420   39.6830  -20.1420 C.3   344  ILE344      0.0001
     62  N         50.1440   42.4790  -18.4030 N.3   347  GLU347     -0.1245
     63  CA        50.8940   42.7950  -19.6150 C.3   347  GLU347      0.1567
     64  C         50.5880   44.2040  -20.1140 C.2   347  GLU347      0.2260
     65  O         51.4890   44.9090  -20.5810 O.2   347  GLU347     -0.2867
     66  CB        50.6030   41.7620  -20.7060 C.3   347  GLU347      0.0388
     67  CG        51.1620   42.1180  -22.0830 C.3   347  GLU347      0.1160
     68  CD        52.6410   42.4700  -22.0520 C.2   347  GLU347      0.3649
     69  OE1       53.0030   43.5910  -22.4730 O.co2 347  GLU347     -0.2457
     70  OE2       53.4430   41.6270  -21.6000 O.co2 347  GLU347     -0.2457
     71  N         39.8140   32.4500  -30.9300 N.3   505  LEU505     -0.1245
     72  CA        41.1580   31.9510  -30.7000 C.3   505  LEU505      0.1561
     73  C         41.3270   30.5890  -31.3670 C.2   505  LEU505      0.2260
     74  O         40.3930   29.7860  -31.4350 O.2   505  LEU505     -0.2867
     75  CB        41.4230   31.8570  -29.1960 C.3   505  LEU505      0.0270
     76  CG        42.8360   31.8380  -28.5950 C.3   505  LEU505      0.0019
     77  CD1       43.6220   30.5840  -28.9420 C.3   505  LEU505      0.0001
     78  CD2       43.6080   33.0850  -29.0010 C.3   505  LEU505      0.0001
     79  N         47.5310   28.3270  -29.2910 N.3   510  SER510     -0.1217
     80  CA        47.8130   28.7980  -27.9400 C.3   510  SER510      0.1889
     81  C         48.7380   27.8780  -27.1550 C.2   510  SER510      0.2288
     82  O         49.0680   28.2090  -26.0110 O.2   510  SER510     -0.2866
     83  CB        46.5010   28.9790  -27.1710 C.3   510  SER510      0.2089
     84  OG        45.7700   27.7670  -27.1100 O.3   510  SER510     -0.2183
     85  N         41.4000   39.1670  -25.8210 N.3   797  VAL797     -0.1245
     86  CA        42.7360   39.7480  -25.7100 C.3   797  VAL797      0.1561
     87  C         42.9030   40.8820  -26.7140 C.2   797  VAL797      0.2260
     88  O         43.1960   42.0300  -26.3470 O.2   797  VAL797     -0.2867
     89  CB        43.8140   38.6660  -25.8990 C.3   797  VAL797      0.0252
     90  CG1       45.2000   39.2800  -25.8160 C.3   797  VAL797      0.0019
     91  CG2       43.6510   37.5860  -24.8550 C.3   797  VAL797      0.0019
     92  N         56.3290   32.7480  -27.0010 N.3   863  SER863     -0.1217
     93  CA        54.8860   32.5450  -27.0150 C.3   863  SER863      0.1889
     94  C         54.2940   33.1230  -28.2900 C.2   863  SER863      0.2288
     95  O         54.2910   34.3430  -28.4790 O.2   863  SER863     -0.2866
     96  CB        54.2320   33.1920  -25.7900 C.3   863  SER863      0.2089
     97  OG        54.9230   32.8590  -24.5990 O.3   863  SER863     -0.2183
     98  N         51.3330   33.4430  -29.0230 N.3   865  ILE865     -0.1231
     99  CA        50.3010   34.3960  -28.6250 C.3   865  ILE865      0.1692
    100  C         50.9100   35.7800  -28.4520 C.2   865  ILE865      0.2592
    101  O         50.3280   36.7900  -28.8640 O.2   865  ILE865     -0.2718
    102  CB        49.5980   33.9280  -27.3380 C.3   865  ILE865      0.0266
    103  CG1       49.3130   32.4280  -27.3950 C.3   865  ILE865      0.0019
    104  CG2       48.3120   34.7040  -27.1220 C.3   865  ILE865      0.0020
    105  CD1       50.2460   31.6050  -26.5420 C.3   865  ILE865      0.0001
    106  N         52.0970   35.8460  -27.8480 N.am  866  PHE866     -0.1976
    107  CA        52.7680   37.1270  -27.6600 C.3   866  PHE866      0.1639
    108  C         53.2550   37.6890  -28.9880 C.2   866  PHE866      0.2290
    109  O         53.0650   38.8760  -29.2810 O.2   866  PHE866     -0.2864
    110  CB        53.9320   36.9630  -26.6840 C.3   866  PHE866      0.0560
    111  CG        54.2410   38.1980  -25.8990 C.ar  866  PHE866     -0.0200
    112  CD1       54.9810   39.2250  -26.4560 C.ar  866  PHE866     -0.0042
    113  CD2       53.7850   38.3340  -24.6030 C.ar  866  PHE866     -0.0042
    114  CE1       55.2610   40.3610  -25.7280 C.ar  866  PHE866     -0.0003
    115  CE2       54.0610   39.4650  -23.8710 C.ar  866  PHE866     -0.0003
    116  CZ        54.8000   40.4800  -24.4330 C.ar  866  PHE866     -0.0000
    117  N         50.2980   40.4880  -28.8630 N.3   870  TYR870     -0.1241
    118  CA        50.8050   41.6540  -28.1520 C.3   870  TYR870      0.1605
    119  C         51.8340   42.4190  -28.9750 C.2   870  TYR870      0.2264
    120  O         51.7010   43.6300  -29.1650 O.2   870  TYR870     -0.2867
    121  CB        51.3490   41.2290  -26.7870 C.3   870  TYR870      0.0534
    122  CG        50.2050   41.0560  -25.8210 C.ar  870  TYR870     -0.0201
    123  CD1       49.5260   42.1650  -25.3340 C.ar  870  TYR870     -0.0009
    124  CD2       49.7510   39.7960  -25.4550 C.ar  870  TYR870     -0.0009
    125  CE1       48.4590   42.0320  -24.4790 C.ar  870  TYR870      0.0417
    126  CE2       48.6760   39.6530  -24.5940 C.ar  870  TYR870      0.0417
    127  CZ        48.0370   40.7780  -24.1130 C.ar  870  TYR870      0.1957
    128  OH        46.9700   40.6640  -23.2590 O.3   870  TYR870     -0.2866
@<TRIPOS>BOND
     1    74    73    2
     2    73    72    1
     3    71    72    1
     4    72    75    1
     5    79    80    1
     6   109   108    2
     7    75    76    1
     8   120   119    2
     9    98    99    1
    10    78    76    1
    11   108   107    1
    12   119   118    1
    13    77    76    1
    14   101   100    2
    15   117   118    1
    16    99   100    1
    17    99   102    1
    18    95    94    2
    19   100   106   am
    20    94    93    1
    21   118   121    1
    22    80    83    1
    23    80    81    1
    24   106   107    1
    25   107   110    1
    26   103   102    1
    27   103   105    1
    28   102   104    1
    29    83    84    1
    30    81    82    2
    31    93    92    1
    32    93    96    1
    33    30    29   ar
    34   121   122    1
    35    87    88    2
    36    87    86    1
    37   110   111    1
    38   112   111   ar
    39   112   114   ar
    40   111   113   ar
    41    89    90    1
    42    89    86    1
    43    89    91    1
    44    85    86    1
    45   122   124   ar
    46   122   123   ar
    47    96    97    1
    48   114   116   ar
    49    29    31   ar
    50    29    28    1
    51   124   126   ar
    52   123   125   ar
    53   113   115   ar
    54   126   127   ar
    55   125   127   ar
    56    28    27    1
    57   116   115   ar
    58   127   128    1
    59    42    39    1
    60    42    43    1
    61    27    24    1
    62    39    38    1
    63    39    40    1
    64    69    68   ar
    65    45    43   ar
    66    43    44   ar
    67    26    25    2
    68    24    25    1
    69    24    23    1
    70    67    68    1
    71    67    66    1
    72    68    70   ar
    73    13    11   ar
    74    13    14   ar
    75    41    40    2
    76    11     8   ar
    77    14    12   ar
    78    20    21    1
    79    20    22    1
    80    20    19    1
    81    25    32   am
    82     8    10   ar
    83     8     6   ar
    84    12    10   ar
    85    60    58    1
    86     4     3    2
    87     5     6    1
    88     5     2    1
    89    10     9   ar
    90     6     7   ar
    91    16    19    1
    92    16    15    1
    93    16    17    1
    94    66    63    1
    95     9     7   ar
    96    65    64    2
    97    32    33    1
    98    58    55    1
    99    58    59    1
   100    18    17    2
   101    61    59    1
   102     3     2    1
   103    64    63    1
   104     2     1    1
   105    33    34    1
   106    33    36    1
   107    63    62    1
   108    57    56    2
   109    55    56    1
   110    55    54    1
   111    34    35    2
   112    36    37    1
   113    54    48   am
   114    53    51    1
   115    49    48    2
   116    48    47    1
   117    51    50    1
   118    51    52    1
   119    50    47    1
   120    47    46    1
