@<TRIPOS>MOLECULE
tmp/5u7dA00.pdb
 211 204 0 0 0
SMALL
GASTEIGER

@<TRIPOS>ATOM
      1  N         11.1900   -5.9440   19.2480 N.3    77  TYR77      -0.1227
      2  CA        12.4700   -5.2070   19.2810 C.3    77  TYR77       0.1736
      3  C         13.2240   -5.3130   20.6010 C.2    77  TYR77       0.2595
      4  O         14.4190   -5.5820   20.5820 O.2    77  TYR77      -0.2718
      5  CB        12.2560   -3.7310   18.9000 C.3    77  TYR77       0.0548
      6  CG        13.5310   -2.9190   18.8770 C.ar   77  TYR77      -0.0200
      7  CD1       14.4290   -3.0310   17.8250 C.ar   77  TYR77      -0.0009
      8  CD2       13.8550   -2.0590   19.9290 C.ar   77  TYR77      -0.0009
      9  CE1       15.6120   -2.2960   17.8060 C.ar   77  TYR77       0.0417
     10  CE2       15.0230   -1.2940   19.9050 C.ar   77  TYR77       0.0417
     11  CZ        15.9100   -1.4390   18.8550 C.ar   77  TYR77       0.1957
     12  OH        17.0530   -0.6900   18.8150 O.3    77  TYR77      -0.2866
     13  N         12.5500   -5.0630   21.7320 N.am   78  HIS78      -0.1975
     14  CA        13.2360   -5.0120   23.0330 C.3    78  HIS78       0.1656
     15  C         13.4870   -6.3880   23.6520 C.2    78  HIS78       0.2291
     16  O         12.9750   -6.7240   24.7110 O.2    78  HIS78      -0.2864
     17  CB        12.4940   -4.0690   23.9770 C.3    78  HIS78       0.0771
     18  CG        12.6790   -2.6250   23.6170 C.ar   78  HIS78       0.0820
     19  ND1       11.6570   -1.8830   23.0470 N.ar   78  HIS78      -0.2267
     20  CD2       13.7720   -1.8420   23.7390 C.ar   78  HIS78       0.1154
     21  CE1       12.1520   -0.6690   22.8630 C.ar   78  HIS78       0.1986
     22  NE2       13.4220   -0.5950   23.2660 N.ar   78  HIS78      -0.2212
     23  N         19.0910    6.2470   29.2450 N.3   190  THR190     -0.1203
     24  CA        18.4410    5.6960   28.0270 C.3   190  THR190      0.1994
     25  C         17.0180    6.1980   27.8530 C.2   190  THR190      0.2618
     26  O         16.3960    5.9200   26.8210 O.2   190  THR190     -0.2717
     27  CB        18.4680    4.1560   28.0460 C.3   190  THR190      0.1784
     28  OG1       17.7110    3.7260   29.1690 O.3   190  THR190     -0.2211
     29  CG2       19.9000    3.5720   28.1250 C.3   190  THR190      0.0376
     30  N         16.4990    6.9740   28.8170 N.am  191  ASP191     -0.1959
     31  CA        15.1750    7.5750   28.6380 C.3   191  ASP191      0.1840
     32  C         15.3510    8.8220   27.7460 C.2   191  ASP191      0.2621
     33  O         16.1660    9.6910   28.0590 O.2   191  ASP191     -0.2715
     34  CB        14.6150    7.9820   30.0110 C.3   191  ASP191      0.1450
     35  CG        13.2330    8.6160   30.0000 C.2   191  ASP191      0.3671
     36  OD1       12.6410    8.7440   28.9060 O.co2 191  ASP191     -0.2456
     37  OD2       12.7320    8.9490   31.0860 O.co2 191  ASP191     -0.2456
     38  N         14.5770    8.9270   26.6460 N.am  192  LEU192     -0.1977
     39  CA        14.6420   10.1170   25.7810 C.3   192  LEU192      0.1596
     40  C         14.4770   11.4010   26.6110 C.2   192  LEU192      0.2287
     41  O         15.1380   12.3990   26.3220 O.2   192  LEU192     -0.2864
     42  CB        13.5600   10.0730   24.6850 C.3   192  LEU192      0.0297
     43  CG        13.4240   11.3280   23.7850 C.3   192  LEU192      0.0022
     44  CD1       14.7450   11.6220   23.0320 C.3   192  LEU192      0.0001
     45  CD2       12.3200   11.1260   22.7710 C.3   192  LEU192      0.0001
     46  N         17.8840   12.3760   27.9130 N.3   195  HIS195     -0.1241
     47  CA        18.7170   12.9010   26.8260 C.3   195  HIS195      0.1621
     48  C         18.3270   14.3440   26.4680 C.2   195  HIS195      0.2264
     49  O         19.1870   15.2120   26.2960 O.2   195  HIS195     -0.2867
     50  CB        18.6200   11.9800   25.5970 C.3   195  HIS195      0.0745
     51  CG        19.3360   12.5240   24.4040 C.ar  195  HIS195      0.0817
     52  ND1       20.7020   12.6890   24.4090 N.ar  195  HIS195     -0.2268
     53  CD2       18.8360   13.0120   23.2470 C.ar  195  HIS195      0.1154
     54  CE1       21.0000   13.2400   23.2520 C.ar  195  HIS195      0.1986
     55  NE2       19.9140   13.4430   22.5090 N.ar  195  HIS195     -0.2212
     56  N         23.5520    6.3690   24.8790 N.3   227  THR227     -0.1218
     57  CA        22.5440    6.6300   23.8400 C.3   227  THR227      0.1862
     58  C         23.0590    6.2620   22.4410 C.2   227  THR227      0.2287
     59  O         22.2790    5.7640   21.6530 O.2   227  THR227     -0.2866
     60  CB        21.9740    8.0660   23.9240 C.3   227  THR227      0.1770
     61  OG1       23.0310    8.9930   23.7000 O.3   227  THR227     -0.2211
     62  CG2       21.3280    8.3440   25.2650 C.3   227  THR227      0.0375
     63  N         22.5730    2.5270   22.2630 N.3   230  ASP230     -0.1225
     64  CA        21.1490    2.1790   22.1920 C.3   230  ASP230      0.1805
     65  C         20.5640    2.3980   20.7830 C.2   230  ASP230      0.2597
     66  O         19.6790    1.6510   20.3650 O.2   230  ASP230     -0.2718
     67  CB        20.3860    3.0230   23.2160 C.3   230  ASP230      0.1424
     68  CG        19.1530    2.3670   23.8300 C.2   230  ASP230      0.3668
     69  OD1       18.7660    1.2720   23.3830 O.co2 230  ASP230     -0.2456
     70  OD2       18.5930    2.9410   24.7600 O.co2 230  ASP230     -0.2456
     71  N         21.0690    3.4250   20.0550 N.am  231  LEU231     -0.1979
     72  CA        20.5760    3.7350   18.7090 C.3   231  LEU231      0.1596
     73  C         21.4580    3.1910   17.5880 C.2   231  LEU231      0.2287
     74  O         21.2070    3.5000   16.4160 O.2   231  LEU231     -0.2864
     75  CB        20.4400    5.2740   18.5200 C.3   231  LEU231      0.0297
     76  CG        19.5680    6.0730   19.4710 C.3   231  LEU231      0.0022
     77  CD1       19.3950    7.5150   18.9910 C.3   231  LEU231      0.0001
     78  CD2       18.2980    5.3940   19.8190 C.3   231  LEU231      0.0001
     79  N         21.7800    0.5420   15.8520 N.3   233  ASP233     -0.1225
     80  CA        21.2950   -0.1100   14.6140 C.3   233  ASP233      0.1805
     81  C         21.2780    0.8680   13.4340 C.2   233  ASP233      0.2597
     82  O         21.4280    0.4400   12.2730 O.2   233  ASP233     -0.2718
     83  CB        19.8880   -0.6670   14.7940 C.3   233  ASP233      0.1424
     84  CG        19.7910   -1.8270   15.7760 C.2   233  ASP233      0.3668
     85  OD1       20.6710   -2.7200   15.7420 O.co2 233  ASP233     -0.2456
     86  OD2       18.8020   -1.8790   16.5140 O.co2 233  ASP233     -0.2456
     87  N         21.1140    2.1700   13.7180 N.am  234  GLN234     -0.1979
     88  CA        21.0500    3.2110   12.6810 C.3   234  GLN234      0.1601
     89  C         22.4110    3.5260   12.0150 C.2   234  GLN234      0.2287
     90  O         22.4440    4.2210   10.9970 O.2   234  GLN234     -0.2864
     91  CB        20.3880    4.4950   13.2120 C.3   234  GLN234      0.0394
     92  CG        18.9030    4.3010   13.6580 C.3   234  GLN234      0.0908
     93  CD        18.0000    3.8760   12.5090 C.2   234  GLN234      0.2608
     94  OE1       18.3510    3.9620   11.3340 O.2   234  GLN234     -0.2717
     95  NE2       16.8040    3.4120   12.8070 N.am  234  GLN234     -0.0878
     96  N         15.0410   -3.3340   11.4770 N.3   244  ILE244     -0.1245
     97  CA        14.8420   -2.8450   12.8420 C.3   244  ILE244      0.1561
     98  C         13.6340   -1.8930   12.8910 C.2   244  ILE244      0.2260
     99  O         12.8600   -1.9750   13.8520 O.2   244  ILE244     -0.2867
    100  CB        16.1830   -2.2900   13.4080 C.3   244  ILE244      0.0252
    101  CG1       16.9410   -3.4170   14.1300 C.3   244  ILE244      0.0019
    102  CG2       16.0230   -1.0620   14.3030 C.3   244  ILE244      0.0019
    103  CD1       17.4610   -4.5130   13.2440 C.3   244  ILE244      0.0001
    104  N         10.4630   -2.3780   15.4490 N.3   248  ILE248     -0.1231
    105  CA        10.0330   -1.2700   16.3130 C.3   248  ILE248      0.1692
    106  C          8.5720   -0.9520   16.0960 C.2   248  ILE248      0.2592
    107  O          7.8480   -0.8160   17.0720 O.2   248  ILE248     -0.2718
    108  CB        10.9160   -0.0050   16.1150 C.3   248  ILE248      0.0266
    109  CG1       12.3010   -0.2510   16.7380 C.3   248  ILE248      0.0019
    110  CG2       10.2400    1.2850   16.7280 C.3   248  ILE248      0.0020
    111  CD1       13.3730    0.7680   16.2210 C.3   248  ILE248      0.0001
    112  N          8.1380   -0.7850   14.8340 N.am  249  TYR249     -0.1976
    113  CA         6.7330   -0.4310   14.5880 C.3   249  TYR249      0.1639
    114  C          5.8000   -1.5820   14.9050 C.2   249  TYR249      0.2290
    115  O          4.6950   -1.3310   15.3940 O.2   249  TYR249     -0.2864
    116  CB         6.5370    0.1470   13.1940 C.3   249  TYR249      0.0560
    117  CG         7.1390    1.5340   13.1570 C.ar  249  TYR249     -0.0198
    118  CD1        6.5370    2.5920   13.8340 C.ar  249  TYR249     -0.0009
    119  CD2        8.3700    1.7640   12.5450 C.ar  249  TYR249     -0.0009
    120  CE1        7.1440    3.8480   13.9040 C.ar  249  TYR249      0.0417
    121  CE2        8.9770    3.0190   12.5890 C.ar  249  TYR249      0.0417
    122  CZ         8.3650    4.0520   13.2790 C.ar  249  TYR249      0.1957
    123  OH         8.9650    5.2780   13.3540 O.3   249  TYR249     -0.2866
    124  N          6.2160   -3.5960   17.4080 N.3   251  GLU251     -0.1231
    125  CA         6.1230   -3.4800   18.8520 C.3   251  GLU251      0.1699
    126  C          5.2130   -2.2850   19.2380 C.2   251  GLU251      0.2592
    127  O          4.3060   -2.4320   20.0450 O.2   251  GLU251     -0.2718
    128  CB         7.5430   -3.3330   19.4130 C.3   251  GLU251      0.0402
    129  CG         7.5800   -3.5150   20.9020 C.3   251  GLU251      0.1161
    130  CD         8.9890   -3.4840   21.4360 C.2   251  GLU251      0.3649
    131  OE1        9.2700   -2.5760   22.2450 O.co2 251  GLU251     -0.2457
    132  OE2        9.7710   -4.4100   21.1310 O.co2 251  GLU251     -0.2457
    133  N          5.4390   -1.1180   18.6280 N.am  252  PHE252     -0.1976
    134  CA         4.6530    0.0920   18.9000 C.3   252  PHE252      0.1639
    135  C          3.1760   -0.1050   18.6000 C.2   252  PHE252      0.2290
    136  O          2.3260    0.2770   19.4090 O.2   252  PHE252     -0.2864
    137  CB         5.1510    1.2580   18.0320 C.3   252  PHE252      0.0560
    138  CG         6.3520    2.0400   18.5330 C.ar  252  PHE252     -0.0200
    139  CD1        7.1900    1.5170   19.5170 C.ar  252  PHE252     -0.0042
    140  CD2        6.6530    3.2940   18.0000 C.ar  252  PHE252     -0.0042
    141  CE1        8.3040    2.2460   19.9760 C.ar  252  PHE252     -0.0003
    142  CE2        7.7340    4.0330   18.4880 C.ar  252  PHE252     -0.0003
    143  CZ         8.5730    3.4930   19.4490 C.ar  252  PHE252     -0.0000
    144  N          2.0600    7.7940   16.7060 N.3   269  MET269     -0.1245
    145  CA         3.1340    6.8530   16.3390 C.3   269  MET269      0.1570
    146  C          2.9020    5.3920   16.7990 C.2   269  MET269      0.2261
    147  O          3.5820    4.4980   16.3160 O.2   269  MET269     -0.2867
    148  CB         4.5350    7.3560   16.7540 C.3   269  MET269      0.0387
    149  CG         4.8670    7.2110   18.1970 C.3   269  MET269      0.0595
    150  SD         6.6430    7.6680   18.3370 S.3   269  MET269     -0.1393
    151  CE         6.8960    7.1920   19.8570 C.3   269  MET269      0.0692
    152  N          7.8730    9.5490   10.4630 N.3   280  LEU280     -0.1231
    153  CA         8.2920    9.2440   11.8340 C.3   280  LEU280      0.1693
    154  C          9.7750    8.8910   11.8630 C.2   280  LEU280      0.2591
    155  O         10.5170    9.4100   12.7040 O.2   280  LEU280     -0.2718
    156  CB         7.4350    8.0970   12.4260 C.3   280  LEU280      0.0284
    157  CG         5.9720    8.4440   12.7350 C.3   280  LEU280      0.0019
    158  CD1        5.1470    7.1860   13.0250 C.3   280  LEU280      0.0001
    159  CD2        5.8880    9.4390   13.8880 C.3   280  LEU280      0.0001
    160  N         10.2250    8.0440   10.9200 N.am  281  GLN281     -0.1979
    161  CA        11.6460    7.6600   10.8530 C.3   281  GLN281      0.1601
    162  C         12.5360    8.8180   10.4590 C.2   281  GLN281      0.2287
    163  O         13.6120    8.9820   11.0490 O.2   281  GLN281     -0.2864
    164  CB        11.8580    6.4450    9.9420 C.3   281  GLN281      0.0394
    165  CG        11.4160    5.1500   10.5860 C.3   281  GLN281      0.0908
    166  CD        12.1370    4.9150   11.9150 C.2   281  GLN281      0.2608
    167  OE1       11.6100    5.2140   12.9900 O.2   281  GLN281     -0.2717
    168  NE2       13.3420    4.3930   11.8720 N.am  281  GLN281     -0.0878
    169  N         11.9040   12.0230   11.0590 N.3   283  SER283     -0.1202
    170  CA        11.9350   12.9010   12.2370 C.3   283  SER283      0.2020
    171  C         12.9070   12.3190   13.2710 C.2   283  SER283      0.2618
    172  O         13.7620   13.0310   13.7850 O.2   283  SER283     -0.2717
    173  CB        10.5470   13.0410   12.8690 C.3   283  SER283      0.2103
    174  OG         9.6720   13.8320   12.0840 O.3   283  SER283     -0.2182
    175  N         12.8230   11.0020   13.5150 N.am  284  PHE284     -0.1975
    176  CA        13.7310   10.3640   14.4720 C.3   284  PHE284      0.1639
    177  C         15.2010   10.5220   14.0540 C.2   284  PHE284      0.2290
    178  O         16.0460   10.8810   14.8790 O.2   284  PHE284     -0.2864
    179  CB        13.3930    8.8660   14.6200 C.3   284  PHE284      0.0560
    180  CG        14.2160    8.2090   15.6920 C.ar  284  PHE284     -0.0200
    181  CD1       13.8420    8.3030   17.0290 C.ar  284  PHE284     -0.0042
    182  CD2       15.4020    7.5500   15.3750 C.ar  284  PHE284     -0.0042
    183  CE1       14.6410    7.7560   18.0290 C.ar  284  PHE284     -0.0003
    184  CE2       16.1930    6.9820   16.3780 C.ar  284  PHE284     -0.0003
    185  CZ        15.8030    7.0910   17.6960 C.ar  284  PHE284     -0.0000
    186  N         16.1730   14.5990   13.8070 N.3   287  HIS287     -0.1226
    187  CA        16.1150   15.3860   15.0460 C.3   287  HIS287      0.1752
    188  C         16.6600   14.7320   16.2750 C.2   287  HIS287      0.2595
    189  O         16.9340   15.4390   17.2450 O.2   287  HIS287     -0.2718
    190  CB        14.6830   15.8380   15.3290 C.3   287  HIS287      0.0759
    191  CG        13.9990   16.4850   14.1740 C.ar  287  HIS287      0.0818
    192  ND1       14.5610   17.5470   13.4800 N.ar  287  HIS287     -0.2268
    193  CD2       12.7920   16.2100   13.6490 C.ar  287  HIS287      0.1154
    194  CE1       13.6820   17.8590   12.5420 C.ar  287  HIS287      0.1986
    195  NE2       12.6090   17.0850   12.6040 N.ar  287  HIS287     -0.2212
    196  N         16.8010   13.3920   16.2760 N.am  288  ILE288     -0.1980
    197  CA        17.2570   12.7050   17.4870 C.3   288  ILE288      0.1595
    198  C         18.5540   11.9730   17.2510 C.2   288  ILE288      0.2287
    199  O         19.5200   12.2140   17.9780 O.2   288  ILE288     -0.2864
    200  CB        16.1630   11.7650   18.0860 C.3   288  ILE288      0.0276
    201  CG1       14.8730   12.5560   18.4300 C.3   288  ILE288      0.0022
    202  CG2       16.6920   11.0520   19.3340 C.3   288  ILE288      0.0022
    203  CD1       13.6390   11.6910   18.6780 C.3   288  ILE288      0.0001
    204  N         23.0040   13.1790   17.9730 N.3   292  ILE292     -0.1245
    205  CA        23.7920   12.3410   18.8880 C.3   292  ILE292      0.1561
    206  C         25.1060   11.9270   18.1950 C.2   292  ILE292      0.2260
    207  O         26.1790   12.1070   18.7620 O.2   292  ILE292     -0.2867
    208  CB        22.9660   11.1070   19.3580 C.3   292  ILE292      0.0252
    209  CG1       21.9930   11.5390   20.4730 C.3   292  ILE292      0.0019
    210  CG2       23.8710    9.9270   19.8390 C.3   292  ILE292      0.0019
    211  CD1       20.9450   10.4540   20.8550 C.3   292  ILE292      0.0001
@<TRIPOS>BOND
     1   164   165    1
     2   164   161    1
     3   162   161    1
     4   162   163    2
     5   152   153    1
     6   165   166    1
     7   161   160    1
     8   160   154   am
     9    90    89    2
    10   169   170    1
    11    94    93    2
    12    96    97    1
    13   153   154    1
    14   153   156    1
    15   154   155    2
    16   168   166   am
    17   166   167    2
    18    89    88    1
    19   174   173    1
    20   170   173    1
    21   170   171    1
    22    82    81    2
    23   156   157    1
    24    93    95   am
    25    93    92    1
    26   194   195   ar
    27   194   192   ar
    28   119   121   ar
    29   119   117   ar
    30   121   122   ar
    31   195   193   ar
    32    88    91    1
    33    88    87    1
    34   157   158    1
    35   157   159    1
    36    97    98    1
    37    97   100    1
    38    98    99    2
    39   117   116    1
    40   117   118   ar
    41   116   113    1
    42    91    92    1
    43   103   101    1
    44   171   175   am
    45   171   172    2
    46   122   123    1
    47   122   120   ar
    48   100   101    1
    49   100   102    1
    50    81    87   am
    51    81    80    1
    52   192   191   ar
    53   175   176    1
    54   193   191   ar
    55   186   187    1
    56   118   120   ar
    57   177   176    1
    58   177   178    2
    59   191   190    1
    60   176   179    1
    61   113   112    1
    62   113   114    1
    63    80    83    1
    64    80    79    1
    65   179   180    1
    66    83    84    1
    67   112   106   am
    68   114   115    2
    69   187   190    1
    70   187   188    1
    71   182   180   ar
    72   182   184   ar
    73   104   105    1
    74   180   181   ar
    75    85    84   ar
    76    84    86   ar
    77   106   105    1
    78   106   107    2
    79   108   105    1
    80   108   110    1
    81   108   109    1
    82   111   109    1
    83   188   196   am
    84   188   189    2
    85   196   197    1
    86   147   146    2
    87   145   144    1
    88   145   148    1
    89   145   146    1
    90   184   185   ar
    91    74    73    2
    92   148   149    1
    93   181   183   ar
    94   198   197    1
    95   198   199    2
    96   124   125    1
    97   197   200    1
    98    73    72    1
    99   185   183   ar
   100     9     7   ar
   101     9    11   ar
   102     7     6   ar
   103   204   205    1
   104   140   142   ar
   105   140   138   ar
   106   137   138    1
   107   137   134    1
   108   200   201    1
   109   200   202    1
   110   206   207    2
   111   206   205    1
   112   149   150    1
   113   150   151    1
   114   201   203    1
   115   142   143   ar
   116    75    72    1
   117    75    76    1
   118   138   139   ar
   119   135   134    1
   120   135   136    2
   121   133   134    1
   122   133   126   am
   123    72    71    1
   124    12    11    1
   125   125   126    1
   126   125   128    1
   127    11    10   ar
   128     6     5    1
   129     6     8   ar
   130   205   208    1
   131     5     2    1
   132    77    76    1
   133   126   127    2
   134     1     2    1
   135     2     3    1
   136   208   210    1
   137   208   209    1
   138   128   129    1
   139   143   141   ar
   140    76    78    1
   141   139   141   ar
   142    10     8   ar
   143    71    65   am
   144    66    65    2
   145   209   211    1
   146     4     3    2
   147     3    13   am
   148    65    64    1
   149   129   130    1
   150   132   130   ar
   151   130   131   ar
   152    59    58    2
   153    13    14    1
   154    64    63    1
   155    64    67    1
   156    58    57    1
   157    55    53   ar
   158    55    54   ar
   159    45    43    1
   160    21    19   ar
   161    21    22   ar
   162    44    43    1
   163    14    15    1
   164    14    17    1
   165    19    18   ar
   166    67    68    1
   167    53    51   ar
   168    54    52   ar
   169    22    20   ar
   170    69    68   ar
   171    18    20   ar
   172    18    17    1
   173    15    16    2
   174    61    60    1
   175    43    42    1
   176    68    70   ar
   177    57    60    1
   178    57    56    1
   179    60    62    1
   180    51    52   ar
   181    51    50    1
   182    42    39    1
   183    50    47    1
   184    39    40    1
   185    39    38    1
   186    49    48    2
   187    41    40    2
   188    48    47    1
   189    38    32   am
   190    26    25    2
   191    47    46    1
   192    32    33    2
   193    32    31    1
   194    25    24    1
   195    25    30   am
   196    24    27    1
   197    24    23    1
   198    27    29    1
   199    27    28    1
   200    31    30    1
   201    31    34    1
   202    36    35   ar
   203    35    34    1
   204    35    37   ar
