@<TRIPOS>MOLECULE
tmp/5u7iA00.pdb
 178 170 0 0 0
SMALL
GASTEIGER

@<TRIPOS>ATOM
      1  N         10.9270    4.8860   -5.8300 N.3    77  TYR77      -0.1227
      2  CA         9.6600    4.1710   -5.6870 C.3    77  TYR77       0.1736
      3  C          8.9340    4.4200   -4.3450 C.2    77  TYR77       0.2595
      4  O          7.7610    4.7740   -4.3660 O.2    77  TYR77      -0.2718
      5  CB         9.8390    2.6550   -5.9380 C.3    77  TYR77       0.0548
      6  CG         8.5150    1.9230   -5.9190 C.ar   77  TYR77      -0.0200
      7  CD1        7.6320    2.0090   -6.9960 C.ar   77  TYR77      -0.0009
      8  CD2        8.1030    1.2140   -4.7920 C.ar   77  TYR77      -0.0009
      9  CE1        6.3920    1.3780   -6.9650 C.ar   77  TYR77       0.0417
     10  CE2        6.8640    0.5730   -4.7520 C.ar   77  TYR77       0.0417
     11  CZ         6.0140    0.6560   -5.8420 C.ar   77  TYR77       0.1957
     12  OH         4.8020    0.0060   -5.8120 O.3    77  TYR77      -0.2866
     13  N          9.6070    4.2220   -3.1970 N.am   78  HIS78      -0.1975
     14  CA         8.9480    4.3260   -1.8840 C.3    78  HIS78       0.1656
     15  C          8.7840    5.7670   -1.3850 C.2    78  HIS78       0.2291
     16  O          9.3340    6.1690   -0.3570 O.2    78  HIS78      -0.2864
     17  CB         9.6480    3.4460   -0.8590 C.3    78  HIS78       0.0771
     18  CG         9.4900    1.9750   -1.1320 C.ar   78  HIS78       0.0820
     19  ND1       10.5240    1.2360   -1.6450 N.ar   78  HIS78      -0.2267
     20  CD2        8.4240    1.1600   -0.9410 C.ar   78  HIS78       0.1154
     21  CE1       10.0750   -0.0110   -1.7430 C.ar   78  HIS78       0.1986
     22  NE2        8.8170   -0.1020   -1.3330 N.ar   78  HIS78      -0.2212
     23  N          7.0140   -8.7060    2.4650 N.3   192  LEU192     -0.1231
     24  CA         6.7530   -9.8330    1.5540 C.3   192  LEU192      0.1693
     25  C          7.1810  -11.1760    2.1460 C.2   192  LEU192      0.2591
     26  O          6.5970  -12.1950    1.7860 O.2   192  LEU192     -0.2718
     27  CB         7.3540   -9.6160    0.1420 C.3   192  LEU192      0.0284
     28  CG         6.5860   -8.6410   -0.7710 C.3   192  LEU192      0.0019
     29  CD1        7.3690   -8.3280   -2.0070 C.3   192  LEU192      0.0001
     30  CD2        5.1800   -9.1600   -1.1340 C.3   192  LEU192      0.0001
     31  N          8.1400  -11.1720    3.1000 N.am  193  ALA193     -0.1980
     32  CA         8.5940  -12.3820    3.8100 C.3   193  ALA193      0.1597
     33  C          7.4390  -12.9250    4.6460 C.2   193  ALA193      0.2287
     34  O          7.2690  -14.1340    4.7330 O.2   193  ALA193     -0.2864
     35  CB         9.7770  -12.0630    4.7160 C.3   193  ALA193      0.0319
     36  N          4.8100  -14.5210    2.1890 N.3   196  LEU196     -0.1245
     37  CA         5.2690  -15.8470    1.7640 C.3   196  LEU196      0.1561
     38  C          5.1530  -16.9040    2.8640 C.2   196  LEU196      0.2260
     39  O          4.9110  -18.0650    2.5470 O.2   196  LEU196     -0.2867
     40  CB         6.6900  -15.7910    1.1750 C.3   196  LEU196      0.0270
     41  CG         6.8350  -14.9630   -0.1150 C.3   196  LEU196      0.0019
     42  CD1        8.2790  -14.5990   -0.3760 C.3   196  LEU196      0.0001
     43  CD2        6.2360  -15.6750   -1.3080 C.3   196  LEU196      0.0001
     44  N         -0.5770   -2.9400   -1.8330 N.3   230  ASP230     -0.1225
     45  CA         0.8570   -2.6780   -1.9850 C.3   230  ASP230      0.1805
     46  C          1.4200   -3.0030   -3.3890 C.2   230  ASP230      0.2597
     47  O          2.3050   -2.2830   -3.8640 O.2   230  ASP230     -0.2718
     48  CB         1.6470   -3.4080   -0.8880 C.3   230  ASP230      0.1424
     49  CG         2.8740   -2.6790   -0.3580 C.2   230  ASP230      0.3668
     50  OD1        3.1770   -1.5780   -0.8590 O.co2 230  ASP230     -0.2456
     51  OD2        3.4920   -3.1820    0.6000 O.co2 230  ASP230     -0.2456
     52  N          0.8990   -4.0570   -4.0550 N.am  231  LEU231     -0.1979
     53  CA         1.3420   -4.4650   -5.4010 C.3   231  LEU231      0.1596
     54  C          0.3880   -3.9970   -6.5100 C.2   231  LEU231      0.2287
     55  O          0.5620   -4.3830   -7.6690 O.2   231  LEU231     -0.2864
     56  CB         1.4760   -6.0070   -5.4850 C.3   231  LEU231      0.0297
     57  CG         2.2600   -6.7390   -4.3900 C.3   231  LEU231      0.0022
     58  CD1        2.3680   -8.2030   -4.7240 C.3   231  LEU231      0.0001
     59  CD2        3.6730   -6.1660   -4.2080 C.3   231  LEU231      0.0001
     60  N          0.0900   -1.4670   -8.3340 N.3   233  ASP233     -0.1225
     61  CA         0.7040   -0.8270   -9.5110 C.3   233  ASP233      0.1805
     62  C          0.7410   -1.7900  -10.6930 C.2   233  ASP233      0.2597
     63  O          0.8200   -1.3500  -11.8370 O.2   233  ASP233     -0.2718
     64  CB         2.1340   -0.3610   -9.1950 C.3   233  ASP233      0.1424
     65  CG         2.2490    1.0080   -8.5480 C.2   233  ASP233      0.3668
     66  OD1        1.3500    1.8540   -8.7750 O.co2 233  ASP233     -0.2456
     67  OD2        3.2590    1.2500   -7.8470 O.co2 233  ASP233     -0.2456
     68  N          0.6910   -3.1130  -10.4120 N.am  234  GLN234     -0.1979
     69  CA         0.7120   -4.1520  -11.4380 C.3   234  GLN234      0.1601
     70  C         -0.6570   -4.5020  -12.0490 C.2   234  GLN234      0.2287
     71  O         -0.7040   -5.3150  -12.9690 O.2   234  GLN234     -0.2864
     72  CB         1.3930   -5.4230  -10.8900 C.3   234  GLN234      0.0394
     73  CG         2.8800   -5.2260  -10.5220 C.3   234  GLN234      0.0908
     74  CD         3.7110   -4.6060  -11.6340 C.2   234  GLN234      0.2608
     75  OE1        3.5400   -4.8860  -12.8180 O.2   234  GLN234     -0.2717
     76  NE2        4.6060   -3.7180  -11.2860 N.am  234  GLN234     -0.0878
     77  N          6.7960    1.7120  -13.4920 N.3   244  ILE244     -0.1231
     78  CA         7.0270    1.2100  -12.1320 C.3   244  ILE244      0.1692
     79  C          8.3130    0.3710  -12.0940 C.2   244  ILE244      0.2591
     80  O          9.0790    0.5010  -11.1300 O.2   244  ILE244     -0.2718
     81  CB         5.7640    0.5010  -11.5480 C.3   244  ILE244      0.0266
     82  CG1        4.6090    1.5050  -11.2320 C.3   244  ILE244      0.0019
     83  CG2        6.0520   -0.3800  -10.3480 C.3   244  ILE244      0.0020
     84  CD1        4.9670    2.9550  -10.8690 C.3   244  ILE244      0.0001
     85  N          8.5760   -0.4420  -13.1550 N.am  245  ALA245     -0.1980
     86  CA         9.8250   -1.2120  -13.2410 C.3   245  ALA245      0.1597
     87  C         11.0510   -0.2750  -13.2670 C.2   245  ALA245      0.2287
     88  O         12.0350   -0.5820  -12.6050 O.2   245  ALA245     -0.2864
     89  CB         9.8210   -2.1120  -14.4580 C.3   245  ALA245      0.0319
     90  N         11.3730    1.0540   -9.5010 N.3   248  ILE248     -0.1231
     91  CA        11.8130   -0.0310   -8.6170 C.3   248  ILE248      0.1692
     92  C         13.2890   -0.3960   -8.8380 C.2   248  ILE248      0.2592
     93  O         14.0510   -0.4430   -7.8660 O.2   248  ILE248     -0.2718
     94  CB        10.8500   -1.2400   -8.7330 C.3   248  ILE248      0.0266
     95  CG1        9.5770   -0.9150   -7.9100 C.3   248  ILE248      0.0019
     96  CG2       11.5100   -2.5500   -8.2550 C.3   248  ILE248      0.0020
     97  CD1        8.4350   -1.7360   -8.1680 C.3   248  ILE248      0.0001
     98  N         13.7030   -0.6030  -10.0940 N.am  249  TYR249     -0.1976
     99  CA        15.0880   -0.9780  -10.3860 C.3   249  TYR249      0.1639
    100  C         16.0580    0.1750  -10.1710 C.2   249  TYR249      0.2290
    101  O         17.1540   -0.0850   -9.6970 O.2   249  TYR249     -0.2864
    102  CB        15.2210   -1.6490  -11.7610 C.3   249  TYR249      0.0560
    103  CG        14.5910   -3.0250  -11.7170 C.ar  249  TYR249     -0.0198
    104  CD1       15.1750   -4.0580  -10.9850 C.ar  249  TYR249     -0.0009
    105  CD2       13.3390   -3.2580  -12.2840 C.ar  249  TYR249     -0.0009
    106  CE1       14.5520   -5.2990  -10.8650 C.ar  249  TYR249      0.0417
    107  CE2       12.7120   -4.4950  -12.1750 C.ar  249  TYR249      0.0417
    108  CZ        13.3200   -5.5100  -11.4590 C.ar  249  TYR249      0.1957
    109  OH        12.6970   -6.7230  -11.3320 O.3   249  TYR249     -0.2866
    110  N         16.4860   -0.2310   -6.4450 N.3   252  PHE252     -0.1241
    111  CA        17.2290   -1.4660   -6.1660 C.3   252  PHE252      0.1605
    112  C         18.7120   -1.3370   -6.5360 C.2   252  PHE252      0.2264
    113  O         19.5800   -1.7410   -5.7550 O.2   252  PHE252     -0.2867
    114  CB        16.6380   -2.6540   -6.9360 C.3   252  PHE252      0.0534
    115  CG        15.3730   -3.2910   -6.4120 C.ar  252  PHE252     -0.0203
    116  CD1       14.7230   -2.7780   -5.2930 C.ar  252  PHE252     -0.0042
    117  CD2       14.8310   -4.4080   -7.0400 C.ar  252  PHE252     -0.0042
    118  CE1       13.5610   -3.3850   -4.8020 C.ar  252  PHE252     -0.0003
    119  CE2       13.6690   -5.0070   -6.5480 C.ar  252  PHE252     -0.0003
    120  CZ        13.0460   -4.4930   -5.4310 C.ar  252  PHE252     -0.0000
    121  N         22.2250   -8.8290   -4.0560 N.3   267  MET267     -0.1245
    122  CA        21.3640   -9.8570   -4.6400 C.3   267  MET267      0.1570
    123  C         21.3590   -9.5720   -6.1630 C.2   267  MET267      0.2261
    124  O         21.5480   -8.4170   -6.5660 O.2   267  MET267     -0.2867
    125  CB        19.9040   -9.6840   -4.1630 C.3   267  MET267      0.0387
    126  CG        19.5800   -9.9700   -2.7390 C.3   267  MET267      0.0595
    127  SD        17.8160   -9.5280   -2.6000 S.3   267  MET267     -0.1393
    128  CE        17.0540  -10.9800   -3.4080 C.3   267  MET267      0.0692
    129  N         18.9400   -9.1850   -8.3640 N.3   269  MET269     -0.1245
    130  CA        17.9620   -8.1540   -8.7350 C.3   269  MET269      0.1570
    131  C         18.3610   -6.7280   -8.3290 C.2   269  MET269      0.2261
    132  O         17.7100   -5.7700   -8.7470 O.2   269  MET269     -0.2867
    133  CB        16.5500   -8.5030   -8.2170 C.3   269  MET269      0.0387
    134  CG        16.3530   -8.3320   -6.7100 C.3   269  MET269      0.0595
    135  SD        14.6300   -8.6770   -6.2630 S.3   269  MET269     -0.1393
    136  CE        14.6610   -8.3060   -4.4940 C.3   269  MET269      0.0692
    137  N         13.4100  -11.0450  -14.3690 N.3   280  LEU280     -0.1231
    138  CA        13.1170  -10.7220  -12.9720 C.3   280  LEU280      0.1693
    139  C         11.6800  -10.2910  -12.7960 C.2   280  LEU280      0.2591
    140  O         11.0530  -10.6680  -11.8020 O.2   280  LEU280     -0.2718
    141  CB        14.0670   -9.6500  -12.4400 C.3   280  LEU280      0.0284
    142  CG        15.5360  -10.0460  -12.3260 C.3   280  LEU280      0.0019
    143  CD1       16.3910   -8.8250  -12.2250 C.3   280  LEU280      0.0001
    144  CD2       15.7830  -10.9720  -11.1360 C.3   280  LEU280      0.0001
    145  N         11.1410   -9.5260  -13.7650 N.am  281  GLN281     -0.1979
    146  CA         9.7480   -9.1010  -13.6950 C.3   281  GLN281      0.1601
    147  C          8.7990  -10.2550  -13.9580 C.2   281  GLN281      0.2287
    148  O          7.7830  -10.3350  -13.2870 O.2   281  GLN281     -0.2864
    149  CB         9.4570   -7.8870  -14.5830 C.3   281  GLN281      0.0394
    150  CG         9.9890   -6.5790  -13.9890 C.3   281  GLN281      0.0908
    151  CD         9.2030   -6.1460  -12.7770 C.2   281  GLN281      0.2608
    152  OE1        8.0690   -5.7000  -12.8860 O.2   281  GLN281     -0.2717
    153  NE2        9.7720   -6.2930  -11.5920 N.am  281  GLN281     -0.0878
    154  N          9.4130  -13.4500  -13.2740 N.3   283  SER283     -0.1202
    155  CA         9.5360  -14.2180  -12.0300 C.3   283  SER283      0.2020
    156  C          8.6810  -13.6200  -10.8960 C.2   283  SER283      0.2618
    157  O          7.9250  -14.3550  -10.2500 O.2   283  SER283     -0.2717
    158  CB        11.0010  -14.3140  -11.6180 C.3   283  SER283      0.2103
    159  OG        11.1690  -15.1400  -10.4790 O.3   283  SER283     -0.2182
    160  N          8.7590  -12.2870  -10.6970 N.am  284  PHE284     -0.1975
    161  CA         7.9630  -11.6000   -9.6810 C.3   284  PHE284      0.1639
    162  C          6.4660  -11.7110   -9.9700 C.2   284  PHE284      0.2290
    163  O          5.6950  -11.9710   -9.0490 O.2   284  PHE284     -0.2864
    164  CB         8.4010  -10.1270   -9.5280 C.3   284  PHE284      0.0560
    165  CG         7.4490   -9.3100   -8.6800 C.ar  284  PHE284     -0.0200
    166  CD1        7.4280   -9.4470   -7.2930 C.ar  284  PHE284     -0.0042
    167  CD2        6.5530   -8.4290   -9.2680 C.ar  284  PHE284     -0.0042
    168  CE1        6.5170   -8.7260   -6.5180 C.ar  284  PHE284     -0.0003
    169  CE2        5.6610   -7.6920   -8.4870 C.ar  284  PHE284     -0.0003
    170  CZ         5.6490   -7.8460   -7.1200 C.ar  284  PHE284     -0.0000
    171  N          4.8480  -14.1840   -7.3820 N.3   288  ILE288     -0.1245
    172  CA         4.3600  -13.3820   -6.2630 C.3   288  ILE288      0.1561
    173  C          3.0320  -12.6930   -6.5990 C.2   288  ILE288      0.2260
    174  O          2.0310  -13.0050   -5.9510 O.2   288  ILE288     -0.2867
    175  CB         5.4340  -12.4110   -5.6990 C.3   288  ILE288      0.0252
    176  CG1        6.5890  -13.2340   -5.0680 C.3   288  ILE288      0.0019
    177  CG2        4.8280  -11.4450   -4.6740 C.3   288  ILE288      0.0019
    178  CD1        7.7510  -12.4740   -4.6400 C.3   288  ILE288      0.0001
@<TRIPOS>BOND
     1   149   150    1
     2   149   146    1
     3    89    86    1
     4   137   138    1
     5   150   151    1
     6   147   146    1
     7   147   148    2
     8   145   146    1
     9   145   139   am
    10    77    78    1
    11   154   155    1
    12    87    86    1
    13    87    88    2
    14    86    85    1
    15    85    79   am
    16   138   139    1
    17   138   141    1
    18    71    70    2
    19   152   151    2
    20    75    74    2
    21   139   140    2
    22   151   153   am
    23   141   142    1
    24   142   143    1
    25   142   144    1
    26   105   107   ar
    27   105   103   ar
    28   107   108   ar
    29    78    79    1
    30    78    81    1
    31    79    80    2
    32    70    69    1
    33   155   158    1
    34   155   156    1
    35    63    62    2
    36   102   103    1
    37   102    99    1
    38   103   104   ar
    39    74    76   am
    40    74    73    1
    41   158   159    1
    42    81    82    1
    43    81    83    1
    44   108   109    1
    45   108   106   ar
    46    69    72    1
    47    69    68    1
    48    82    84    1
    49   104   106   ar
    50   156   160   am
    51   156   157    2
    52    72    73    1
    53   160   161    1
    54    62    68   am
    55    62    61    1
    56    99   100    1
    57    99    98    1
    58   100   101    2
    59    98    92   am
    60   162   161    1
    61   162   163    2
    62   161   164    1
    63   164   165    1
    64    61    64    1
    65    61    60    1
    66    90    91    1
    67   167   165   ar
    68   167   169   ar
    69    64    65    1
    70    92    91    1
    71    92    93    2
    72    66    65   ar
    73   132   131    2
    74   130   129    1
    75   130   131    1
    76   130   133    1
    77    94    91    1
    78    94    96    1
    79    94    95    1
    80   165   166   ar
    81    65    67   ar
    82   169   170   ar
    83   133   134    1
    84    97    95    1
    85    55    54    2
    86   171   172    1
    87   166   168   ar
    88   170   168   ar
    89   117   119   ar
    90   117   115   ar
    91     7     9   ar
    92     7     6   ar
    93     9    11   ar
    94   114   115    1
    95   114   111    1
    96   134   135    1
    97   173   172    1
    98   173   174    2
    99   124   123    2
   100   119   120   ar
   101   112   111    1
   102   112   113    2
   103    54    53    1
   104   110   111    1
   105   115   116   ar
   106   135   136    1
   107   172   175    1
   108   123   122    1
   109     5     6    1
   110     5     2    1
   111     6     8   ar
   112    11    12    1
   113    11    10   ar
   114     1     2    1
   115   175   176    1
   116   175   177    1
   117     2     3    1
   118    56    53    1
   119    56    57    1
   120   120   118   ar
   121    53    52    1
   122   116   118   ar
   123   176   178    1
   124     8    10   ar
   125    58    57    1
   126   122   125    1
   127   122   121    1
   128    57    59    1
   129     4     3    2
   130     3    13   am
   131   125   126    1
   132    52    46   am
   133    47    46    2
   134   128   127    1
   135    46    45    1
   136    13    14    1
   137   126   127    1
   138    29    28    1
   139    45    44    1
   140    45    48    1
   141    14    15    1
   142    14    17    1
   143    21    19   ar
   144    21    22   ar
   145    19    18   ar
   146    15    16    2
   147    22    20   ar
   148    43    41    1
   149    30    28    1
   150    18    20   ar
   151    18    17    1
   152    48    49    1
   153    50    49   ar
   154    28    27    1
   155    42    41    1
   156    49    51   ar
   157    41    40    1
   158    27    24    1
   159    40    37    1
   160    24    25    1
   161    24    23    1
   162    37    36    1
   163    37    38    1
   164    26    25    2
   165    25    31   am
   166    39    38    2
   167    31    32    1
   168    32    33    1
   169    32    35    1
   170    33    34    2
