@<TRIPOS>MOLECULE
tmp/5u7jD00.pdb
 173 164 0 0 0
SMALL
GASTEIGER

@<TRIPOS>ATOM
      1  N         36.9780  -40.9940    7.6110 N.3    66  TYR66      -0.1227
      2  CA        35.8370  -40.0880    7.5050 C.3    66  TYR66       0.1736
      3  C         35.0070  -40.2620    6.2280 C.2    66  TYR66       0.2595
      4  O         33.7970  -40.4030    6.3290 O.2    66  TYR66      -0.2718
      5  CB        36.2980  -38.6210    7.6800 C.3    66  TYR66       0.0548
      6  CG        35.1660  -37.6200    7.6050 C.ar   66  TYR66      -0.0200
      7  CD1       34.2680  -37.4760    8.6560 C.ar   66  TYR66      -0.0009
      8  CD2       34.9760  -36.8380    6.4670 C.ar   66  TYR66      -0.0009
      9  CE1       33.2050  -36.5760    8.5820 C.ar   66  TYR66       0.0417
     10  CE2       33.9240  -35.9250    6.3840 C.ar   66  TYR66       0.0417
     11  CZ        33.0480  -35.7910    7.4490 C.ar   66  TYR66       0.1957
     12  OH        32.0160  -34.8930    7.3780 O.3    66  TYR66      -0.2866
     13  N         35.6370  -40.2270    5.0340 N.am   67  HIS67      -0.1975
     14  CA        34.9190  -40.2580    3.7510 C.3    67  HIS67       0.1656
     15  C         34.4620  -41.6710    3.3540 C.2    67  HIS67       0.2291
     16  O         34.9060  -42.2400    2.3570 O.2    67  HIS67      -0.2864
     17  CB        35.7500  -39.5780    2.6680 C.3    67  HIS67       0.0771
     18  CG        35.8380  -38.0910    2.8330 C.ar   67  HIS67       0.0820
     19  ND1       36.9850  -37.4900    3.2890 N.ar   67  HIS67      -0.2267
     20  CD2       34.8970  -37.1390    2.6330 C.ar   67  HIS67       0.1154
     21  CE1       36.7350  -36.1920    3.3130 C.ar   67  HIS67       0.1986
     22  NE2       35.4850  -35.9310    2.9380 N.ar   67  HIS67      -0.2212
     23  N         42.8410  -35.5170   -0.3600 N.3   115  ASN115     -0.1240
     24  CA        42.1950  -34.3860   -1.0420 C.3   115  ASN115      0.1653
     25  C         42.6750  -34.1830   -2.4970 C.2   115  ASN115      0.2266
     26  O         43.4630  -34.9830   -3.0150 O.2   115  ASN115     -0.2867
     27  CB        42.3360  -33.0980   -0.2050 C.3   115  ASN115      0.1155
     28  CG        43.7330  -32.5560   -0.0570 C.2   115  ASN115      0.2627
     29  OD1       44.6750  -32.9630   -0.7360 O.2   115  ASN115     -0.2716
     30  ND2       43.8860  -31.5570    0.7890 N.am  115  ASN115     -0.0877
     31  N         34.9430  -27.6130   -1.5870 N.3   181  LEU181     -0.1245
     32  CA        34.8910  -26.3960   -0.7840 C.3   181  LEU181      0.1561
     33  C         35.5870  -25.2150   -1.4760 C.2   181  LEU181      0.2260
     34  O         35.2360  -24.0650   -1.1980 O.2   181  LEU181     -0.2867
     35  CB        35.3930  -26.6160    0.6460 C.3   181  LEU181      0.0270
     36  CG        34.3810  -27.3030    1.5860 C.3   181  LEU181      0.0019
     37  CD1       35.0390  -27.8290    2.8240 C.3   181  LEU181      0.0001
     38  CD2       33.2370  -26.3640    1.9850 C.3   181  LEU181      0.0001
     39  N         33.9490  -21.5120   -1.8010 N.3   185  LEU185     -0.1245
     40  CA        34.6460  -20.2590   -1.5010 C.3   185  LEU185      0.1561
     41  C         34.6330  -19.3000   -2.6820 C.2   185  LEU185      0.2260
     42  O         34.4940  -18.1030   -2.4730 O.2   185  LEU185     -0.2867
     43  CB        36.0500  -20.5260   -0.9700 C.3   185  LEU185      0.0270
     44  CG        36.1190  -21.2380    0.3870 C.3   185  LEU185      0.0019
     45  CD1       37.4970  -21.8390    0.6060 C.3   185  LEU185      0.0001
     46  CD2       35.7010  -20.3100    1.5390 C.3   185  LEU185      0.0001
     47  N         26.8350  -31.5030    3.5700 N.3   219  ASP219     -0.1225
     48  CA        28.1930  -32.0210    3.6940 C.3   219  ASP219      0.1805
     49  C         28.8320  -31.6910    5.0530 C.2   219  ASP219      0.2597
     50  O         29.5710  -32.5160    5.5700 O.2   219  ASP219     -0.2718
     51  CB        29.0710  -31.4930    2.5500 C.3   219  ASP219      0.1424
     52  CG        30.1730  -32.4250    2.0380 C.2   219  ASP219      0.3668
     53  OD1       30.3030  -33.5500    2.5630 O.co2 219  ASP219     -0.2456
     54  OD2       30.8400  -32.0610    1.0530 O.co2 219  ASP219     -0.2456
     55  N         28.5350  -30.5130    5.6300 N.am  220  LEU220     -0.1979
     56  CA        29.0850  -30.0790    6.9270 C.3   220  LEU220      0.1596
     57  C         28.1310  -30.2910    8.1280 C.2   220  LEU220      0.2287
     58  O         28.4220  -29.8400    9.2380 O.2   220  LEU220     -0.2864
     59  CB        29.4750  -28.5820    6.8510 C.3   220  LEU220      0.0297
     60  CG        30.4570  -28.1520    5.7530 C.3   220  LEU220      0.0022
     61  CD1       30.9380  -26.7750    6.0020 C.3   220  LEU220      0.0001
     62  CD2       31.6530  -29.0720    5.6460 C.3   220  LEU220      0.0001
     63  N         28.4190  -30.8540   12.1100 N.3   223  GLN223     -0.1245
     64  CA        28.6900  -29.7030   12.9830 C.3   223  GLN223      0.1566
     65  C         27.4180  -29.1090   13.6090 C.2   223  GLN223      0.2260
     66  O         27.5200  -28.2650   14.5020 O.2   223  GLN223     -0.2867
     67  CB        29.4790  -28.6270   12.2110 C.3   223  GLN223      0.0367
     68  CG        30.7690  -29.1530   11.5370 C.3   223  GLN223      0.0905
     69  CD        31.7040  -29.8610   12.5070 C.2   223  GLN223      0.2608
     70  OE1       31.9990  -29.3610   13.5810 O.2   223  GLN223     -0.2717
     71  NE2       32.1580  -31.0590   12.1740 N.am  223  GLN223     -0.0878
     72  N         33.7830  -36.5700   15.0470 N.3   233  ILE233     -0.1231
     73  CA        34.0550  -36.2030   13.6620 C.3   233  ILE233      0.1692
     74  C         35.4440  -35.5850   13.5260 C.2   233  ILE233      0.2591
     75  O         36.1420  -35.9400   12.5810 O.2   233  ILE233     -0.2718
     76  CB        32.9070  -35.3320   13.0630 C.3   233  ILE233      0.0266
     77  CG1       31.5880  -36.1320   12.9590 C.3   233  ILE233      0.0019
     78  CG2       33.2670  -34.6790   11.7380 C.3   233  ILE233      0.0020
     79  CD1       31.6520  -37.6220   12.6070 C.3   233  ILE233      0.0001
     80  N         35.8790  -34.7510   14.4980 N.am  234  ALA234     -0.1980
     81  CA        37.2290  -34.1770   14.5100 C.3   234  ALA234      0.1597
     82  C         38.2660  -35.3100   14.5620 C.2   234  ALA234      0.2287
     83  O         39.2370  -35.2670   13.8200 O.2   234  ALA234     -0.2864
     84  CB        37.4100  -33.2440   15.6990 C.3   234  ALA234      0.0319
     85  N         38.2870  -37.0190   10.9530 N.3   237  ILE237     -0.1231
     86  CA        38.8500  -36.0650    9.9900 C.3   237  ILE237      0.1692
     87  C         40.3690  -35.9280   10.1640 C.2   237  ILE237      0.2592
     88  O         41.1040  -36.0950    9.1920 O.2   237  ILE237     -0.2718
     89  CB        38.0960  -34.6990   10.0150 C.3   237  ILE237      0.0266
     90  CG1       36.7770  -34.8430    9.2490 C.3   237  ILE237      0.0019
     91  CG2       38.9480  -33.5510    9.4120 C.3   237  ILE237      0.0020
     92  CD1       35.8400  -33.7520    9.4070 C.3   237  ILE237      0.0001
     93  N         40.8420  -35.6880   11.3960 N.am  238  TYR238     -0.1976
     94  CA        42.2740  -35.5210   11.6100 C.3   238  TYR238      0.1639
     95  C         43.0250  -36.8340   11.4310 C.2   238  TYR238      0.2290
     96  O         44.1200  -36.7760   10.8870 O.2   238  TYR238     -0.2864
     97  CB        42.5930  -34.7930   12.9270 C.3   238  TYR238      0.0560
     98  CG        42.1490  -33.3480   12.8240 C.ar  238  TYR238     -0.0198
     99  CD1       42.7580  -32.4770   11.9300 C.ar  238  TYR238     -0.0009
    100  CD2       41.0310  -32.8930   13.5100 C.ar  238  TYR238     -0.0009
    101  CE1       42.2770  -31.1800   11.7380 C.ar  238  TYR238      0.0417
    102  CE2       40.5560  -31.5940   13.3460 C.ar  238  TYR238      0.0417
    103  CZ        41.1830  -30.7380   12.4580 C.ar  238  TYR238      0.1957
    104  OH        40.7020  -29.4640   12.2990 O.3   238  TYR238     -0.2866
    105  N         43.3780  -36.8010    7.6660 N.3   241  PHE241     -0.1241
    106  CA        44.3220  -35.7440    7.2690 C.3   241  PHE241      0.1605
    107  C         45.7660  -36.0970    7.6070 C.2   241  PHE241      0.2264
    108  O         46.6540  -35.8640    6.7870 O.2   241  PHE241     -0.2867
    109  CB        43.9710  -34.4160    7.9550 C.3   241  PHE241      0.0534
    110  CG        42.7950  -33.6300    7.4160 C.ar  241  PHE241     -0.0203
    111  CD1       42.0040  -34.1370    6.3900 C.ar  241  PHE241     -0.0042
    112  CD2       42.4800  -32.3810    7.9330 C.ar  241  PHE241     -0.0042
    113  CE1       40.9190  -33.4020    5.8890 C.ar  241  PHE241     -0.0003
    114  CE2       41.3990  -31.6480    7.4270 C.ar  241  PHE241     -0.0003
    115  CZ        40.6320  -32.1620    6.4110 C.ar  241  PHE241     -0.0000
    116  N         50.3530  -29.3000    4.5120 N.3   256  MET256     -0.1196
    117  CA        49.7630  -28.1220    5.1460 C.3   256  MET256      0.1786
    118  C         49.6900  -28.3930    6.6640 C.2   256  MET256      0.2306
    119  O         49.6450  -29.5640    7.0690 O.2   256  MET256     -0.2863
    120  CB        48.4040  -27.7310    4.5160 C.2   256  MET256      0.0070
    121  CG        47.2720  -28.7060    4.7740 C.2   256  MET256      0.0282
    122  SD        45.7960  -28.6060    3.7010 S.3   256  MET256     -0.1125
    123  CE        45.1960  -26.8980    4.0520 C.3   256  MET256      0.0742
    124  N         47.4440  -28.2710    9.0640 N.3   258  MET258     -0.1245
    125  CA        46.3270  -29.0920    9.5170 C.3   258  MET258      0.1570
    126  C         46.4610  -30.5820    9.1910 C.2   258  MET258      0.2261
    127  O         45.7320  -31.3900    9.7590 O.2   258  MET258     -0.2867
    128  CB        44.9880  -28.5390    9.0270 C.3   258  MET258      0.0387
    129  CG        44.7440  -28.7050    7.5400 C.3   258  MET258      0.0595
    130  SD        43.0540  -28.2710    7.1230 S.3   258  MET258     -0.1393
    131  CE        43.1910  -26.4910    7.1110 C.3   258  MET258      0.0692
    132  N         42.3700  -25.2360   15.0270 N.3   269  LEU269     -0.1231
    133  CA        41.9350  -25.6020   13.6750 C.3   269  LEU269      0.1693
    134  C         40.4290  -25.7740   13.6270 C.2   269  LEU269      0.2591
    135  O         39.7950  -25.2850   12.6910 O.2   269  LEU269     -0.2718
    136  CB        42.6370  -26.8800   13.1810 C.3   269  LEU269      0.0284
    137  CG        44.1470  -26.7580   12.9630 C.3   269  LEU269      0.0019
    138  CD1       44.7670  -28.1180   12.8460 C.3   269  LEU269      0.0001
    139  CD2       44.4730  -25.9030   11.7480 C.3   269  LEU269      0.0001
    140  N         39.8490  -26.4210   14.6540 N.am  270  GLN270     -0.1979
    141  CA        38.4090  -26.6090   14.7510 C.3   270  GLN270      0.1601
    142  C         37.6750  -25.2900   14.9190 C.2   270  GLN270      0.2287
    143  O         36.7010  -25.0660   14.2070 O.2   270  GLN270     -0.2864
    144  CB        38.0400  -27.6140   15.8500 C.3   270  GLN270      0.0394
    145  CG        38.2680  -29.0630   15.4330 C.3   270  GLN270      0.0908
    146  CD        37.3160  -29.4730   14.3360 C.2   270  GLN270      0.2608
    147  OE1       36.1280  -29.6510   14.5640 O.2   270  GLN270     -0.2717
    148  NE2       37.8060  -29.5610   13.1090 N.am  270  GLN270     -0.0878
    149  N         38.7080  -22.2930   14.0220 N.3   272  SER272     -0.1202
    150  CA        38.8830  -21.5780   12.7590 C.3   272  SER272      0.2020
    151  C         37.9130  -22.1000   11.6930 C.2   272  SER272      0.2618
    152  O         37.2140  -21.2980   11.0720 O.2   272  SER272     -0.2717
    153  CB        40.3270  -21.6870   12.2790 C.3   272  SER272      0.2103
    154  OG        40.4680  -21.0870   11.0030 O.3   272  SER272     -0.2182
    155  N         37.8450  -23.4370   11.5060 N.am  273  PHE273     -0.1975
    156  CA        36.9200  -24.0310   10.5400 C.3   273  PHE273      0.1639
    157  C         35.4840  -23.6540   10.8480 C.2   273  PHE273      0.2290
    158  O         34.7350  -23.3070    9.9240 O.2   273  PHE273     -0.2864
    159  CB        37.0540  -25.5540   10.4770 C.3   273  PHE273      0.0560
    160  CG        36.1650  -26.1560    9.4090 C.ar  273  PHE273     -0.0200
    161  CD1       36.5320  -26.1110    8.0660 C.ar  273  PHE273     -0.0042
    162  CD2       34.9450  -26.7260    9.7400 C.ar  273  PHE273     -0.0042
    163  CE1       35.6960  -26.6440    7.0740 C.ar  273  PHE273     -0.0003
    164  CE2       34.1020  -27.2420    8.7460 C.ar  273  PHE273     -0.0003
    165  CZ        34.4870  -27.1940    7.4240 C.ar  273  PHE273     -0.0000
    166  N         34.2910  -21.0780    8.1170 N.3   277  ILE277     -0.1245
    167  CA        33.7220  -21.9070    7.0510 C.3   277  ILE277      0.1561
    168  C         32.2720  -22.3010    7.3710 C.2   277  ILE277      0.2260
    169  O         31.3680  -21.8750    6.6470 O.2   277  ILE277     -0.2867
    170  CB        34.6060  -23.1300    6.6420 C.3   277  ILE277      0.0252
    171  CG1       36.0700  -22.7270    6.3020 C.3   277  ILE277      0.0019
    172  CG2       33.9510  -23.9550    5.4960 C.3   277  ILE277      0.0019
    173  CD1       36.2980  -21.8010    5.0240 C.3   277  ILE277      0.0001
@<TRIPOS>BOND
     1    26    25    2
     2    41    42    2
     3    41    40    1
     4    25    24    1
     5    39    40    1
     6    31    32    1
     7    40    43    1
     8    33    34    2
     9    33    32    1
    10    24    23    1
    11    24    27    1
    12    43    44    1
    13    32    35    1
    14    29    28    2
    15    27    28    1
    16    28    30   am
    17    44    45    1
    18    44    46    1
    19    35    36    1
    20    54    52   ar
    21    36    38    1
    22    36    37    1
    23    52    51    1
    24    52    53   ar
    25    16    15    2
    26    51    48    1
    27    20    18   ar
    28    20    22   ar
    29    17    18    1
    30    17    14    1
    31    18    19   ar
    32    22    21   ar
    33    19    21   ar
    34    15    14    1
    35    47    48    1
    36    48    49    1
    37   122   123    1
    38   122   121    1
    39    14    13    1
    40   116   117    1
    41   120   121    2
    42   120   117    1
    43   173   171    1
    44    13     3   am
    45    49    50    2
    46    49    55   am
    47   117   118    1
    48   172   170    1
    49    55    56    1
    50    62    60    1
    51    60    61    1
    52    60    59    1
    53   113   111   ar
    54   113   115   ar
    55     3     4    2
    56     3     2    1
    57   171   170    1
    58    10     8   ar
    59    10    11   ar
    60   111   110   ar
    61   115   114   ar
    62     8     6   ar
    63   170   167    1
    64   169   168    2
    65   118   119    2
    66   108   107    2
    67    59    56    1
    68    56    57    1
    69   167   168    1
    70   167   166    1
    71   163   165   ar
    72   163   161   ar
    73   131   130    1
    74   130   129    1
    75   106   107    1
    76   106   105    1
    77   106   109    1
    78    12    11    1
    79   110   112   ar
    80   110   109    1
    81   165   164   ar
    82   114   112   ar
    83    11     9   ar
    84     2     1    1
    85     2     5    1
    86   129   128    1
    87     6     5    1
    88     6     7   ar
    89   161   160   ar
    90    57    58    2
    91     9     7   ar
    92   164   162   ar
    93   128   125    1
    94   124   125    1
    95   126   125    1
    96   126   127    2
    97    88    87    2
    98    90    92    1
    99    90    89    1
   100   160   162   ar
   101   160   159    1
   102    91    89    1
   103   158   157    2
   104    86    89    1
   105    86    87    1
   106    86    85    1
   107    87    93   am
   108   159   156    1
   109   156   157    1
   110   156   155    1
   111    96    95    2
   112   154   153    1
   113   152   151    2
   114    93    94    1
   115    95    94    1
   116   155   151   am
   117    68    67    1
   118    68    69    1
   119    94    97    1
   120   151   150    1
   121    78    76    1
   122   101    99   ar
   123   101   103   ar
   124   139   137    1
   125    99    98   ar
   126    63    64    1
   127    71    69   am
   128    67    64    1
   129   153   150    1
   130   104   103    1
   131   103   102   ar
   132    69    70    2
   133    75    74    2
   134    79    77    1
   135   135   134    2
   136   150   149    1
   137    98    97    1
   138    98   100   ar
   139   138   137    1
   140    77    76    1
   141   137   136    1
   142    64    65    1
   143    76    73    1
   144   148   146   am
   145   136   133    1
   146   102   100   ar
   147    74    73    1
   148    74    80   am
   149    65    66    2
   150   134   133    1
   151   134   140   am
   152    73    72    1
   153   133   132    1
   154    83    82    2
   155   143   142    2
   156   146   147    2
   157   146   145    1
   158    80    81    1
   159    81    82    1
   160    81    84    1
   161   140   141    1
   162   141   142    1
   163   141   144    1
   164   145   144    1
