@<TRIPOS>MOLECULE
tmp/5u7kB00.pdb
 202 192 0 0 0
SMALL
GASTEIGER

@<TRIPOS>ATOM
      1  N        -12.3820   12.8770   23.4180 N.3    80  TYR80      -0.1227
      2  CA       -13.6410   13.6270   23.3880 C.3    80  TYR80       0.1736
      3  C        -14.3930   13.4380   22.0650 C.2    80  TYR80       0.2595
      4  O        -15.5990   13.2040   22.0620 O.2    80  TYR80      -0.2718
      5  CB       -13.4440   15.1110   23.6680 C.3    80  TYR80       0.0548
      6  CG       -14.7390   15.9090   23.5430 C.ar   80  TYR80      -0.0200
      7  CD1      -15.7080   15.8640   24.5330 C.ar   80  TYR80      -0.0009
      8  CD2      -14.9960   16.6860   22.4230 C.ar   80  TYR80      -0.0009
      9  CE1      -16.9170   16.5720   24.4150 C.ar   80  TYR80       0.0417
     10  CE2      -16.1910   17.4340   22.3030 C.ar   80  TYR80       0.0417
     11  CZ       -17.1530   17.3430   23.3030 C.ar   80  TYR80       0.1957
     12  OH       -18.3000   18.0810   23.2110 O.3    80  TYR80      -0.2866
     13  N        -13.6790   13.5330   20.9500 N.am   81  HIS81      -0.1975
     14  CA       -14.3520   13.5260   19.6450 C.3    81  HIS81       0.1656
     15  C        -14.5520   12.1080   19.0930 C.2    81  HIS81       0.2291
     16  O        -13.9390   11.7190   18.0940 O.2    81  HIS81      -0.2864
     17  CB       -13.5910   14.3910   18.6510 C.3    81  HIS81       0.0771
     18  CG       -13.7800   15.8630   18.8630 C.ar   81  HIS81       0.0820
     19  ND1      -12.8100   16.6650   19.4320 N.ar   81  HIS81      -0.2267
     20  CD2      -14.8100   16.6840   18.5550 C.ar   81  HIS81       0.1154
     21  CE1      -13.2370   17.9190   19.4710 C.ar   81  HIS81       0.1986
     22  NE2      -14.4490   17.9540   18.9500 N.ar   81  HIS81      -0.2212
     23  N        -12.6500   12.1150   13.0310 N.3   125  HIS125     -0.1241
     24  CA       -11.8500   13.0390   13.8290 C.3   125  HIS125      0.1621
     25  C        -10.6190   12.3430   14.4420 C.2   125  HIS125      0.2264
     26  O        -10.7410   11.2970   15.0600 O.2   125  HIS125     -0.2867
     27  CB       -12.7300   13.6550   14.9200 C.3   125  HIS125      0.0745
     28  CG       -12.2370   14.9730   15.4290 C.ar  125  HIS125      0.0817
     29  ND1      -11.1530   15.0800   16.2750 N.ar  125  HIS125     -0.2268
     30  CD2      -12.6950   16.2350   15.2390 C.ar  125  HIS125      0.1154
     31  CE1      -10.9470   16.3520   16.5600 C.ar  125  HIS125      0.1986
     32  NE2      -11.8640   17.0760   15.9390 N.ar  125  HIS125     -0.2212
     33  N         -6.9640   19.6850   16.0520 N.3   129  ASN129     -0.1240
     34  CA        -7.7960   20.7580   15.4920 C.3   129  ASN129      0.1653
     35  C         -7.3230   21.1920   14.1120 C.2   129  ASN129      0.2266
     36  O         -6.4440   20.5670   13.5360 O.2   129  ASN129     -0.2867
     37  CB        -7.9010   21.9510   16.4520 C.3   129  ASN129      0.1155
     38  CG        -6.5880   22.6330   16.6630 C.2   129  ASN129      0.2627
     39  OD1       -5.5640   22.1990   16.1240 O.2   129  ASN129     -0.2716
     40  ND2       -6.5950   23.7180   17.4510 N.am  129  ASN129     -0.0877
     41  N        -13.7930   20.1410    9.3640 N.3   152  GLU152     -0.1245
     42  CA       -15.2520   20.1610    8.9990 C.3   152  GLU152      0.1567
     43  C        -15.6340   19.7630    7.5570 C.2   152  GLU152      0.2260
     44  O        -16.6170   19.0400    7.3220 O.2   152  GLU152     -0.2867
     45  CB       -15.9260   21.5010    9.4380 C.3   152  GLU152      0.0388
     46  CG       -15.9010   21.7430   10.9830 C.3   152  GLU152      0.1160
     47  CD       -14.5300   22.1830   11.5110 C.2   152  GLU152      0.3649
     48  OE1      -13.6990   22.6690   10.6940 O.co2 152  GLU152     -0.2457
     49  OE2      -14.2530   22.0190   12.7370 O.co2 152  GLU152     -0.2457
     50  N        -20.0940   24.0940   12.3440 N.3   193  THR193     -0.1203
     51  CA       -19.5010   23.6240   13.6020 C.3   193  THR193      0.1994
     52  C        -18.0370   24.0890   13.7600 C.2   193  THR193      0.2618
     53  O        -17.4270   23.9070   14.8370 O.2   193  THR193     -0.2717
     54  CB       -19.5530   22.0600   13.7210 C.3   193  THR193      0.1784
     55  OG1      -18.7490   21.4740   12.6960 O.3   193  THR193     -0.2211
     56  CG2      -20.9990   21.5350   13.6070 C.3   193  THR193      0.0376
     57  N        -17.4600   24.6720   12.7040 N.am  194  ASP194     -0.1959
     58  CA       -16.1920   25.4240   12.8470 C.3   194  ASP194      0.1840
     59  C        -16.3930   26.6380   13.7360 C.2   194  ASP194      0.2621
     60  O        -17.2170   27.5330   13.4250 O.2   194  ASP194     -0.2715
     61  CB       -15.6800   25.9010   11.5090 C.3   194  ASP194      0.1450
     62  CG       -14.2180   26.3360   11.5710 C.2   194  ASP194      0.3671
     63  OD1      -13.6830   26.6010   12.6560 O.co2 194  ASP194     -0.2456
     64  OD2      -13.6010   26.4640   10.5360 O.co2 194  ASP194     -0.2456
     65  N        -15.6530   26.6820   14.8360 N.am  195  LEU195     -0.1977
     66  CA       -15.7730   27.8030   15.7570 C.3   195  LEU195      0.1596
     67  C        -15.5560   29.1420   15.0390 C.2   195  LEU195      0.2287
     68  O        -16.2050   30.1270   15.3560 O.2   195  LEU195     -0.2864
     69  CB       -14.8490   27.6180   16.9960 C.3   195  LEU195      0.0297
     70  CG       -14.7680   28.7620   18.0270 C.3   195  LEU195      0.0022
     71  CD1      -16.1440   29.2010   18.5640 C.3   195  LEU195      0.0001
     72  CD2      -13.8280   28.4460   19.2110 C.3   195  LEU195      0.0001
     73  N        -18.8550   30.1970   13.3640 N.3   198  HIS198     -0.1241
     74  CA       -19.7830   30.7880   14.3460 C.3   198  HIS198      0.1621
     75  C        -19.3280   32.2210   14.6490 C.2   198  HIS198      0.2264
     76  O        -20.1310   33.1480   14.6830 O.2   198  HIS198     -0.2867
     77  CB       -19.8020   29.9440   15.6320 C.3   198  HIS198      0.0745
     78  CG       -20.4580   30.6140   16.8290 C.ar  198  HIS198      0.0817
     79  ND1      -21.8300   30.7580   16.9590 N.ar  198  HIS198     -0.2268
     80  CD2      -19.9230   31.1280   17.9650 C.ar  198  HIS198      0.1154
     81  CE1      -22.1060   31.3380   18.1170 C.ar  198  HIS198      0.1986
     82  NE2      -20.9670   31.5730   18.7480 N.ar  198  HIS198     -0.2212
     83  N        -24.6810   24.4330   16.6670 N.3   230  THR230     -0.1218
     84  CA       -23.7480   24.7820   17.7000 C.3   230  THR230      0.1862
     85  C        -24.2440   24.5670   19.1000 C.2   230  THR230      0.2287
     86  O        -23.4760   24.2810   19.9700 O.2   230  THR230     -0.2866
     87  CB       -23.1350   26.1750   17.5450 C.3   230  THR230      0.1770
     88  OG1      -24.1310   27.1450   17.5570 O.3   230  THR230     -0.2211
     89  CG2      -22.3800   26.3040   16.2900 C.3   230  THR230      0.0375
     90  N        -23.7140   20.8260   19.5410 N.3   233  ASP233     -0.1225
     91  CA       -22.3110   20.5210   19.6240 C.3   233  ASP233      0.1805
     92  C        -21.7960   20.7380   21.0610 C.2   233  ASP233      0.2597
     93  O        -20.8980   20.0560   21.4920 O.2   233  ASP233     -0.2718
     94  CB       -21.5240   21.4210   18.6460 C.3   233  ASP233      0.1424
     95  CG       -20.2590   20.7340   18.0890 C.2   233  ASP233      0.3668
     96  OD1      -19.8490   19.7000   18.6610 O.co2 233  ASP233     -0.2456
     97  OD2      -19.6470   21.2380   17.1030 O.co2 233  ASP233     -0.2456
     98  N        -22.3600   21.7040   21.7790 N.am  234  LEU234     -0.1979
     99  CA       -21.9050   22.0580   23.1100 C.3   234  LEU234      0.1596
    100  C        -22.9570   21.7270   24.1780 C.2   234  LEU234      0.2287
    101  O        -22.8530   22.2090   25.2840 O.2   234  LEU234     -0.2864
    102  CB       -21.6590   23.5680   23.1860 C.3   234  LEU234      0.0297
    103  CG       -20.6530   24.2470   22.2680 C.3   234  LEU234      0.0022
    104  CD1      -20.6480   25.7260   22.5580 C.3   234  LEU234      0.0001
    105  CD2      -19.2810   23.6750   22.4420 C.3   234  LEU234      0.0001
    106  N        -22.7680   21.0800   28.2450 N.3   237  GLN237     -0.1245
    107  CA       -22.5410   22.1650   29.1730 C.3   237  GLN237      0.1566
    108  C        -23.8560   22.4990   29.8570 C.2   237  GLN237      0.2260
    109  O        -23.8950   23.3560   30.7250 O.2   237  GLN237     -0.2867
    110  CB       -22.0080   23.4040   28.4140 C.3   237  GLN237      0.0367
    111  CG       -20.5540   23.3050   27.8730 C.3   237  GLN237      0.0905
    112  CD       -19.6340   22.5860   28.8460 C.2   237  GLN237      0.2608
    113  OE1      -19.6580   22.8470   30.0410 O.2   237  GLN237     -0.2717
    114  NE2      -18.8550   21.6420   28.3380 N.am  237  GLN237     -0.0878
    115  N        -16.4190   16.2540   30.9310 N.3   247  ILE247     -0.1231
    116  CA       -16.1350   16.6370   29.5500 C.3   247  ILE247      0.1692
    117  C        -14.8420   17.4600   29.5200 C.2   247  ILE247      0.2591
    118  O        -13.9880   17.2280   28.6520 O.2   247  ILE247     -0.2718
    119  CB       -17.3350   17.4080   28.8550 C.3   247  ILE247      0.0266
    120  CG1      -18.4510   16.4620   28.3400 C.3   247  ILE247      0.0019
    121  CG2      -16.8360   18.2320   27.6710 C.3   247  ILE247      0.0020
    122  CD1      -18.4730   15.0290   28.8820 C.3   247  ILE247      0.0001
    123  N        -14.6720   18.3910   30.4630 N.am  248  ALA248     -0.1980
    124  CA       -13.3650   19.0620   30.6610 C.3   248  ALA248      0.1597
    125  C        -12.1630   18.1200   30.5710 C.2   248  ALA248      0.2287
    126  O        -11.1760   18.3940   29.8800 O.2   248  ALA248     -0.2864
    127  CB       -13.3380   19.8110   31.9970 C.3   248  ALA248      0.0319
    128  N        -11.7850   16.6990   27.1470 N.3   251  ILE251     -0.1231
    129  CA       -11.2930   17.7860   26.2910 C.3   251  ILE251      0.1692
    130  C         -9.7940   18.0630   26.4810 C.2   251  ILE251      0.2592
    131  O         -9.0240   18.0810   25.5110 O.2   251  ILE251     -0.2718
    132  CB       -12.1290   19.0740   26.4850 C.3   251  ILE251      0.0266
    133  CG1      -13.5450   18.9080   25.8600 C.3   251  ILE251      0.0019
    134  CG2      -11.3780   20.3040   26.0040 C.3   251  ILE251      0.0020
    135  CD1      -13.7210   19.4410   24.4850 C.3   251  ILE251      0.0001
    136  N         -9.3680   18.2270   27.7290 N.am  252  TYR252     -0.1976
    137  CA        -7.9740   18.5480   28.0160 C.3   252  TYR252      0.1639
    138  C         -7.0360   17.4100   27.7400 C.2   252  TYR252      0.2290
    139  O         -5.9530   17.6220   27.2340 O.2   252  TYR252     -0.2864
    140  CB        -7.8090   19.2450   29.3700 C.3   252  TYR252      0.0560
    141  CG        -8.4940   20.5900   29.2840 C.ar  252  TYR252     -0.0198
    142  CD1       -9.6390   20.8730   30.0150 C.ar  252  TYR252     -0.0009
    143  CD2       -8.0210   21.5610   28.4060 C.ar  252  TYR252     -0.0009
    144  CE1      -10.2970   22.1180   29.8800 C.ar  252  TYR252      0.0417
    145  CE2       -8.6720   22.7770   28.2510 C.ar  252  TYR252      0.0417
    146  CZ        -9.8010   23.0580   28.9920 C.ar  252  TYR252      0.1957
    147  OH       -10.4390   24.2770   28.8150 O.3   252  TYR252     -0.2866
    148  N         -6.6230   17.7460   24.0020 N.3   255  PHE255     -0.1241
    149  CA        -5.8190   18.9600   23.7140 C.3   255  PHE255      0.1605
    150  C         -4.3880   18.7500   24.1550 C.2   255  PHE255      0.2264
    151  O         -3.4560   18.9750   23.3820 O.2   255  PHE255     -0.2867
    152  CB        -6.3620   20.1700   24.4960 C.3   255  PHE255      0.0534
    153  CG        -7.6070   20.8150   23.8870 C.ar  255  PHE255     -0.0203
    154  CD1       -8.3430   20.1630   22.9070 C.ar  255  PHE255     -0.0042
    155  CD2       -8.0460   22.0600   24.3260 C.ar  255  PHE255     -0.0042
    156  CE1       -9.4770   20.7550   22.3420 C.ar  255  PHE255     -0.0003
    157  CE2       -9.1760   22.6560   23.7650 C.ar  255  PHE255     -0.0003
    158  CZ        -9.8910   21.9900   22.7610 C.ar  255  PHE255     -0.0000
    159  N         -3.7990   26.4910   26.0690 N.3   272  MET272     -0.1245
    160  CA        -4.8680   25.5650   26.4660 C.3   272  MET272      0.1570
    161  C         -4.5460   24.1580   25.9840 C.2   272  MET272      0.2261
    162  O         -5.1990   23.1970   26.3590 O.2   272  MET272     -0.2867
    163  CB        -6.2280   26.0110   25.8930 C.3   272  MET272      0.0387
    164  CG        -6.4430   25.7720   24.3530 C.3   272  MET272      0.0595
    165  SD        -8.1530   26.1210   23.7900 S.3   272  MET272     -0.1393
    166  CE        -8.2210   27.9140   24.0370 C.3   272  MET272      0.0692
    167  N        -11.9150   27.0160   31.2950 N.3   284  GLN284     -0.1245
    168  CA       -13.3210   26.6860   31.2510 C.3   284  GLN284      0.1566
    169  C        -14.2230   27.8770   31.4500 C.2   284  GLN284      0.2260
    170  O        -15.2180   28.0380   30.7280 O.2   284  GLN284     -0.2867
    171  CB       -13.6320   25.6550   32.3110 C.3   284  GLN284      0.0367
    172  CG       -13.2400   24.2450   31.9010 C.3   284  GLN284      0.0905
    173  CD       -14.0730   23.7350   30.7360 C.2   284  GLN284      0.2608
    174  OE1      -15.2360   23.3540   30.9010 O.2   284  GLN284     -0.2717
    175  NE2      -13.4730   23.7240   29.5440 N.am  284  GLN284     -0.0878
    176  N        -14.2280   29.9230   28.2380 N.3   287  PHE287     -0.1241
    177  CA       -15.0660   29.1800   27.3120 C.3   287  PHE287      0.1605
    178  C        -16.5670   29.3640   27.5600 C.2   287  PHE287      0.2264
    179  O        -17.3150   29.6280   26.6250 O.2   287  PHE287     -0.2867
    180  CB       -14.6790   27.6820   27.3160 C.3   287  PHE287      0.0534
    181  CG       -15.4910   26.8720   26.3710 C.ar  287  PHE287     -0.0203
    182  CD1      -15.3600   27.0580   24.9910 C.ar  287  PHE287     -0.0042
    183  CD2      -16.4250   25.9810   26.8400 C.ar  287  PHE287     -0.0042
    184  CE1      -16.1420   26.3520   24.0880 C.ar  287  PHE287     -0.0003
    185  CE2      -17.2180   25.2690   25.9390 C.ar  287  PHE287     -0.0003
    186  CZ       -17.0690   25.4550   24.5680 C.ar  287  PHE287     -0.0000
    187  N        -17.8450   31.7100   24.6290 N.3   291  ILE291     -0.1245
    188  CA       -18.4760   30.8270   23.6240 C.3   291  ILE291      0.1561
    189  C        -19.8330   30.2610   24.0540 C.2   291  ILE291      0.2260
    190  O        -20.8400   30.5700   23.4410 O.2   291  ILE291     -0.2867
    191  CB       -17.5470   29.6400   23.2280 C.3   291  ILE291      0.0252
    192  CG1      -16.1080   30.1060   23.0750 C.3   291  ILE291      0.0019
    193  CG2      -18.0290   28.9620   21.9560 C.3   291  ILE291      0.0019
    194  CD1      -15.9510   31.1480   22.1330 C.3   291  ILE291      0.0001
    195  N        -24.1750   31.5660   23.0070 N.3   295  ILE295     -0.1245
    196  CA       -24.9500   30.6200   22.1810 C.3   295  ILE295      0.1561
    197  C        -26.2910   30.2580   22.8130 C.2   295  ILE295      0.2260
    198  O        -27.3350   30.2800   22.1390 O.2   295  ILE295     -0.2867
    199  CB       -24.1590   29.3200   21.8180 C.3   295  ILE295      0.0252
    200  CG1      -23.0070   29.6610   20.8570 C.3   295  ILE295      0.0019
    201  CG2      -25.0990   28.2920   21.1690 C.3   295  ILE295      0.0019
    202  CD1      -22.0760   28.4600   20.4570 C.3   295  ILE295      0.0001
@<TRIPOS>BOND
     1    44    43    2
     2    43    42    1
     3    42    41    1
     4    42    45    1
     5    45    46    1
     6    64    62   ar
     7    48    47   ar
     8    46    47    1
     9    61    62    1
    10    61    58    1
    11    47    49   ar
    12    62    63   ar
    13    50    51    1
    14    55    54    1
    15    57    58    1
    16    57    52   am
    17    58    59    1
    18    23    24    1
    19    73    74    1
    20    60    59    2
    21    36    35    2
    22    51    54    1
    23    51    52    1
    24    56    54    1
    25    59    65   am
    26    52    53    2
    27    24    25    1
    28    24    27    1
    29    35    34    1
    30    74    75    1
    31    74    77    1
    32    25    26    2
    33    75    76    2
    34    65    66    1
    35    27    28    1
    36    67    68    2
    37    67    66    1
    38    30    28   ar
    39    30    32   ar
    40    28    29   ar
    41    34    33    1
    42    34    37    1
    43    77    78    1
    44    66    69    1
    45    32    31   ar
    46    39    38    2
    47    29    31   ar
    48    89    87    1
    49    37    38    1
    50    38    40   am
    51    83    84    1
    52    78    79   ar
    53    78    80   ar
    54    79    81   ar
    55    69    70    1
    56    97    95   ar
    57    87    88    1
    58    87    84    1
    59    84    85    1
    60    80    82   ar
    61    70    71    1
    62    70    72    1
    63    95    94    1
    64    95    96   ar
    65    16    15    2
    66    81    82   ar
    67    20    18   ar
    68    20    22   ar
    69    94    91    1
    70    17    18    1
    71    17    14    1
    72    18    19   ar
    73    22    21   ar
    74    15    14    1
    75    85    86    2
    76    19    21   ar
    77    90    91    1
    78    91    92    1
    79    14    13    1
    80   202   200    1
    81   200   199    1
    82    13     3   am
    83    92    93    2
    84    92    98   am
    85   201   199    1
    86    98    99    1
    87   199   196    1
    88   193   191    1
    89     4     3    2
    90     3     2    1
    91   194   192    1
    92   198   197    2
    93   196   197    1
    94   196   195    1
    95   103   105    1
    96   103   104    1
    97   103   102    1
    98    10     8   ar
    99    10    11   ar
   100   156   158   ar
   101   156   154   ar
   102     8     6   ar
   103   158   157   ar
   104   154   153   ar
   105   192   191    1
   106    99   102    1
   107    99   100    1
   108    12    11    1
   109   191   188    1
   110    11     9   ar
   111   151   150    2
   112     2     1    1
   113     2     5    1
   114   190   189    2
   115     6     5    1
   116     6     7   ar
   117   188   189    1
   118   188   187    1
   119   149   148    1
   120   149   150    1
   121   149   152    1
   122   157   155   ar
   123   165   166    1
   124   165   164    1
   125   153   155   ar
   126   153   152    1
   127   184   186   ar
   128   184   182   ar
   129   100   101    2
   130   164   163    1
   131     9     7   ar
   132   135   133    1
   133   186   185   ar
   134   182   181   ar
   135   131   130    2
   136   133   132    1
   137   163   160    1
   138   185   183   ar
   139   161   162    2
   140   161   160    1
   141   134   132    1
   142   159   160    1
   143   129   130    1
   144   129   132    1
   145   129   128    1
   146   181   183   ar
   147   181   180    1
   148   130   136   am
   149   179   178    2
   150   139   138    2
   151   177   180    1
   152   177   178    1
   153   177   176    1
   154   121   119    1
   155   136   137    1
   156   138   137    1
   157   111   110    1
   158   111   112    1
   159   137   140    1
   160   106   107    1
   161   145   143   ar
   162   145   146   ar
   163   114   112   am
   164   120   119    1
   165   120   122    1
   166   143   141   ar
   167   110   107    1
   168   118   117    2
   169   147   146    1
   170   112   113    2
   171   119   116    1
   172   146   144   ar
   173   107   108    1
   174   141   140    1
   175   141   142   ar
   176   117   116    1
   177   117   123   am
   178   175   173   am
   179   116   115    1
   180   108   109    2
   181   126   125    2
   182   144   142   ar
   183   123   124    1
   184   125   124    1
   185   124   127    1
   186   170   169    2
   187   173   174    2
   188   173   172    1
   189   168   167    1
   190   168   169    1
   191   168   171    1
   192   172   171    1
