@<TRIPOS>MOLECULE
tmp/5u7lC00.pdb
 220 209 0 0 0
SMALL
GASTEIGER

@<TRIPOS>ATOM
      1  N         12.0830   -4.0170   68.9790 N.3    77  TYR77      -0.1227
      2  CA        10.9180   -3.1700   68.8830 C.3    77  TYR77       0.1736
      3  C         10.1800   -3.1960   67.5370 C.2    77  TYR77       0.2595
      4  O          8.9570   -3.2450   67.5070 O.2    77  TYR77      -0.2718
      5  CB        11.2970   -1.7440   69.1850 C.3    77  TYR77       0.0548
      6  CG        10.1040   -0.8260   69.0940 C.ar   77  TYR77      -0.0200
      7  CD1        9.1840   -0.7770   70.1210 C.ar   77  TYR77      -0.0009
      8  CD2        9.8860   -0.0190   67.9650 C.ar   77  TYR77      -0.0009
      9  CE1        8.1160    0.0510   70.0470 C.ar   77  TYR77       0.0417
     10  CE2        8.8360    0.7820   67.9000 C.ar   77  TYR77       0.0417
     11  CZ         7.9510    0.8370   68.9490 C.ar   77  TYR77       0.1957
     12  OH         6.8520    1.6670   68.8810 O.3    77  TYR77      -0.2866
     13  N         10.8910   -3.1250   66.4190 N.am   78  HIS78      -0.1975
     14  CA        10.1570   -3.0570   65.1400 C.3    78  HIS78       0.1656
     15  C          9.7460   -4.4290   64.6250 C.2    78  HIS78       0.2291
     16  O         10.1390   -4.8250   63.5400 O.2    78  HIS78      -0.2864
     17  CB        10.9230   -2.2740   64.0580 C.3    78  HIS78       0.0771
     18  CG        11.0130   -0.8030   64.3240 C.ar   78  HIS78       0.0820
     19  ND1       12.1310   -0.2090   64.8740 N.ar   78  HIS78      -0.2267
     20  CD2       10.1310    0.1990   64.0930 C.ar   78  HIS78       0.1154
     21  CE1       11.9370    1.0940   64.9580 C.ar   78  HIS78       0.1986
     22  NE2       10.7280    1.3680   64.4990 N.ar   78  HIS78      -0.2212
     23  N          4.6060   -4.6430   67.1310 N.3    82  HIS82      -0.1241
     24  CA         4.5140   -3.1900   66.9560 C.3    82  HIS82       0.1621
     25  C          3.4720   -2.9030   65.9040 C.2    82  HIS82       0.2264
     26  O          2.5930   -2.0840   66.1150 O.2    82  HIS82      -0.2867
     27  CB         5.8670   -2.5560   66.6010 C.3    82  HIS82       0.0745
     28  CG         5.7900   -1.1890   65.9640 C.ar   82  HIS82       0.0817
     29  ND1        5.4330   -0.0500   66.6590 N.ar   82  HIS82      -0.2268
     30  CD2        6.1100   -0.7720   64.7140 C.ar   82  HIS82       0.1154
     31  CE1        5.4970    1.0000   65.8620 C.ar   82  HIS82       0.1986
     32  NE2        5.9060    0.5920   64.6730 N.ar   82  HIS82      -0.2212
     33  N         11.6400   -4.7250   58.6500 N.3   122  HIS122     -0.1241
     34  CA        12.5600   -3.8490   59.3920 C.3   122  HIS122      0.1621
     35  C         13.6720   -4.7200   59.9950 C.2   122  HIS122      0.2264
     36  O         13.4070   -5.8450   60.4390 O.2   122  HIS122     -0.2867
     37  CB        11.8100   -3.1470   60.5300 C.3   122  HIS122      0.0745
     38  CG        12.3660   -1.8000   60.8880 C.ar  122  HIS122      0.0817
     39  ND1       13.5710   -1.6350   61.5410 N.ar  122  HIS122     -0.2268
     40  CD2       11.8880   -0.5470   60.6580 C.ar  122  HIS122      0.1154
     41  CE1       13.7940   -0.3460   61.7250 C.ar  122  HIS122      0.1986
     42  NE2       12.7880    0.3370   61.1990 N.ar  122  HIS122     -0.2212
     43  N         18.1960    2.2600   61.4160 N.3   126  ASN126     -0.1240
     44  CA        17.4770    3.3500   60.7910 C.3   126  ASN126      0.1653
     45  C         18.0350    3.6860   59.3960 C.2   126  ASN126      0.2266
     46  O         18.9270    2.9950   58.8820 O.2   126  ASN126     -0.2867
     47  CB        17.4170    4.5810   61.7180 C.3   126  ASN126      0.1155
     48  CG        18.7810    5.2240   61.9410 C.2   126  ASN126      0.2627
     49  OD1       19.7980    4.7580   61.4420 O.2   126  ASN126     -0.2716
     50  ND2       18.8100    6.2790   62.7170 N.am  126  ASN126     -0.0877
     51  N         11.4560    3.2560   54.4430 N.3   149  GLU149     -0.1245
     52  CA        10.0360    3.4040   54.1280 C.3   149  GLU149      0.1567
     53  C          9.6720    2.9880   52.6920 C.2   149  GLU149      0.2260
     54  O          8.5670    2.4720   52.4380 O.2   149  GLU149     -0.2867
     55  CB         9.5010    4.7970   54.4770 C.3   149  GLU149      0.0388
     56  CG         9.5470    5.1760   55.9530 C.3   149  GLU149      0.1160
     57  CD        10.9620    5.4390   56.4760 C.2   149  GLU149      0.3649
     58  OE1       11.8730    5.7470   55.6750 O.co2 149  GLU149     -0.2457
     59  OE2       11.1800    5.3320   57.7080 O.co2 149  GLU149     -0.2457
     60  N          5.3650    7.8520   57.3750 N.3   190  THR190     -0.1218
     61  CA         5.9260    7.4120   58.6500 C.3   190  THR190      0.1862
     62  C          7.3940    7.8650   58.9280 C.2   190  THR190      0.2287
     63  O          7.8580    7.7880   60.0570 O.2   190  THR190     -0.2866
     64  CB         5.7750    5.8780   58.8400 C.3   190  THR190      0.1770
     65  OG1        6.5190    5.1790   57.8330 O.3   190  THR190     -0.2211
     66  CG2        4.3330    5.4740   58.6810 C.3   190  THR190      0.0375
     67  N         10.1060   10.2350   60.0590 N.3   192  LEU192     -0.1245
     68  CA        10.1190   11.4570   60.8910 C.3   192  LEU192      0.1561
     69  C         10.5450   12.6920   60.0790 C.2   192  LEU192      0.2260
     70  O         10.0540   13.7930   60.3030 O.2   192  LEU192     -0.2867
     71  CB        11.0550   11.2980   62.0750 C.3   192  LEU192      0.0270
     72  CG        11.3800   12.5360   62.9290 C.3   192  LEU192      0.0019
     73  CD1       10.1440   13.0360   63.6620 C.3   192  LEU192      0.0001
     74  CD2       12.4380   12.1120   63.9170 C.3   192  LEU192      0.0001
     75  N          7.5490   13.9170   58.4080 N.3   195  HIS195     -0.1241
     76  CA         6.6540   14.5880   59.3220 C.3   195  HIS195      0.1621
     77  C          7.1530   15.9900   59.7150 C.2   195  HIS195      0.2264
     78  O          6.3610   16.9210   59.8780 O.2   195  HIS195     -0.2867
     79  CB         6.4140   13.7070   60.5470 C.3   195  HIS195      0.0745
     80  CG         5.8500   14.4430   61.7150 C.ar  195  HIS195      0.0817
     81  ND1        4.5010   14.7060   61.8520 N.ar  195  HIS195     -0.2268
     82  CD2        6.4530   14.9680   62.8060 C.ar  195  HIS195      0.1154
     83  CE1        4.2990   15.3540   62.9860 C.ar  195  HIS195      0.1986
     84  NE2        5.4670   15.5190   63.5870 N.ar  195  HIS195     -0.2212
     85  N          1.0060    8.9190   62.0470 N.3   227  THR227     -0.1218
     86  CA         2.0870    9.1450   62.9950 C.3   227  THR227      0.1862
     87  C          1.5690    9.0090   64.3920 C.2   227  THR227      0.2287
     88  O          2.2950    8.5550   65.2730 O.2   227  THR227     -0.2866
     89  CB         2.8080   10.5010   62.8190 C.3   227  THR227      0.1770
     90  OG1        1.8420   11.5530   62.8510 O.3   227  THR227     -0.2211
     91  CG2        3.5540   10.5710   61.4670 C.3   227  THR227      0.0375
     92  N          1.7010    5.3240   64.8970 N.3   230  ASP230     -0.1225
     93  CA         3.0700    4.8820   65.0300 C.3   230  ASP230      0.1805
     94  C          3.6060    5.1230   66.4200 C.2   230  ASP230      0.2597
     95  O          4.3200    4.2790   66.9310 O.2   230  ASP230     -0.2718
     96  CB         3.9890    5.5330   63.9910 C.3   230  ASP230      0.1424
     97  CG         5.0360    4.5490   63.4410 C.2   230  ASP230      0.3668
     98  OD1        5.2370    3.4570   64.0080 O.co2 230  ASP230     -0.2456
     99  OD2        5.6420    4.8410   62.4160 O.co2 230  ASP230     -0.2456
    100  N          3.2380    6.2640   67.0150 N.am  231  LEU231     -0.1979
    101  CA         3.6700    6.6250   68.3610 C.3   231  LEU231      0.1596
    102  C          2.6820    6.2190   69.4850 C.2   231  LEU231      0.2287
    103  O          2.8530    6.5830   70.6550 O.2   231  LEU231     -0.2864
    104  CB         3.9390    8.1380   68.4350 C.3   231  LEU231      0.0297
    105  CG         5.1170    8.6900   67.6110 C.3   231  LEU231      0.0022
    106  CD1        5.4330   10.1390   68.0400 C.3   231  LEU231      0.0001
    107  CD2        6.4090    7.8140   67.6880 C.3   231  LEU231      0.0001
    108  N          2.1480    3.8320   71.4340 N.3   233  ASP233     -0.1225
    109  CA         2.6000    3.1270   72.6230 C.3   233  ASP233      0.1805
    110  C          2.8480    4.1360   73.7710 C.2   233  ASP233      0.2597
    111  O          3.0020    3.7490   74.9340 O.2   233  ASP233     -0.2718
    112  CB         3.8910    2.3200   72.3190 C.3   233  ASP233      0.1424
    113  CG         3.6430    1.1030   71.3850 C.2   233  ASP233      0.3668
    114  OD1        2.6280    0.3950   71.5870 O.co2 233  ASP233     -0.2456
    115  OD2        4.4650    0.8300   70.4620 O.co2 233  ASP233     -0.2456
    116  N          2.9120    5.4270   73.4350 N.am  234  GLN234     -0.1979
    117  CA         3.1910    6.4650   74.4290 C.3   234  GLN234      0.1601
    118  C          1.8890    7.0050   75.0780 C.2   234  GLN234      0.2287
    119  O          1.9170    7.9540   75.8490 O.2   234  GLN234     -0.2864
    120  CB         3.9960    7.6170   73.7880 C.3   234  GLN234      0.0394
    121  CG         5.4930    7.3440   73.5070 C.3   234  GLN234      0.0908
    122  CD         6.2760    6.6750   74.6770 C.2   234  GLN234      0.2608
    123  OE1        6.0470    6.9200   75.8820 O.2   234  GLN234     -0.2717
    124  NE2        7.1910    5.8060   74.3050 N.am  234  GLN234     -0.0878
    125  N          8.4710   -0.0090   76.6990 N.3   244  ILE244     -0.1231
    126  CA         8.7750    0.4070   75.3410 C.3   244  ILE244      0.1692
    127  C         10.1520    1.0670   75.2330 C.2   244  ILE244      0.2591
    128  O         10.8600    0.8530   74.2590 O.2   244  ILE244     -0.2718
    129  CB         7.6630    1.3330   74.7940 C.3   244  ILE244      0.0266
    130  CG1        6.3870    0.5280   74.5230 C.3   244  ILE244      0.0019
    131  CG2        8.1100    2.1110   73.5750 C.3   244  ILE244      0.0020
    132  CD1        6.5840   -0.9140   74.1740 C.3   244  ILE244      0.0001
    133  N         10.5210    1.8570   76.2350 N.am  245  ALA245     -0.1980
    134  CA        11.8660    2.4040   76.3160 C.3   245  ALA245      0.1597
    135  C         12.8950    1.2650   76.3860 C.2   245  ALA245      0.2287
    136  O         13.9420    1.3510   75.7680 O.2   245  ALA245     -0.2864
    137  CB        12.0110    3.3780   77.5050 C.3   245  ALA245      0.0319
    138  N         13.0940    0.0100   72.8130 N.3   248  ILE248     -0.1231
    139  CA        13.6930    0.9820   71.9020 C.3   248  ILE248      0.1692
    140  C         15.2070    1.1930   72.0940 C.2   248  ILE248      0.2592
    141  O         15.9650    1.2010   71.1280 O.2   248  ILE248     -0.2718
    142  CB        12.9280    2.2850   71.9200 C.3   248  ILE248      0.0266
    143  CG1       11.7100    2.1360   71.0120 C.3   248  ILE248      0.0019
    144  CG2       13.7940    3.4330   71.4170 C.3   248  ILE248      0.0020
    145  CD1       10.6760    3.2100   71.2450 C.3   248  ILE248      0.0001
    146  N         15.6640    1.3870   73.3260 N.am  249  TYR249     -0.1976
    147  CA        17.1030    1.5730   73.5180 C.3   249  TYR249      0.1639
    148  C         17.8900    0.2900   73.3100 C.2   249  TYR249      0.2290
    149  O         19.0210    0.3180   72.8200 O.2   249  TYR249     -0.2864
    150  CB        17.4110    2.3010   74.8080 C.3   249  TYR249      0.0560
    151  CG        16.9190    3.7060   74.6640 C.ar  249  TYR249     -0.0198
    152  CD1       17.5760    4.6130   73.8440 C.ar  249  TYR249     -0.0009
    153  CD2       15.7610    4.1100   75.2730 C.ar  249  TYR249     -0.0009
    154  CE1       17.1060    5.9200   73.6690 C.ar  249  TYR249      0.0417
    155  CE2       15.2720    5.4110   75.0930 C.ar  249  TYR249      0.0417
    156  CZ        15.9460    6.3090   74.2970 C.ar  249  TYR249      0.1957
    157  OH        15.4470    7.5940   74.1370 O.3   249  TYR249     -0.2866
    158  N         18.3790    0.4880   69.5850 N.3   252  PHE252     -0.1241
    159  CA        19.3130    1.5780   69.2480 C.3   252  PHE252      0.1605
    160  C         20.7320    1.2410   69.6700 C.2   252  PHE252      0.2264
    161  O         21.6850    1.4930   68.9410 O.2   252  PHE252     -0.2867
    162  CB        18.9180    2.8810   69.9480 C.3   252  PHE252      0.0534
    163  CG        17.7420    3.5990   69.3250 C.ar  252  PHE252     -0.0203
    164  CD1       17.0020    3.0300   68.2800 C.ar  252  PHE252     -0.0042
    165  CD2       17.3420    4.8400   69.8230 C.ar  252  PHE252     -0.0042
    166  CE1       15.9220    3.7120   67.7270 C.ar  252  PHE252     -0.0003
    167  CE2       16.2380    5.5170   69.2780 C.ar  252  PHE252     -0.0003
    168  CZ        15.5470    4.9650   68.2200 C.ar  252  PHE252     -0.0000
    169  N         22.3980    9.1080   71.2820 N.3   269  MET269     -0.1245
    170  CA        21.3090    8.2490   71.7170 C.3   269  MET269      0.1570
    171  C         21.4640    6.8010   71.2810 C.2   269  MET269      0.2261
    172  O         20.7070    5.9440   71.7460 O.2   269  MET269     -0.2867
    173  CB        19.9750    8.7700   71.2300 C.3   269  MET269      0.0387
    174  CG        19.7630    8.5890   69.7620 C.3   269  MET269      0.0595
    175  SD        18.1500    9.2010   69.3120 S.3   269  MET269     -0.1393
    176  CE        18.2490    8.9910   67.5290 C.3   269  MET269      0.0692
    177  N         16.7940   11.8440   77.1800 N.3   280  LEU280     -0.1231
    178  CA        16.4280   11.6210   75.7870 C.3   280  LEU280      0.1693
    179  C         14.9360   11.3850   75.6750 C.2   280  LEU280      0.2591
    180  O         14.3190   11.7900   74.6980 O.2   280  LEU280     -0.2718
    181  CB        17.1760   10.4360   75.1710 C.3   280  LEU280      0.0284
    182  CG        18.6850   10.6180   75.0670 C.3   280  LEU280      0.0019
    183  CD1       19.3870    9.2450   75.0740 C.3   280  LEU280      0.0001
    184  CD2       19.0290   11.4260   73.8320 C.3   280  LEU280      0.0001
    185  N         14.3560   10.7170   76.6610 N.am  281  GLN281     -0.1979
    186  CA        12.9330   10.4440   76.6040 C.3   281  GLN281      0.1601
    187  C         12.1560   11.7230   76.8970 C.2   281  GLN281      0.2287
    188  O         11.2920   12.1040   76.1330 O.2   281  GLN281     -0.2864
    189  CB        12.5400    9.2740   77.5050 C.3   281  GLN281      0.0394
    190  CG        12.7870    7.8960   76.8360 C.3   281  GLN281      0.0908
    191  CD        12.1610    7.7930   75.4350 C.2   281  GLN281      0.2608
    192  OE1       10.9530    7.6180   75.3140 O.2   281  GLN281     -0.2717
    193  NE2       12.9790    7.9250   74.3770 N.am  281  GLN281     -0.0878
    194  N         12.2890   13.5630   73.7180 N.3   284  PHE284     -0.1241
    195  CA        11.5480   13.0010   72.6220 C.3   284  PHE284      0.1605
    196  C         10.0520   13.2730   72.8460 C.2   284  PHE284      0.2264
    197  O          9.3140   13.6110   71.9300 O.2   284  PHE284     -0.2867
    198  CB        11.8120   11.5020   72.5060 C.3   284  PHE284      0.0534
    199  CG        10.8430   10.8130   71.6120 C.ar  284  PHE284     -0.0203
    200  CD1       10.9170   11.0110   70.2360 C.ar  284  PHE284     -0.0042
    201  CD2        9.8140   10.0550   72.1400 C.ar  284  PHE284     -0.0042
    202  CE1       10.0310   10.4450   69.4100 C.ar  284  PHE284     -0.0003
    203  CE2        8.9180    9.4940   71.3090 C.ar  284  PHE284     -0.0003
    204  CZ         9.0200    9.7020   69.9290 C.ar  284  PHE284     -0.0000
    205  N          8.3940   15.8650   69.9570 N.3   288  ILE288     -0.1245
    206  CA         7.8330   15.0490   68.8930 C.3   288  ILE288      0.1561
    207  C          6.4540   14.4770   69.2940 C.2   288  ILE288      0.2260
    208  O          5.4510   14.7900   68.6550 O.2   288  ILE288     -0.2867
    209  CB         8.7760   13.8880   68.5000 C.3   288  ILE288      0.0252
    210  CG1       10.1360   14.4040   68.0010 C.3   288  ILE288      0.0019
    211  CG2        8.1480   13.0050   67.4050 C.3   288  ILE288      0.0019
    212  CD1       11.0210   13.2530   67.4300 C.3   288  ILE288      0.0001
    213  N          2.3810   16.2610   68.2070 N.3   292  ILE292     -0.1245
    214  CA         1.5190   15.3910   67.4460 C.3   292  ILE292      0.1561
    215  C          0.1840   15.1120   68.1310 C.2   292  ILE292      0.2260
    216  O         -0.8370   15.0650   67.4760 O.2   292  ILE292     -0.2867
    217  CB         2.2290   14.0580   67.1570 C.3   292  ILE292      0.0252
    218  CG1        3.2550   14.2600   66.0350 C.3   292  ILE292      0.0019
    219  CG2        1.1950   12.9650   66.8390 C.3   292  ILE292      0.0019
    220  CD1        4.2630   13.1430   65.9070 C.3   292  ILE292      0.0001
@<TRIPOS>BOND
     1    54    53    2
     2    53    52    1
     3    52    51    1
     4    52    55    1
     5    55    56    1
     6    58    57   ar
     7    56    57    1
     8    57    59   ar
     9    60    61    1
    10    65    64    1
    11    75    76    1
    12    33    34    1
    13    61    64    1
    14    61    62    1
    15    66    64    1
    16    46    45    2
    17    62    63    2
    18    76    77    1
    19    76    79    1
    20    34    35    1
    21    34    37    1
    22    45    44    1
    23    77    78    2
    24    35    36    2
    25    67    68    1
    26    69    70    2
    27    69    68    1
    28    37    38    1
    29    79    80    1
    30    40    38   ar
    31    40    42   ar
    32    44    43    1
    33    44    47    1
    34    38    39   ar
    35    68    71    1
    36    42    41   ar
    37    49    48    2
    38    91    89    1
    39    39    41   ar
    40    80    81   ar
    41    80    82   ar
    42    47    48    1
    43    81    83   ar
    44    48    50   am
    45    85    86    1
    46    71    72    1
    47    99    97   ar
    48    82    84   ar
    49    89    90    1
    50    89    86    1
    51    72    73    1
    52    72    74    1
    53    83    84   ar
    54    86    87    1
    55    97    96    1
    56    97    98   ar
    57    16    15    2
    58    96    93    1
    59    17    18    1
    60    17    14    1
    61    20    18   ar
    62    20    22   ar
    63    18    19   ar
    64    87    88    2
    65    22    21   ar
    66    15    14    1
    67    32    30   ar
    68    32    31   ar
    69    30    28   ar
    70    19    21   ar
    71    92    93    1
    72    93    94    1
    73    14    13    1
    74    31    29   ar
    75    25    26    2
    76    25    24    1
    77   220   218    1
    78    28    27    1
    79    28    29   ar
    80   218   217    1
    81    13     3   am
    82    94    95    2
    83    94   100   am
    84    27    24    1
    85   219   217    1
    86    24    23    1
    87   100   101    1
    88   217   214    1
    89   211   209    1
    90   212   210    1
    91   214   215    1
    92   214   213    1
    93   216   215    2
    94     4     3    2
    95   176   175    1
    96     3     2    1
    97   105   107    1
    98   105   106    1
    99   105   104    1
   100   166   168   ar
   101   166   164   ar
   102    10     8   ar
   103    10    11   ar
   104     8     6   ar
   105   210   209    1
   106   168   167   ar
   107   164   163   ar
   108   101   104    1
   109   101   102    1
   110   209   206    1
   111   208   207    2
   112    12    11    1
   113     2     1    1
   114     2     5    1
   115   206   207    1
   116   206   205    1
   117   161   160    2
   118    11     9   ar
   119     6     5    1
   120     6     7   ar
   121   159   158    1
   122   159   160    1
   123   159   162    1
   124   167   165   ar
   125   175   174    1
   126   163   165   ar
   127   163   162    1
   128   202   204   ar
   129   202   200   ar
   130   102   103    2
   131   174   173    1
   132   204   203   ar
   133     9     7   ar
   134   200   199   ar
   135   115   113   ar
   136   143   145    1
   137   143   142    1
   138   141   140    2
   139   173   170    1
   140   171   170    1
   141   171   172    2
   142   169   170    1
   143   203   201   ar
   144   113   114   ar
   145   113   112    1
   146   144   142    1
   147   108   109    1
   148   199   201   ar
   149   199   198    1
   150   139   142    1
   151   139   140    1
   152   139   138    1
   153   197   196    2
   154   140   146   am
   155   112   109    1
   156   198   195    1
   157   195   196    1
   158   195   194    1
   159   109   110    1
   160   149   148    2
   161   148   147    1
   162   146   147    1
   163   116   110   am
   164   116   117    1
   165   121   120    1
   166   121   122    1
   167   147   150    1
   168   131   129    1
   169   154   152   ar
   170   154   156   ar
   171   110   111    2
   172   120   117    1
   173   184   182    1
   174   152   151   ar
   175   157   156    1
   176   132   130    1
   177   128   127    2
   178   156   155   ar
   179   124   122   am
   180   193   191   am
   181   117   118    1
   182   130   129    1
   183   151   150    1
   184   151   153   ar
   185   122   123    2
   186   180   179    2
   187   129   126    1
   188   182   183    1
   189   182   181    1
   190   118   119    2
   191   155   153   ar
   192   181   178    1
   193   127   126    1
   194   127   133   am
   195   192   191    2
   196   126   125    1
   197   191   190    1
   198   179   178    1
   199   179   185   am
   200   136   135    2
   201   178   177    1
   202   188   187    2
   203   133   134    1
   204   134   135    1
   205   134   137    1
   206   186   185    1
   207   186   187    1
   208   186   189    1
   209   190   189    1
