@<TRIPOS>MOLECULE
tmp/5u7mD04.pdb
 185 180 0 0 0
SMALL
GASTEIGER

@<TRIPOS>ATOM
      1  N        144.6860  306.7890   -9.0380 N.3    75  ILE75      -0.1231
      2  CA       144.7170  307.7310  -10.1520 C.3    75  ILE75       0.1692
      3  C        144.3860  307.0220  -11.4590 C.2    75  ILE75       0.2591
      4  O        143.6360  307.5440  -12.2920 O.2    75  ILE75      -0.2718
      5  CB       146.0850  308.4350  -10.2170 C.3    75  ILE75       0.0266
      6  CG1      146.3310  309.2400   -8.9400 C.3    75  ILE75       0.0019
      7  CG2      146.1690  309.3310  -11.4420 C.3    75  ILE75       0.0020
      8  CD1      145.2480  310.2500   -8.6350 C.3    75  ILE75       0.0001
      9  N        144.9360  305.8220  -11.6580 N.am   76  ILE76      -0.1980
     10  CA       144.6230  305.0540  -12.8600 C.3    76  ILE76       0.1595
     11  C        143.1510  304.6610  -12.8700 C.2    76  ILE76       0.2287
     12  O        142.4670  304.7850  -13.8930 O.2    76  ILE76      -0.2864
     13  CB       145.5440  303.8230  -12.9650 C.3    76  ILE76       0.0276
     14  CG1      146.9980  304.2620  -13.1490 C.3    76  ILE76       0.0022
     15  CG2      145.1100  302.9260  -14.1120 C.3    76  ILE76       0.0022
     16  CD1      147.9570  303.1150  -13.3810 C.3    76  ILE76       0.0001
     17  N        141.2190  307.8410  -13.7900 N.3    79  TRP79      -0.1227
     18  CA       141.1910  308.1260  -15.2180 C.3    79  TRP79       0.1737
     19  C        140.3880  307.0810  -15.9810 C.2    79  TRP79       0.2595
     20  O        139.8300  307.3840  -17.0420 O.2    79  TRP79      -0.2718
     21  CB       142.6150  308.2050  -15.7650 C.3    79  TRP79       0.0564
     22  CG       142.9170  309.4920  -16.4570 C.ar   79  TRP79       0.0003
     23  CD1      142.3760  309.9400  -17.6250 C.ar   79  TRP79       0.0946
     24  CD2      143.8420  310.4980  -16.0310 C.ar   79  TRP79       0.0152
     25  NE1      142.9020  311.1660  -17.9510 N.ar   79  TRP79      -0.2442
     26  CE2      143.8040  311.5310  -16.9870 C.ar   79  TRP79       0.0810
     27  CE3      144.6960  310.6280  -14.9310 C.ar   79  TRP79       0.0012
     28  CZ2      144.5890  312.6760  -16.8810 C.ar   79  TRP79       0.0191
     29  CZ3      145.4730  311.7660  -14.8260 C.ar   79  TRP79       0.0001
     30  CH2      145.4160  312.7730  -15.7970 C.ar   79  TRP79       0.0015
     31  N        140.3140  305.8550  -15.4590 N.am   80  ASP80      -0.1974
     32  CA       139.5690  304.8000  -16.1380 C.3    80  ASP80       0.1709
     33  C        138.0690  305.0650  -16.0900 C.2    80  ASP80       0.2293
     34  O        137.3940  305.0530  -17.1260 O.2    80  ASP80      -0.2864
     35  CB       139.8950  303.4420  -15.5160 C.3    80  ASP80       0.1436
     36  CG       140.8510  302.6270  -16.3640 C.2    80  ASP80       0.3671
     37  OD1      141.1350  303.0400  -17.5080 O.co2  80  ASP80      -0.2456
     38  OD2      141.3180  301.5710  -15.8860 O.co2  80  ASP80      -0.2456
     39  N        136.7140  308.0560  -18.2040 N.3    83  LEU83      -0.1245
     40  CA       136.6020  307.8590  -19.6430 C.3    83  LEU83       0.1561
     41  C        135.5110  306.8720  -20.0330 C.2    83  LEU83       0.2260
     42  O        135.2390  306.7180  -21.2290 O.2    83  LEU83      -0.2867
     43  CB       137.9390  307.3760  -20.2150 C.3    83  LEU83       0.0270
     44  CG       139.0490  308.4170  -20.3510 C.3    83  LEU83       0.0019
     45  CD1      140.3570  307.7510  -20.7390 C.3    83  LEU83       0.0001
     46  CD2      138.6580  309.4620  -21.3770 C.3    83  LEU83       0.0001
     47  N        139.2080  305.9010  -27.1270 N.3   152  THR152     -0.1218
     48  CA       138.0710  306.5360  -26.4710 C.3   152  THR152      0.1862
     49  C        138.3950  308.0100  -26.2950 C.2   152  THR152      0.2287
     50  O        139.4120  308.3520  -25.6830 O.2   152  THR152     -0.2866
     51  CB       137.7740  305.8870  -25.1160 C.3   152  THR152      0.1770
     52  OG1      137.4200  304.5110  -25.3090 O.3   152  THR152     -0.2211
     53  CG2      136.6330  306.6080  -24.4150 C.3   152  THR152      0.0375
     54  N        151.2280  314.4250  -13.3650 N.3   205  VAL205     -0.1245
     55  CA       151.8980  313.2770  -13.9650 C.3   205  VAL205      0.1561
     56  C        152.8160  313.8250  -15.0490 C.2   205  VAL205      0.2260
     57  O        152.3760  314.0950  -16.1720 O.2   205  VAL205     -0.2867
     58  CB       150.9090  312.2540  -14.5330 C.3   205  VAL205      0.0252
     59  CG1      151.6450  311.0020  -14.9890 C.3   205  VAL205      0.0019
     60  CG2      149.8490  311.9090  -13.4970 C.3   205  VAL205      0.0019
     61  N        157.4080  309.0550  -24.5840 N.3   319  GLU319     -0.1245
     62  CA       156.9000  309.7230  -23.3850 C.3   319  GLU319      0.1567
     63  C        157.9020  309.7390  -22.2280 C.2   319  GLU319      0.2260
     64  O        157.5290  310.1590  -21.1230 O.2   319  GLU319     -0.2867
     65  CB       155.5960  309.0580  -22.9420 C.3   319  GLU319      0.0388
     66  CG       154.6880  308.6610  -24.0970 C.3   319  GLU319      0.1160
     67  CD       153.2800  308.3200  -23.6510 C.2   319  GLU319      0.3649
     68  OE1      152.4380  309.2400  -23.5830 O.co2 319  GLU319     -0.2457
     69  OE2      153.0160  307.1330  -23.3660 O.co2 319  GLU319     -0.2457
     70  N        157.3950  314.9830  -20.8630 N.3   324  SER324     -0.1202
     71  CA       155.9930  314.8130  -21.2090 C.3   324  SER324      0.2020
     72  C        155.1110  315.1780  -20.0240 C.2   324  SER324      0.2619
     73  O        155.3880  314.7860  -18.8870 O.2   324  SER324     -0.2717
     74  CB       155.7150  313.3750  -21.6520 C.3   324  SER324      0.2103
     75  OG       156.1370  312.4460  -20.6700 O.3   324  SER324     -0.2182
     76  N        154.0450  315.9240  -20.3010 N.am  325  PHE325     -0.1961
     77  CA       153.1440  316.4320  -19.2700 C.3   325  PHE325      0.1771
     78  C        151.9500  317.0780  -19.9640 C.2   325  PHE325      0.2619
     79  O        151.8810  317.1410  -21.1950 O.2   325  PHE325     -0.2715
     80  CB       153.8530  317.4280  -18.3490 C.3   325  PHE325      0.0574
     81  CG       154.2260  318.7180  -19.0230 C.ar  325  PHE325     -0.0200
     82  CD1      155.2260  318.7520  -19.9820 C.ar  325  PHE325     -0.0042
     83  CD2      153.5850  319.9000  -18.6910 C.ar  325  PHE325     -0.0042
     84  CE1      155.5700  319.9340  -20.6030 C.ar  325  PHE325     -0.0003
     85  CE2      153.9310  321.0880  -19.3070 C.ar  325  PHE325     -0.0003
     86  CZ       154.9240  321.1040  -20.2640 C.ar  325  PHE325     -0.0000
     87  N        151.0080  317.5640  -19.1590 N.am  326  ASN326     -0.1972
     88  CA       149.8450  318.2860  -19.6540 C.3   326  ASN326      0.1688
     89  C        149.9590  319.7580  -19.2840 C.2   326  ASN326      0.2292
     90  O        150.3050  320.0970  -18.1490 O.2   326  ASN326     -0.2864
     91  CB       148.5470  317.7050  -19.0860 C.3   326  ASN326      0.1181
     92  CG       147.3180  318.4800  -19.5280 C.2   326  ASN326      0.2629
     93  OD1      146.7630  318.2290  -20.5990 O.2   326  ASN326     -0.2716
     94  ND2      146.8860  319.4280  -18.7030 N.am  326  ASN326     -0.0877
     95  N        148.9730  317.6680  -24.5890 N.3   331  PHE331     -0.1241
     96  CA       150.0520  316.8790  -24.0050 C.3   331  PHE331      0.1605
     97  C        151.3510  317.2070  -24.7300 C.2   331  PHE331      0.2264
     98  O        151.5470  316.8080  -25.8830 O.2   331  PHE331     -0.2867
     99  CB       149.7290  315.3900  -24.0700 C.3   331  PHE331      0.0534
    100  CG       148.5610  314.9990  -23.2160 C.ar  331  PHE331     -0.0203
    101  CD1      148.6210  315.1370  -21.8390 C.ar  331  PHE331     -0.0042
    102  CD2      147.4010  314.5040  -23.7860 C.ar  331  PHE331     -0.0042
    103  CE1      147.5470  314.7850  -21.0440 C.ar  331  PHE331     -0.0003
    104  CE2      146.3230  314.1500  -22.9970 C.ar  331  PHE331     -0.0003
    105  CZ       146.3970  314.2890  -21.6240 C.ar  331  PHE331     -0.0000
    106  N        155.4890  317.2660  -25.3990 N.3   333  TYR333     -0.1241
    107  CA       156.6240  316.3410  -25.3890 C.3   333  TYR333      0.1605
    108  C        157.8500  317.1690  -25.7660 C.2   333  TYR333      0.2264
    109  O        158.1600  317.3360  -26.9480 O.2   333  TYR333     -0.2867
    110  CB       156.3990  315.1700  -26.3440 C.3   333  TYR333      0.0534
    111  CG       155.2740  314.2430  -25.9290 C.ar  333  TYR333     -0.0201
    112  CD1      153.9450  314.5850  -26.1520 C.ar  333  TYR333     -0.0009
    113  CD2      155.5410  313.0240  -25.3220 C.ar  333  TYR333     -0.0009
    114  CE1      152.9160  313.7440  -25.7730 C.ar  333  TYR333      0.0417
    115  CE2      154.5180  312.1740  -24.9420 C.ar  333  TYR333      0.0417
    116  CZ       153.2080  312.5390  -25.1710 C.ar  333  TYR333      0.1957
    117  OH       152.1860  311.6970  -24.7960 O.3   333  TYR333     -0.2866
    118  N        147.2890  309.5980  -27.0250 N.3   361  ILE361     -0.1231
    119  CA       148.2720  309.1570  -26.0440 C.3   361  ILE361      0.1692
    120  C        147.8790  307.7710  -25.5560 C.2   361  ILE361      0.2592
    121  O        146.6940  307.4310  -25.4620 O.2   361  ILE361     -0.2718
    122  CB       148.4080  310.1390  -24.8600 C.3   361  ILE361      0.0266
    123  CG1      147.1040  310.2120  -24.0660 C.3   361  ILE361      0.0019
    124  CG2      148.8060  311.5210  -25.3570 C.3   361  ILE361      0.0020
    125  CD1      147.2690  310.8270  -22.6970 C.3   361  ILE361      0.0001
    126  N        148.8890  306.9630  -25.2500 N.am  362  ASN362     -0.1960
    127  CA       148.6850  305.5790  -24.8530 C.3   362  ASN362      0.1819
    128  C        148.7160  305.4340  -23.3380 C.2   362  ASN362      0.2621
    129  O        149.3570  306.2150  -22.6290 O.2   362  ASN362     -0.2715
    130  CB       149.7400  304.6690  -25.4820 C.3   362  ASN362      0.1195
    131  CG       149.3000  304.1080  -26.8180 C.2   362  ASN362      0.2630
    132  OD1      148.7080  303.0310  -26.8850 O.2   362  ASN362     -0.2716
    133  ND2      149.5840  304.8380  -27.8900 N.am  362  ASN362     -0.0877
    134  N        148.0100  304.4170  -22.8510 N.am  363  MET363     -0.1963
    135  CA       147.9360  304.1570  -21.4210 C.3   363  MET363      0.1736
    136  C        149.2760  303.6440  -20.9100 C.2   363  MET363      0.2616
    137  O        149.8300  302.6820  -21.4500 O.2   363  MET363     -0.2715
    138  CB       146.8330  303.1410  -21.1320 C.3   363  MET363      0.0427
    139  CG       146.4820  302.9900  -19.6670 C.3   363  MET363      0.0599
    140  SD       145.0910  301.8670  -19.4410 S.3   363  MET363     -0.1393
    141  CE       144.7220  302.1270  -17.7100 C.3   363  MET363      0.0692
    142  N        149.7970  304.2910  -19.8710 N.am  364  TRP364     -0.1974
    143  CA       151.0690  303.8750  -19.2970 C.3   364  TRP364      0.1640
    144  C        150.9410  302.4900  -18.6750 C.2   364  TRP364      0.2290
    145  O        150.0700  302.2580  -17.8300 O.2   364  TRP364     -0.2864
    146  CB       151.5400  304.8860  -18.2510 C.3   364  TRP364      0.0576
    147  CG       152.0590  306.1760  -18.8210 C.ar  364  TRP364      0.0006
    148  CD1      151.9440  306.6120  -20.1080 C.ar  364  TRP364      0.0946
    149  CD2      152.7830  307.1940  -18.1160 C.ar  364  TRP364      0.0152
    150  NE1      152.5480  307.8390  -20.2480 N.ar  364  TRP364     -0.2442
    151  CE2      153.0700  308.2180  -19.0400 C.ar  364  TRP364      0.0810
    152  CE3      153.2140  307.3380  -16.7940 C.ar  364  TRP364      0.0012
    153  CZ2      153.7680  309.3710  -18.6830 C.ar  364  TRP364      0.0191
    154  CZ3      153.9070  308.4830  -16.4420 C.ar  364  TRP364      0.0001
    155  CH2      154.1770  309.4840  -17.3820 C.ar  364  TRP364      0.0015
    156  N        144.7840  300.2090  -24.3950 N.3   369  GLN369     -0.1231
    157  CA       143.9220  301.3740  -24.2340 C.3   369  GLN369      0.1698
    158  C        144.6870  302.6390  -24.5880 C.2   369  GLN369      0.2592
    159  O        145.8340  302.8170  -24.1690 O.2   369  GLN369     -0.2718
    160  CB       143.3640  301.4750  -22.8090 C.3   369  GLN369      0.0381
    161  CG       142.0440  300.7460  -22.6240 C.3   369  GLN369      0.0905
    162  CD       141.0440  301.0670  -23.7240 C.2   369  GLN369      0.2608
    163  OE1      140.5600  300.1730  -24.4180 O.2   369  GLN369     -0.2717
    164  NE2      140.7300  302.3480  -23.8860 N.am  369  GLN369     -0.0878
    165  N        144.0420  303.5080  -25.3620 N.am  370  ALA370     -0.1966
    166  CA       144.5890  304.8090  -25.7150 C.3   370  ALA370      0.1728
    167  C        143.4330  305.7870  -25.8350 C.2   370  ALA370      0.2616
    168  O        142.3500  305.4180  -26.2980 O.2   370  ALA370     -0.2715
    169  CB       145.3850  304.7540  -27.0240 C.3   370  ALA370      0.0334
    170  N        143.6590  307.0270  -25.4140 N.am  371  MET371     -0.1977
    171  CA       142.6100  308.0320  -25.4150 C.3   371  MET371      0.1605
    172  C        142.9630  309.1680  -26.3650 C.2   371  MET371      0.2287
    173  O        144.1320  309.4050  -26.6830 O.2   371  MET371     -0.2864
    174  CB       142.3600  308.5840  -24.0040 C.3   371  MET371      0.0413
    175  CG       143.2630  309.7340  -23.5970 C.3   371  MET371      0.0598
    176  SD       142.7770  310.4120  -21.9980 S.3   371  MET371     -0.1393
    177  CE       143.8070  311.8720  -21.9140 C.3   371  MET371      0.0692
    178  N        154.3800  306.2920  -12.8270 N.3   412  MET412     -0.1245
    179  CA       153.7070  307.3370  -12.0600 C.3   412  MET412      0.1570
    180  C        154.0700  307.2920  -10.5810 C.2   412  MET412      0.2261
    181  O        153.9960  308.3200   -9.8970 O.2   412  MET412     -0.2867
    182  CB       152.1930  307.2190  -12.2210 C.3   412  MET412      0.0387
    183  CG       151.7210  307.0230  -13.6460 C.3   412  MET412      0.0595
    184  SD       149.9230  307.0640  -13.7650 S.3   412  MET412     -0.1393
    185  CE       149.6740  306.4300  -15.4220 C.3   412  MET412      0.0692
@<TRIPOS>BOND
     1   133   131   am
     2    47    48    1
     3   118   119    1
     4   169   166    1
     5   109   108    2
     6   132   131    2
     7   131   130    1
     8   173   172    2
     9    48    49    1
    10    48    51    1
    11   172   171    1
    12   110   111    1
    13   110   107    1
    14   168   167    2
    15    49    50    2
    16   112   111   ar
    17   112   114   ar
    18   119   120    1
    19   119   122    1
    20   111   113   ar
    21    98    97    2
    22   167   166    1
    23   167   170   am
    24   114   116   ar
    25   108   107    1
    26   166   165    1
    27   120   121    2
    28   120   126   am
    29   130   127    1
    30   171   170    1
    31   171   174    1
    32   106   107    1
    33   165   158   am
    34   124   122    1
    35   113   115   ar
    36    52    51    1
    37   126   127    1
    38   116   115   ar
    39   116   117    1
    40    51    53    1
    41   122   123    1
    42   127   128    1
    43    97    96    1
    44    95    96    1
    45   158   157    1
    46   158   159    2
    47    61    62    1
    48   163   162    2
    49   156   157    1
    50   157   160    1
    51    66    67    1
    52    66    65    1
    53    99    96    1
    54    99   100    1
    55   123   125    1
    56   174   175    1
    57   164   162   am
    58   102   100   ar
    59   102   104   ar
    60   162   161    1
    61    67    68   ar
    62    67    69   ar
    63   175   176    1
    64    62    65    1
    65    62    63    1
    66   128   134   am
    67   128   129    2
    68   100   101   ar
    69   104   105   ar
    70   134   135    1
    71   160   161    1
    72    63    64    2
    73   176   177    1
    74   101   103   ar
    75    74    71    1
    76    74    75    1
    77   105   103   ar
    78   137   136    2
    79   135   138    1
    80   135   136    1
    81    46    44    1
    82    42    41    2
    83    71    70    1
    84    71    72    1
    85    79    78    2
    86   138   139    1
    87   136   142   am
    88    45    44    1
    89    84    86   ar
    90    84    82   ar
    91    93    92    2
    92    44    43    1
    93    76    72   am
    94    76    77    1
    95    86    85   ar
    96   150   148   ar
    97   150   151   ar
    98    43    40    1
    99   148   147   ar
   100    41    40    1
   101    72    73    2
   102    82    81   ar
   103    78    77    1
   104    78    87   am
   105   142   143    1
   106   139   140    1
   107    88    89    1
   108    88    87    1
   109    88    91    1
   110    40    39    1
   111    92    91    1
   112    92    94   am
   113   140   141    1
   114    85    83   ar
   115   143   144    1
   116   143   146    1
   117    89    90    2
   118    77    80    1
   119   151   153   ar
   120   151   149   ar
   121    81    83   ar
   122    81    80    1
   123   147   146    1
   124   147   149   ar
   125   153   155   ar
   126   144   145    2
   127   149   152   ar
   128    25    23   ar
   129    25    26   ar
   130    23    22   ar
   131    37    36   ar
   132   155   154   ar
   133    34    33    2
   134    20    19    2
   135    26    28   ar
   136    26    24   ar
   137    28    30   ar
   138   152   154   ar
   139    22    24   ar
   140    22    21    1
   141    36    38   ar
   142    36    35    1
   143    57    56    2
   144    32    33    1
   145    32    35    1
   146    32    31    1
   147    24    27   ar
   148    19    31   am
   149    19    18    1
   150    30    29   ar
   151    21    18    1
   152   185   184    1
   153    18    17    1
   154    56    55    1
   155    59    58    1
   156    27    29   ar
   157    58    55    1
   158    58    60    1
   159    15    13    1
   160    55    54    1
   161    12    11    2
   162   184   183    1
   163   183   182    1
   164    16    14    1
   165    14    13    1
   166    13    10    1
   167    11    10    1
   168    10     9    1
   169   178   179    1
   170     4     3    2
   171   182   179    1
   172   179   180    1
   173     9     3   am
   174     3     2    1
   175     7     5    1
   176   180   181    2
   177     5     2    1
   178     5     6    1
   179     2     1    1
   180     6     8    1
