@<TRIPOS>MOLECULE
tmp/5u7oD05.pdb
 214 208 0 0 0
SMALL
GASTEIGER

@<TRIPOS>ATOM
      1  N        196.0750  282.2870   19.0070 N.3    77  ILE77      -0.1231
      2  CA       196.8680  282.7150   20.1560 C.3    77  ILE77       0.1692
      3  C        196.3980  282.0050   21.4180 C.2    77  ILE77       0.2591
      4  O        197.2090  281.5190   22.2150 O.2    77  ILE77      -0.2718
      5  CB       196.8040  284.2450   20.3100 C.3    77  ILE77       0.0266
      6  CG1      197.3420  284.9300   19.0520 C.3    77  ILE77       0.0019
      7  CG2      197.5790  284.6900   21.5420 C.3    77  ILE77       0.0020
      8  CD1      198.7840  284.5940   18.7430 C.3    77  ILE77       0.0001
      9  N        195.0800  281.9290   21.6180 N.am   78  ILE78      -0.1980
     10  CA       194.5420  281.2840   22.8130 C.3    78  ILE78       0.1595
     11  C        195.0130  279.8370   22.8930 C.2    78  ILE78       0.2287
     12  O        195.4410  279.3620   23.9520 O.2    78  ILE78      -0.2864
     13  CB       193.0060  281.3820   22.8290 C.3    78  ILE78       0.0276
     14  CG1      192.5690  282.8400   22.9870 C.3    78  ILE78       0.0022
     15  CG2      192.4240  280.5190   23.9380 C.3    78  ILE78       0.0022
     16  CD1      191.0690  283.0250   23.0330 C.3    78  ILE78       0.0001
     17  N        198.7280  279.5530   23.9380 N.3    81  TRP81      -0.1227
     18  CA       198.9910  279.6260   25.3720 C.3    81  TRP81       0.1737
     19  C        198.6470  278.3120   26.0610 C.2    81  TRP81       0.2595
     20  O        199.3980  277.8400   26.9220 O.2    81  TRP81      -0.2718
     21  CB       198.2070  280.7810   25.9940 C.3    81  TRP81       0.0564
     22  CG       198.7190  282.1370   25.6160 C.ar   81  TRP81       0.0003
     23  CD1      198.3850  282.8600   24.5100 C.ar   81  TRP81       0.0946
     24  CD2      199.6540  282.9360   26.3510 C.ar   81  TRP81       0.0152
     25  NE1      199.0560  284.0580   24.5070 N.ar   81  TRP81      -0.2442
     26  CE2      199.8410  284.1290   25.6270 C.ar   81  TRP81       0.0810
     27  CE3      200.3500  282.7570   27.5490 C.ar   81  TRP81       0.0012
     28  CZ2      200.6970  285.1390   26.0620 C.ar   81  TRP81       0.0191
     29  CZ3      201.1990  283.7610   27.9790 C.ar   81  TRP81       0.0001
     30  CH2      201.3650  284.9370   27.2370 C.ar   81  TRP81       0.0015
     31  N        197.5130  277.7070   25.6960 N.am   82  ASP82      -0.1974
     32  CA       197.1340  276.4280   26.2870 C.3    82  ASP82       0.1709
     33  C        198.1400  275.3360   25.9510 C.2    82  ASP82       0.2293
     34  O        198.2960  274.3780   26.7170 O.2    82  ASP82      -0.2864
     35  CB       195.7370  276.0220   25.8140 C.3    82  ASP82       0.1436
     36  CG       194.6660  277.0060   26.2420 C.2    82  ASP82       0.3671
     37  OD1      194.8520  277.6750   27.2790 O.co2  82  ASP82      -0.2456
     38  OD2      193.6370  277.1080   25.5430 O.co2  82  ASP82      -0.2456
     39  N        201.5260  275.8820   28.0690 N.3    85  LEU85      -0.1231
     40  CA       201.3060  275.7230   29.5000 C.3    85  LEU85       0.1693
     41  C        200.8480  274.3230   29.8820 C.2    85  LEU85       0.2591
     42  O        200.6240  274.0620   31.0680 O.2    85  LEU85      -0.2718
     43  CB       200.2830  276.7520   29.9910 C.3    85  LEU85       0.0284
     44  CG       200.8150  278.1650   30.2320 C.3    85  LEU85       0.0019
     45  CD1      199.6700  279.1590   30.3230 C.3    85  LEU85       0.0001
     46  CD2      201.6540  278.1960   31.5010 C.3    85  LEU85       0.0001
     47  N        200.7030  273.4160   28.9120 N.am   86  LYS86      -0.1980
     48  CA       200.2670  272.0610   29.2450 C.3    86  LYS86       0.1596
     49  C        201.3270  271.3030   30.0320 C.2    86  LYS86       0.2287
     50  O        200.9970  270.7400   31.0910 O.2    86  LYS86      -0.2864
     51  CB       199.8680  271.3150   27.9700 C.3    86  LYS86       0.0298
     52  CG       199.4050  269.8870   28.2030 C.3    86  LYS86       0.0038
     53  CD       198.8790  269.2580   26.9220 C.3    86  LYS86       0.0206
     54  CE       197.6600  270.0030   26.4000 C.3    86  LYS86       0.1093
     55  NZ       197.1090  269.3780   25.1650 N.3    86  LYS86      -0.1314
     56  N        191.8930  276.8550   38.8250 N.3   152  ALA152     -0.1245
     57  CA       193.1540  276.1620   39.0300 C.3   152  ALA152      0.1562
     58  C        194.2930  276.9840   38.4410 C.2   152  ALA152      0.2260
     59  O        194.1190  277.7180   37.4650 O.2   152  ALA152     -0.2867
     60  CB       193.1150  274.7740   38.3930 C.3   152  ALA152      0.0290
     61  N        198.4270  277.2250   37.1630 N.3   154  THR154     -0.1218
     62  CA       199.5820  276.5260   36.6150 C.3   154  THR154      0.1862
     63  C        200.6820  277.5340   36.3210 C.2   154  THR154      0.2287
     64  O        200.4360  278.5530   35.6670 O.2   154  THR154     -0.2866
     65  CB       199.2200  275.7570   35.3400 C.3   154  THR154      0.1770
     66  OG1      200.4030  275.5320   34.5620 O.3   154  THR154     -0.2211
     67  CG2      198.2110  276.5370   34.5130 C.3   154  THR154      0.0375
     68  N        199.5200  291.8570   23.1830 N.3   207  VAL207     -0.1231
     69  CA       198.2320  291.8800   23.8640 C.3   207  VAL207      0.1692
     70  C        198.2830  293.0160   24.8770 C.2   207  VAL207      0.2592
     71  O        198.8210  292.8600   25.9790 O.2   207  VAL207     -0.2718
     72  CB       197.9120  290.5400   24.5360 C.3   207  VAL207      0.0266
     73  CG1      196.4860  290.5430   25.0670 C.3   207  VAL207      0.0020
     74  CG2      198.1250  289.3920   23.5600 C.3   207  VAL207      0.0020
     75  N        197.7260  294.1650   24.5060 N.am  208  SER208     -0.1952
     76  CA       197.6380  295.3160   25.3900 C.3   208  SER208      0.1924
     77  C        196.2240  295.8750   25.3400 C.2   208  SER208      0.2314
     78  O        195.4490  295.5820   24.4260 O.2   208  SER208     -0.2863
     79  CB       198.6490  296.4060   25.0090 C.3   208  SER208      0.2116
     80  OG       198.3320  296.9760   23.7510 O.3   208  SER208     -0.2180
     81  N        191.6720  294.6770   34.1670 N.3   321  GLU321     -0.1245
     82  CA       192.4330  294.5930   32.9260 C.3   321  GLU321      0.1567
     83  C        192.0420  295.6700   31.9210 C.2   321  GLU321      0.2260
     84  O        192.8310  295.9720   31.0200 O.2   321  GLU321     -0.2867
     85  CB       192.2520  293.2090   32.2970 C.3   321  GLU321      0.0388
     86  CG       191.7150  292.1530   33.2550 C.3   321  GLU321      0.1160
     87  CD       192.6680  291.8510   34.3970 C.2   321  GLU321      0.3649
     88  OE1      193.8570  291.5800   34.1280 O.co2 321  GLU321     -0.2457
     89  OE2      192.2270  291.8930   35.5660 O.co2 321  GLU321     -0.2457
     90  N        197.0680  297.6570   30.7890 N.3   326  SER326     -0.1202
     91  CA       197.7390  296.4170   31.1470 C.3   326  SER326      0.2020
     92  C        198.4390  295.8180   29.9350 C.2   326  SER326      0.2619
     93  O        197.9580  295.9150   28.8030 O.2   326  SER326     -0.2717
     94  CB       196.7480  295.4060   31.7260 C.3   326  SER326      0.2103
     95  OG       195.7360  295.0830   30.7870 O.3   326  SER326     -0.2182
     96  N        199.5810  295.1840   30.1900 N.am  327  PHE327     -0.1961
     97  CA       200.3890  294.5880   29.1350 C.3   327  PHE327      0.1771
     98  C        201.4910  293.7270   29.7420 C.2   327  PHE327      0.2619
     99  O        201.4020  293.3280   30.9070 O.2   327  PHE327     -0.2715
    100  CB       200.9840  295.6770   28.2380 C.3   327  PHE327      0.0574
    101  CG       201.8530  296.6590   28.9720 C.ar  327  PHE327     -0.0200
    102  CD1      201.2910  297.6740   29.7290 C.ar  327  PHE327     -0.0042
    103  CD2      203.2320  296.5710   28.9000 C.ar  327  PHE327     -0.0042
    104  CE1      202.0890  298.5760   30.4030 C.ar  327  PHE327     -0.0003
    105  CE2      204.0340  297.4720   29.5710 C.ar  327  PHE327     -0.0003
    106  CZ       203.4620  298.4760   30.3230 C.ar  327  PHE327     -0.0000
    107  N        202.5270  293.4320   28.9620 N.am  328  ASN328     -0.1972
    108  CA       203.6930  292.7030   29.4400 C.3   328  ASN328      0.1688
    109  C        204.9490  293.5170   29.1720 C.2   328  ASN328      0.2292
    110  O        205.0530  294.1980   28.1470 O.2   328  ASN328     -0.2864
    111  CB       203.8120  291.3280   28.7750 C.3   328  ASN328      0.1181
    112  CG       205.1010  290.6150   29.1430 C.2   328  ASN328      0.2629
    113  OD1      206.0550  290.5910   28.3650 O.2   328  ASN328     -0.2716
    114  ND2      205.1400  290.0420   30.3410 N.am  328  ASN328     -0.0877
    115  N        203.5610  291.3080   34.2930 N.3   333  PHE333     -0.1241
    116  CA       202.3740  291.9200   33.7110 C.3   333  PHE333      0.1605
    117  C        202.0330  293.1950   34.4710 C.2   333  PHE333      0.2264
    118  O        201.9200  293.1800   35.7010 O.2   333  PHE333     -0.2867
    119  CB       201.1950  290.9470   33.7360 C.3   333  PHE333      0.0534
    120  CG       201.4260  289.6980   32.9340 C.ar  333  PHE333     -0.0203
    121  CD1      202.3380  289.6880   31.8910 C.ar  333  PHE333     -0.0042
    122  CD2      200.7360  288.5330   33.2230 C.ar  333  PHE333     -0.0042
    123  CE1      202.5540  288.5410   31.1510 C.ar  333  PHE333     -0.0003
    124  CE2      200.9490  287.3830   32.4870 C.ar  333  PHE333     -0.0003
    125  CZ       201.8590  287.3870   31.4500 C.ar  333  PHE333     -0.0000
    126  N        199.8240  296.9930   35.0920 N.3   335  TYR335     -0.1241
    127  CA       198.4640  297.5290   35.1850 C.3   335  TYR335      0.1605
    128  C        198.6050  299.0100   35.5500 C.2   335  TYR335      0.2264
    129  O        198.4970  299.4150   36.7100 O.2   335  TYR335     -0.2867
    130  CB       197.6090  296.7730   36.2020 C.3   335  TYR335      0.0534
    131  CG       197.4320  295.3070   35.8790 C.ar  335  TYR335     -0.0201
    132  CD1      196.3910  294.8750   35.0680 C.ar  335  TYR335     -0.0009
    133  CD2      198.3090  294.3550   36.3810 C.ar  335  TYR335     -0.0009
    134  CE1      196.2270  293.5350   34.7680 C.ar  335  TYR335      0.0417
    135  CE2      198.1540  293.0140   36.0860 C.ar  335  TYR335      0.0417
    136  CZ       197.1120  292.6100   35.2800 C.ar  335  TYR335      0.1957
    137  OH       196.9550  291.2750   34.9860 O.3   335  TYR335     -0.2866
    138  N        197.2130  285.5800   36.6590 N.3   363  ILE363     -0.1231
    139  CA       196.3940  286.1190   35.5800 C.3   363  ILE363      0.1692
    140  C        195.4270  285.0350   35.1300 C.2   363  ILE363      0.2592
    141  O        195.8250  283.8800   34.9390 O.2   363  ILE363     -0.2718
    142  CB       197.2480  286.6150   34.3960 C.3   363  ILE363      0.0266
    143  CG1      198.2830  285.5620   33.9880 C.3   363  ILE363      0.0019
    144  CG2      197.9210  287.9350   34.7430 C.3   363  ILE363      0.0020
    145  CD1      199.5230  285.5390   34.8610 C.3   363  ILE363      0.0001
    146  N        194.1620  285.4060   34.9600 N.am  364  ASN364     -0.1960
    147  CA       193.1040  284.4580   34.6460 C.3   364  ASN364      0.1819
    148  C        192.7710  284.5030   33.1610 C.2   364  ASN364      0.2621
    149  O        192.8050  285.5670   32.5360 O.2   364  ASN364     -0.2715
    150  CB       191.8510  284.7540   35.4720 C.3   364  ASN364      0.1195
    151  CG       190.8900  283.5840   35.5120 C.2   364  ASN364      0.2630
    152  OD1      190.1430  283.3460   34.5640 O.2   364  ASN364     -0.2716
    153  ND2      190.9020  282.8470   36.6170 N.am  364  ASN364     -0.0877
    154  N        192.4490  283.3380   32.6040 N.am  365  MET365     -0.1963
    155  CA       192.0690  283.2390   31.2000 C.3   365  MET365      0.1736
    156  C        190.9220  284.1900   30.8860 C.2   365  MET365      0.2616
    157  O        189.8950  284.1920   31.5700 O.2   365  MET365     -0.2715
    158  CB       191.6660  281.7990   30.8780 C.3   365  MET365      0.0427
    159  CG       191.4950  281.4950   29.3990 C.3   365  MET365      0.0599
    160  SD       190.9180  279.8040   29.1430 S.3   365  MET365     -0.1393
    161  CE       191.2190  279.5860   27.3920 C.3   365  MET365      0.0692
    162  N        191.0960  284.9980   29.8370 N.am  366  TRP366     -0.1960
    163  CA       190.0470  285.9290   29.4360 C.3   366  TRP366      0.1771
    164  C        188.7950  285.2260   28.9290 C.2   366  TRP366      0.2619
    165  O        187.7710  285.8910   28.7330 O.2   366  TRP366     -0.2715
    166  CB       190.5690  286.8930   28.3690 C.3   366  TRP366      0.0590
    167  CG       191.5340  287.9080   28.9040 C.ar  366  TRP366      0.0006
    168  CD1      192.1170  287.9150   30.1380 C.ar  366  TRP366      0.0946
    169  CD2      192.0250  289.0680   28.2220 C.ar  366  TRP366      0.0152
    170  NE1      192.9430  289.0050   30.2650 N.ar  366  TRP366     -0.2442
    171  CE2      192.9020  289.7300   29.1030 C.ar  366  TRP366      0.0810
    172  CE3      191.8070  289.6110   26.9520 C.ar  366  TRP366      0.0012
    173  CZ2      193.5640  290.9060   28.7540 C.ar  366  TRP366      0.0191
    174  CZ3      192.4650  290.7790   26.6080 C.ar  366  TRP366      0.0001
    175  CH2      193.3330  291.4130   27.5060 C.ar  366  TRP366      0.0015
    176  N        188.8500  283.9100   28.7130 N.am  367  GLN367     -0.1977
    177  CA       187.6560  283.1460   28.3760 C.3   367  GLN367      0.1601
    178  C        186.6280  283.1430   29.5000 C.2   367  GLN367      0.2287
    179  O        185.4910  282.7140   29.2770 O.2   367  GLN367     -0.2864
    180  CB       188.0420  281.7080   28.0160 C.3   367  GLN367      0.0394
    181  CG       188.8870  281.5820   26.7500 C.3   367  GLN367      0.0908
    182  CD       188.0510  281.6010   25.4850 C.2   367  GLN367      0.2608
    183  OE1      188.5780  281.5690   24.3720 O.2   367  GLN367     -0.2717
    184  NE2      186.7350  281.6450   25.6520 N.am  367  GLN367     -0.0878
    185  N        190.7510  278.9750   34.4920 N.3   371  GLN371     -0.1231
    186  CA       192.1280  278.5670   34.2210 C.3   371  GLN371      0.1698
    187  C        193.0210  279.7990   34.2800 C.2   371  GLN371      0.2592
    188  O        192.9440  280.6690   33.4050 O.2   371  GLN371     -0.2718
    189  CB       192.2510  277.8730   32.8640 C.3   371  GLN371      0.0381
    190  CG       191.7150  276.4520   32.8590 C.3   371  GLN371      0.0905
    191  CD       191.9940  275.7150   31.5630 C.2   371  GLN371      0.2608
    192  OE1      192.2410  276.3280   30.5240 O.2   371  GLN371     -0.2717
    193  NE2      191.9560  274.3880   31.6200 N.am  371  GLN371     -0.0878
    194  N        193.8740  279.8610   35.2990 N.am  372  ALA372     -0.1966
    195  CA       194.7740  280.9800   35.5210 C.3   372  ALA372      0.1728
    196  C        196.2210  280.5050   35.4780 C.2   372  ALA372      0.2616
    197  O        196.5130  279.3120   35.6020 O.2   372  ALA372     -0.2715
    198  CB       194.4900  281.6650   36.8640 C.3   372  ALA372      0.0334
    199  N        197.1280  281.4620   35.3090 N.am  373  MET373     -0.1977
    200  CA       198.5530  281.1950   35.1920 C.3   373  MET373      0.1605
    201  C        199.3210  282.0070   36.2250 C.2   373  MET373      0.2287
    202  O        198.9430  283.1390   36.5450 O.2   373  MET373     -0.2864
    203  CB       199.0580  281.5320   33.7860 C.3   373  MET373      0.0413
    204  CG       200.5690  281.6140   33.6750 C.3   373  MET373      0.0598
    205  SD       201.1160  282.0700   32.0190 S.3   373  MET373     -0.1393
    206  CE       200.2790  283.6380   31.8020 C.3   373  MET373      0.0692
    207  N        190.7720  291.1030   22.8940 N.3   414  MET414     -0.1245
    208  CA       191.9920  291.2090   22.1020 C.3   414  MET414      0.1570
    209  C        191.7530  291.0650   20.6050 C.2   414  MET414      0.2261
    210  O        192.7190  291.1430   19.8370 O.2   414  MET414     -0.2867
    211  CB       193.0160  290.1730   22.5710 C.3   414  MET414      0.0387
    212  CG       192.4220  288.8400   22.9930 C.3   414  MET414      0.0595
    213  SD       193.6910  287.7100   23.6000 S.3   414  MET414     -0.1393
    214  CE       192.6860  286.3920   24.2780 C.3   414  MET414      0.0692
@<TRIPOS>BOND
     1     8     6    1
     2     1     2    1
     3     6     5    1
     4   210   209    2
     5     2     5    1
     6     2     3    1
     7     5     7    1
     8   209   208    1
     9     3     9   am
    10     3     4    2
    11     9    10    1
    12   208   211    1
    13   208   207    1
    14   211   212    1
    15    10    13    1
    16    10    11    1
    17    13    14    1
    18    13    15    1
    19    11    12    2
    20    14    16    1
    21   212   213    1
    22    68    69    1
    23    74    72    1
    24   213   214    1
    25    80    79    1
    26    69    72    1
    27    69    70    1
    28    17    18    1
    29   183   182    2
    30    78    77    2
    31    75    70   am
    32    75    76    1
    33    25    23   ar
    34    25    26   ar
    35    23    22   ar
    36    72    73    1
    37    70    71    2
    38    79    76    1
    39    55    54    1
    40    77    76    1
    41    18    21    1
    42    18    19    1
    43   182   184   am
    44   182   181    1
    45    38    36   ar
    46    22    21    1
    47    22    24   ar
    48    26    28   ar
    49    26    24   ar
    50    31    19   am
    51    31    32    1
    52    35    36    1
    53    35    32    1
    54    33    32    1
    55    33    34    2
    56    19    20    2
    57    28    30   ar
    58    36    37   ar
    59    24    27   ar
    60    54    53    1
    61   174   172   ar
    62   174   175   ar
    63   181   180    1
    64    53    52    1
    65   172   169   ar
    66    30    29   ar
    67   161   160    1
    68   175   173   ar
    69    27    29   ar
    70    51    52    1
    71    51    48    1
    72   180   177    1
    73    39    40    1
    74   110   109    2
    75   169   167   ar
    76   169   171   ar
    77   100   101    1
    78   100    97    1
    79   113   112    2
    80   166   167    1
    81   166   163    1
    82   177   176    1
    83   177   178    1
    84   176   164   am
    85   165   164    2
    86   173   171   ar
    87   111   112    1
    88   111   108    1
    89    93    92    2
    90   103   101   ar
    91   103   105   ar
    92   167   168   ar
    93    47    48    1
    94    47    41   am
    95   164   163    1
    96   107   108    1
    97   107    98   am
    98   101   102   ar
    99   171   170   ar
   100    97    98    1
   101    97    96    1
   102   112   114   am
   103   160   159    1
   104   109   108    1
   105    48    49    1
   106   179   178    2
   107   159   158    1
   108   163   162    1
   109    40    41    1
   110    40    43    1
   111   105   106   ar
   112   102   104   ar
   113    98    99    2
   114   162   156   am
   115    41    42    2
   116    92    96   am
   117    92    91    1
   118    43    44    1
   119    49    50    2
   120   168   170   ar
   121    44    45    1
   122    44    46    1
   123   106   104   ar
   124   192   191    2
   125    95    94    1
   126    90    91    1
   127   158   155    1
   128   156   155    1
   129   156   157    2
   130    84    83    2
   131    91    94    1
   132   123   125   ar
   133   123   121   ar
   134   155   154    1
   135   125   124   ar
   136   191   193   am
   137   191   190    1
   138   206   205    1
   139   121   120   ar
   140    83    82    1
   141   205   204    1
   142    85    82    1
   143    85    86    1
   144   124   122   ar
   145   149   148    2
   146   154   148   am
   147   190   189    1
   148   189   186    1
   149    82    81    1
   150   120   122   ar
   151   120   119    1
   152   148   147    1
   153    86    87    1
   154   188   187    2
   155   204   203    1
   156   116   119    1
   157   116   115    1
   158   116   117    1
   159   203   200    1
   160   143   142    1
   161   143   145    1
   162    88    87   ar
   163   186   187    1
   164   186   185    1
   165   187   194   am
   166   142   144    1
   167   142   139    1
   168    87    89   ar
   169   117   118    2
   170    67    65    1
   171    66    65    1
   172   152   151    2
   173   147   146    1
   174   147   150    1
   175   134   132   ar
   176   134   136   ar
   177   141   140    2
   178   146   140   am
   179   137   136    1
   180   132   131   ar
   181   126   127    1
   182   140   139    1
   183   127   128    1
   184   127   130    1
   185   200   199    1
   186   200   201    1
   187   136   135   ar
   188   194   195    1
   189   199   196   am
   190    65    62    1
   191   150   151    1
   192   196   195    1
   193   196   197    2
   194   151   153   am
   195   195   198    1
   196   128   129    2
   197   139   138    1
   198    64    63    2
   199   131   130    1
   200   131   133   ar
   201   135   133   ar
   202   201   202    2
   203    63    62    1
   204    62    61    1
   205    59    58    2
   206    60    57    1
   207    58    57    1
   208    56    57    1
