@<TRIPOS>MOLECULE
tmp/5u7rA00.pdb
 181 168 0 0 0
SMALL
GASTEIGER

@<TRIPOS>ATOM
      1  N         47.9950  -16.1810   -2.5280 N.3    74  ILE74      -0.1231
      2  CA        46.5970  -16.6110   -2.6640 C.3    74  ILE74       0.1692
      3  C         45.6270  -15.8050   -1.7880 C.2    74  ILE74       0.2593
      4  O         44.4060  -15.9280   -1.9240 O.2    74  ILE74      -0.2718
      5  CB        46.4240  -18.1330   -2.4180 C.3    74  ILE74       0.0266
      6  CG1       46.8020  -18.5020   -0.9830 C.3    74  ILE74       0.0019
      7  CG2       47.2370  -18.9390   -3.4280 C.3    74  ILE74       0.0020
      8  CD1       46.3190  -19.8690   -0.5530 C.3    74  ILE74       0.0001
      9  N         46.1750  -14.9790   -0.9010 N.am   75  GLY75      -0.1942
     10  CA        45.3610  -14.1250   -0.0420 C.3    75  GLY75       0.2014
     11  C         46.1930  -13.0960    0.6930 C.2    75  GLY75       0.2639
     12  O         47.4060  -13.2620    0.8350 O.2    75  GLY75      -0.2714
     13  N         45.5420  -12.0240    1.1410 N.am   76  ARG76      -0.1963
     14  CA        46.1860  -11.0320    2.0010 C.3    76  ARG76       0.1729
     15  C         45.2620  -10.6040    3.1270 C.2    76  ARG76       0.2616
     16  O         44.1880  -10.0500    2.8900 O.2    76  ARG76      -0.2715
     17  CB        46.6550   -9.8050    1.2130 C.3    76  ARG76       0.0348
     18  CG        47.2770   -8.7220    2.0920 C.3    76  ARG76       0.0492
     19  CD        47.9060   -7.5920    1.2900 C.3    76  ARG76       0.2205
     20  NE        49.0320   -8.0570    0.4800 N.pl3  76  ARG76      -0.0865
     21  CZ        49.0130   -8.1740   -0.8460 C.cat  76  ARG76       0.5346
     22  NH1       47.9260   -7.8450   -1.5370 N.pl3  76  ARG76       0.1354
     23  NH2       50.0910   -8.6150   -1.4820 N.pl3  76  ARG76       0.1354
     24  N         45.6980  -10.8710    4.3540 N.am   77  GLY77      -0.1955
     25  CA        44.9760  -10.4490    5.5430 C.3    77  GLY77       0.1869
     26  C         45.3850   -9.0510    5.9500 C.2    77  GLY77       0.2309
     27  O         46.0670   -8.3470    5.1970 O.2    77  GLY77      -0.2863
     28  N         49.0160  -14.4740    2.6120 N.3    82  VAL82      -0.1245
     29  CA        48.9840  -15.9280    2.6990 C.3    82  VAL82       0.1561
     30  C         49.5330  -16.4970    1.3970 C.2    82  VAL82       0.2260
     31  O         48.9180  -16.3520    0.3390 O.2    82  VAL82      -0.2867
     32  CB        47.5560  -16.4660    2.9050 C.3    82  VAL82       0.0252
     33  CG1       47.5820  -17.9800    3.0630 C.3    82  VAL82       0.0019
     34  CG2       46.8880  -15.7960    4.0980 C.3    82  VAL82       0.0019
     35  N         49.9870  -23.9200    2.8270 N.3    95  ALA95      -0.1245
     36  CA        49.6030  -22.5160    2.8040 C.3    95  ALA95       0.1562
     37  C         50.2920  -21.8420    3.9820 C.2    95  ALA95       0.2260
     38  O         50.2420  -22.3470    5.1090 O.2    95  ALA95      -0.2867
     39  CB        48.0920  -22.3610    2.8900 C.3    95  ALA95       0.0290
     40  N         50.6880  -18.3410    6.1280 N.3    97  LYS97      -0.1245
     41  CA        50.2350  -17.0070    6.4820 C.3    97  LYS97       0.1561
     42  C         51.3560  -16.2170    7.1390 C.2    97  LYS97       0.2260
     43  O         51.9440  -16.6650    8.1260 O.2    97  LYS97      -0.2867
     44  CB        49.0410  -17.0790    7.4320 C.3    97  LYS97       0.0271
     45  CG        48.3290  -15.7460    7.5750 C.3    97  LYS97       0.0035
     46  CD        47.9340  -15.4530    9.0080 C.3    97  LYS97       0.0206
     47  CE        46.7710  -16.3120    9.4590 C.3    97  LYS97       0.1093
     48  NZ        45.9810  -15.5690   10.4730 N.3    97  LYS97      -0.1314
     49  N         44.7130  -18.1300   17.7290 N.3   116  GLU116     -0.1245
     50  CA        44.8210  -18.5780   16.3430 C.3   116  GLU116      0.1567
     51  C         45.7860  -19.7550   16.1730 C.2   116  GLU116      0.2260
     52  O         45.5040  -20.6900   15.4300 O.2   116  GLU116     -0.2867
     53  CB        45.2330  -17.4080   15.4470 C.3   116  GLU116      0.0388
     54  CG        45.6120  -17.8100   14.0350 C.3   116  GLU116      0.1160
     55  CD        45.1430  -16.8080   13.0070 C.2   116  GLU116      0.3649
     56  OE1       45.3570  -15.5890   13.2120 O.co2 116  GLU116     -0.2457
     57  OE2       44.5590  -17.2500   11.9900 O.co2 116  GLU116     -0.2457
     58  N         44.6830  -24.1220   15.7520 N.3   120  MET120     -0.1245
     59  CA        45.1570  -24.8520   14.5700 C.3   120  MET120      0.1570
     60  C         46.2080  -25.9050   14.8990 C.2   120  MET120      0.2261
     61  O         46.2740  -26.9510   14.2490 O.2   120  MET120     -0.2867
     62  CB        45.7060  -23.8920   13.5200 C.3   120  MET120      0.0387
     63  CG        44.7710  -22.7510   13.1870 C.3   120  MET120      0.0595
     64  SD        45.4440  -21.7270   11.8800 S.3   120  MET120     -0.1393
     65  CE        44.9680  -22.7280   10.4820 C.3   120  MET120      0.0692
     66  N         41.2380  -25.9640   10.1640 N.3   129  VAL129     -0.1245
     67  CA        42.4790  -25.9720    9.3690 C.3   129  VAL129      0.1561
     68  C         43.6640  -26.2010   10.3070 C.2   129  VAL129      0.2260
     69  O         43.7140  -25.6580   11.4150 O.2   129  VAL129     -0.2867
     70  CB        42.7050  -24.6570    8.5810 C.3   129  VAL129      0.0252
     71  CG1       43.8300  -24.8230    7.5720 C.3   129  VAL129      0.0019
     72  CG2       41.4390  -24.2140    7.8690 C.3   129  VAL129      0.0019
     73  N         50.1750  -23.9420    7.3990 N.3   145  MET145     -0.1230
     74  CA        48.9360  -24.7060    7.5300 C.3   145  MET145      0.1702
     75  C         48.7400  -25.6030    6.3140 C.2   145  MET145      0.2592
     76  O         49.3910  -25.4130    5.2840 O.2   145  MET145     -0.2718
     77  CB        47.7410  -23.7590    7.6620 C.3   145  MET145      0.0401
     78  CG        47.9310  -22.6570    8.6890 C.3   145  MET145      0.0596
     79  SD        47.0380  -21.1360    8.3060 S.3   145  MET145     -0.1393
     80  CE        47.9650  -20.5560    6.8860 C.3   145  MET145      0.0692
     81  N         47.8470  -26.5790    6.4360 N.am  146  GLU146     -0.1966
     82  CA        47.4930  -27.4210    5.3030 C.3   146  GLU146      0.1733
     83  C         46.7510  -26.5810    4.2770 C.2   146  GLU146      0.2616
     84  O         45.8030  -25.8730    4.6150 O.2   146  GLU146     -0.2715
     85  CB        46.6440  -28.6210    5.7380 C.3   146  GLU146      0.0429
     86  CG        45.3540  -28.2680    6.4700 C.3   146  GLU146      0.1163
     87  CD        44.5490  -29.4890    6.8760 C.2   146  GLU146      0.3649
     88  OE1       44.6100  -30.5080    6.1520 O.co2 146  GLU146     -0.2457
     89  OE2       43.8530  -29.4250    7.9170 O.co2 146  GLU146     -0.2457
     90  N         47.2030  -26.6530    3.0290 N.am  147  TYR147     -0.1960
     91  CA        46.5990  -25.8970    1.9300 C.3   147  TYR147      0.1771
     92  C         45.1720  -26.3720    1.6100 C.2   147  TYR147      0.2619
     93  O         44.8830  -27.5640    1.6500 O.2   147  TYR147     -0.2715
     94  CB        47.5100  -25.9620    0.6970 C.3   147  TYR147      0.0574
     95  CG        46.9320  -25.3480   -0.5580 C.ar  147  TYR147     -0.0198
     96  CD1       46.4820  -24.0260   -0.5750 C.ar  147  TYR147     -0.0009
     97  CD2       46.8540  -26.0840   -1.7350 C.ar  147  TYR147     -0.0009
     98  CE1       45.9550  -23.4650   -1.7250 C.ar  147  TYR147      0.0417
     99  CE2       46.3390  -25.5290   -2.8910 C.ar  147  TYR147      0.0417
    100  CZ        45.8910  -24.2230   -2.8790 C.ar  147  TYR147      0.1957
    101  OH        45.3720  -23.6770   -4.0260 O.3   147  TYR147     -0.2866
    102  N         44.2890  -25.4280    1.3030 N.am  148  MET148     -0.1977
    103  CA        42.8850  -25.7270    1.0270 C.3   148  MET148      0.1605
    104  C         42.5110  -25.3840   -0.4220 C.2   148  MET148      0.2287
    105  O         41.8420  -24.3810   -0.6700 O.2   148  MET148     -0.2864
    106  CB        41.9880  -24.9570    2.0010 C.3   148  MET148      0.0413
    107  CG        42.1590  -25.3200    3.4660 C.3   148  MET148      0.0598
    108  SD        41.3260  -26.8560    3.9070 S.3   148  MET148     -0.1393
    109  CE        42.6610  -28.0420    3.7760 C.3   148  MET148      0.0692
    110  N         37.5210  -20.4870   -0.8670 N.3   152  ASP152     -0.1239
    111  CA        36.6190  -20.0860    0.2050 C.3   152  ASP152      0.1674
    112  C         35.1740  -20.0870   -0.2710 C.2   152  ASP152      0.2266
    113  O         34.9080  -20.2280   -1.4670 O.2   152  ASP152     -0.2867
    114  CB        37.0100  -18.7080    0.7420 C.3   152  ASP152      0.1410
    115  CG        37.0690  -17.6540   -0.3450 C.2   152  ASP152      0.3668
    116  OD1       35.9970  -17.1820   -0.7770 O.co2 152  ASP152     -0.2456
    117  OD2       38.1890  -17.2970   -0.7650 O.co2 152  ASP152     -0.2456
    118  N         33.0610  -17.5120   -0.1130 N.3   154  VAL154     -0.1245
    119  CA        32.7620  -16.2770   -0.8470 C.3   154  VAL154      0.1561
    120  C         32.9440  -16.4880   -2.3500 C.2   154  VAL154      0.2260
    121  O         32.1480  -15.9890   -3.1530 O.2   154  VAL154     -0.2867
    122  CB        33.5370  -15.0460   -0.3050 C.3   154  VAL154      0.0252
    123  CG1       34.4280  -14.4040   -1.3620 C.3   154  VAL154      0.0019
    124  CG2       32.5560  -14.0270    0.2500 C.3   154  VAL154      0.0019
    125  N         32.3430  -16.1910    8.9140 N.3   192  LYS192     -0.1245
    126  CA        31.9450  -15.6170    7.6220 C.3   192  LYS192      0.1561
    127  C         32.5140  -16.4520    6.4690 C.2   192  LYS192      0.2260
    128  O         33.5090  -17.1560    6.6570 O.2   192  LYS192     -0.2867
    129  CB        32.3900  -14.1540    7.5010 C.3   192  LYS192      0.0271
    130  CG        33.8700  -13.9130    7.7440 C.3   192  LYS192      0.0035
    131  CD        34.1980  -12.4380    7.6100 C.3   192  LYS192      0.0206
    132  CE        35.6830  -12.1720    7.7500 C.3   192  LYS192      0.1093
    133  NZ        36.0640  -11.0090    6.9010 N.3   192  LYS192     -0.1314
    134  N         34.4140  -15.9670    4.1410 N.3   194  ASP194     -0.1225
    135  CA        35.8500  -15.7680    3.9640 C.3   194  ASP194      0.1805
    136  C         36.6630  -16.7150    4.8490 C.2   194  ASP194      0.2597
    137  O         37.7520  -17.1480    4.4700 O.2   194  ASP194     -0.2718
    138  CB        36.2320  -14.3220    4.2930 C.3   194  ASP194      0.1424
    139  CG        35.2210  -13.3080    3.7750 C.2   194  ASP194      0.3668
    140  OD1       34.4690  -13.6370    2.8350 O.co2 194  ASP194     -0.2456
    141  OD2       35.1830  -12.1780    4.3130 O.co2 194  ASP194     -0.2456
    142  N         36.1250  -17.0260    6.0270 N.am  195  ASN195     -0.1974
    143  CA        36.7870  -17.9110    6.9830 C.3   195  ASN195      0.1688
    144  C         36.3620  -19.3640    6.8200 C.2   195  ASN195      0.2292
    145  O         36.6600  -20.2110    7.6620 O.2   195  ASN195     -0.2864
    146  CB        36.5260  -17.4310    8.4080 C.3   195  ASN195      0.1181
    147  CG        36.8740  -15.9710    8.5960 C.2   195  ASN195      0.2629
    148  OD1       37.6640  -15.3950    7.8400 O.2   195  ASN195     -0.2716
    149  ND2       36.2890  -15.3610    9.6110 N.am  195  ASN195     -0.0877
    150  N         36.8690  -22.3430    4.3860 N.3   197  LEU197     -0.1245
    151  CA        37.6390  -22.8970    3.2780 C.3   197  LEU197      0.1561
    152  C         37.2140  -24.3180    2.9350 C.2   197  LEU197      0.2260
    153  O         36.6090  -25.0150    3.7490 O.2   197  LEU197     -0.2867
    154  CB        39.1340  -22.8590    3.5900 C.3   197  LEU197      0.0270
    155  CG        39.7040  -21.5360    4.0920 C.3   197  LEU197      0.0019
    156  CD1       41.1480  -21.7620    4.4880 C.3   197  LEU197      0.0001
    157  CD2       39.5800  -20.4220    3.0600 C.3   197  LEU197      0.0001
    158  N         38.7410  -21.0630    9.3500 N.3   207  ALA207     -0.1231
    159  CA        40.0900  -20.5790    9.0660 C.3   207  ALA207      0.1694
    160  C         40.6400  -19.4290    9.9130 C.2   207  ALA207      0.2592
    161  O         41.7610  -19.5280   10.4280 O.2   207  ALA207     -0.2718
    162  CB        40.2240  -20.2520    7.5890 C.3   207  ALA207      0.0304
    163  N         39.8930  -18.3360   10.0390 N.am  208  ASP208     -0.1974
    164  CA        40.4820  -17.1380   10.6370 C.3   208  ASP208      0.1709
    165  C         40.0940  -16.9370   12.0990 C.2   208  ASP208      0.2293
    166  O         39.0280  -16.4040   12.4170 O.2   208  ASP208     -0.2864
    167  CB        40.1850  -15.8950    9.8010 C.3   208  ASP208      0.1436
    168  CG        41.1440  -14.7590   10.0860 C.2   208  ASP208      0.3671
    169  OD1       41.5230  -14.5680   11.2610 O.co2 208  ASP208     -0.2456
    170  OD2       41.5170  -14.0480    9.1300 O.co2 208  ASP208     -0.2456
    171  N         41.4450  -19.3970   -6.3060 N.3   360  PHE360     -0.1241
    172  CA        41.9090  -18.1930   -5.6140 C.3   360  PHE360      0.1605
    173  C         42.3320  -17.1400   -6.6250 C.2   360  PHE360      0.2264
    174  O         43.0900  -17.4350   -7.5510 O.2   360  PHE360     -0.2867
    175  CB        43.1120  -18.4970   -4.7170 C.3   360  PHE360      0.0534
    176  CG        42.8370  -19.4930   -3.6310 C.ar  360  PHE360     -0.0203
    177  CD1       42.2390  -19.0970   -2.4400 C.ar  360  PHE360     -0.0042
    178  CD2       43.1970  -20.8260   -3.7870 C.ar  360  PHE360     -0.0042
    179  CE1       41.9880  -20.0140   -1.4310 C.ar  360  PHE360     -0.0003
    180  CE2       42.9510  -21.7490   -2.7810 C.ar  360  PHE360     -0.0003
    181  CZ        42.3460  -21.3410   -1.6020 C.ar  360  PHE360     -0.0000
@<TRIPOS>BOND
     1   174   173    2
     2   173   172    1
     3   171   172    1
     4   172   175    1
     5   175   176    1
     6   101   100    1
     7   178   176   ar
     8   178   180   ar
     9   176   177   ar
    10     7     5    1
    11   121   120    2
    12    99   100   ar
    13    99    97   ar
    14   100    98   ar
    15   180   181   ar
    16     2     1    1
    17     2     5    1
    18     2     3    1
    19   177   179   ar
    20     5     6    1
    21   120   119    1
    22     4     3    2
    23     3     9   am
    24    97    95   ar
    25    98    96   ar
    26   181   179   ar
    27    22    21    1
    28    23    21    1
    29   113   112    2
    30   123   122    1
    31     6     8    1
    32     9    10    1
    33   110   111    1
    34   119   122    1
    35   119   118    1
    36    21    20    2
    37   116   115   ar
    38   117   115   ar
    39   105   104    2
    40    96    95   ar
    41    95    94    1
    42   104   103    1
    43   115   114    1
    44   122   124    1
    45   112   111    1
    46    10    11    1
    47   111   114    1
    48    31    30    2
    49    20    19    1
    50    11    12    2
    51    11    13   am
    52    94    91    1
    53   103   102    1
    54   103   106    1
    55    13    14    1
    56    17    14    1
    57    17    18    1
    58    19    18    1
    59   102    92   am
    60    30    29    1
    61    92    93    2
    62    92    91    1
    63    91    90    1
    64    14    15    1
    65   106   107    1
    66    28    29    1
    67    29    32    1
    68    36    35    1
    69    36    39    1
    70    36    37    1
    71   140   139   ar
    72    16    15    2
    73    32    33    1
    74    32    34    1
    75   152   151    1
    76   152   153    2
    77    90    83   am
    78   157   155    1
    79    15    24   am
    80   151   154    1
    81   151   150    1
    82   107   108    1
    83   154   155    1
    84   139   138    1
    85   139   141   ar
    86   109   108    1
    87   135   134    1
    88   135   138    1
    89   135   136    1
    90    37    38    2
    91   155   156    1
    92    83    84    2
    93    83    82    1
    94    24    25    1
    95   137   136    2
    96   136   142   am
    97    27    26    2
    98    76    75    2
    99    82    85    1
   100    82    81    1
   101    25    26    1
   102    85    86    1
   103   142   143    1
   104    40    41    1
   105    88    87   ar
   106    75    81   am
   107    75    74    1
   108   127   128    2
   109   127   126    1
   110    86    87    1
   111    41    42    1
   112    41    44    1
   113   144   143    1
   114   144   145    2
   115    87    89   ar
   116    80    79    1
   117   133   132    1
   118   143   146    1
   119    42    43    2
   120    73    74    1
   121    44    45    1
   122   129   126    1
   123   129   130    1
   124    74    77    1
   125    71    70    1
   126    45    46    1
   127   162   159    1
   128   131   130    1
   129   131   132    1
   130   126   125    1
   131    77    78    1
   132   148   147    2
   133    72    70    1
   134    79    78    1
   135   146   147    1
   136    70    67    1
   137   147   149   am
   138    46    47    1
   139   159   158    1
   140   159   160    1
   141   170   168   ar
   142    67    66    1
   143    67    68    1
   144    47    48    1
   145   167   168    1
   146   167   164    1
   147   160   163   am
   148   160   161    2
   149   163   164    1
   150   168   169   ar
   151    68    69    2
   152    65    64    1
   153   164   165    1
   154    64    63    1
   155    57    55   ar
   156   165   166    2
   157    55    56   ar
   158    55    54    1
   159    63    62    1
   160    62    59    1
   161    54    53    1
   162    61    60    2
   163    59    60    1
   164    59    58    1
   165    52    51    2
   166    53    50    1
   167    51    50    1
   168    50    49    1
