@<TRIPOS>MOLECULE
tmp/5u7sA00.pdb
 120 114 0 0 0
SMALL
GASTEIGER

@<TRIPOS>ATOM
      1  N        -20.1370  -29.5950    8.9610 N.3    27  ASN27      -0.1240
      2  CA       -19.8570  -28.2090    8.6250 C.3    27  ASN27       0.1653
      3  C        -18.5490  -27.7890    9.2710 C.2    27  ASN27       0.2266
      4  O        -18.2430  -28.1950   10.3960 O.2    27  ASN27      -0.2867
      5  CB       -20.9860  -27.2930    9.0920 C.3    27  ASN27       0.1155
      6  CG       -22.1710  -27.3140    8.1590 C.2    27  ASN27       0.2627
      7  OD1      -22.0450  -27.1100    6.9570 O.2    27  ASN27      -0.2716
      8  ND2      -23.3340  -27.5720    8.7140 N.am   27  ASN27      -0.0877
      9  N        -18.2680  -28.9690    4.7550 N.3    51  GLN51      -0.1245
     10  CA       -19.1330  -28.0730    4.0100 C.3    51  GLN51       0.1566
     11  C        -19.0150  -26.6490    4.5220 C.2    51  GLN51       0.2260
     12  O        -18.7410  -26.4080    5.7030 O.2    51  GLN51      -0.2867
     13  CB       -20.6110  -28.4810    4.1330 C.3    51  GLN51       0.0367
     14  CG       -20.8990  -29.9040    3.7840 C.3    51  GLN51       0.0905
     15  CD       -22.3980  -30.1750    3.7660 C.2    51  GLN51       0.2608
     16  OE1      -22.9330  -30.7380    2.8040 O.2    51  GLN51      -0.2717
     17  NE2      -23.0800  -29.7740    4.8290 N.am   51  GLN51      -0.0878
     18  N        -22.3900  -25.9860    0.2520 N.3    80  ASP80      -0.1225
     19  CA       -23.7680  -26.3660    0.5340 C.3    80  ASP80       0.1805
     20  C        -24.7470  -25.2330    0.2130 C.2    80  ASP80       0.2597
     21  O        -24.4220  -24.0610    0.3410 O.2    80  ASP80      -0.2718
     22  CB       -23.9030  -26.7590    2.0070 C.3    80  ASP80       0.1424
     23  CG       -25.2080  -27.4980    2.3180 C.2    80  ASP80       0.3668
     24  OD1      -25.8950  -27.9710    1.3890 O.co2  80  ASP80      -0.2456
     25  OD2      -25.5510  -27.5950    3.5120 O.co2  80  ASP80      -0.2456
     26  N        -25.9540  -25.6160   -0.2160 N.am   81  HIS81      -0.1975
     27  CA       -27.1130  -24.7410   -0.4200 C.3    81  HIS81       0.1656
     28  C        -26.7820  -23.5010   -1.2590 C.2    81  HIS81       0.2291
     29  O        -26.9660  -22.3520   -0.8390 O.2    81  HIS81      -0.2864
     30  CB       -27.7550  -24.3630    0.9190 C.3    81  HIS81       0.0771
     31  CG       -28.5450  -25.4790    1.5310 C.ar   81  HIS81       0.0820
     32  ND1      -29.6640  -26.0110    0.9250 N.ar   81  HIS81      -0.2267
     33  CD2      -28.3880  -26.1600    2.6920 C.ar   81  HIS81       0.1154
     34  CE1      -30.1420  -26.9940    1.6680 C.ar   81  HIS81       0.1986
     35  NE2      -29.3910  -27.1010    2.7500 N.ar   81  HIS81      -0.2212
     36  N        -34.4040  -29.2120    8.7040 N.3   182  HIS182     -0.1226
     37  CA       -33.2760  -28.6700    9.4560 C.3   182  HIS182      0.1752
     38  C        -33.6450  -28.4670   10.9180 C.2   182  HIS182      0.2596
     39  O        -34.8170  -28.2990   11.2630 O.2   182  HIS182     -0.2718
     40  CB       -32.7820  -27.3640    8.8490 C.3   182  HIS182      0.0759
     41  CG       -32.3060  -27.5050    7.4320 C.ar  182  HIS182      0.0818
     42  ND1      -31.3510  -28.4280    7.0550 N.ar  182  HIS182     -0.2268
     43  CD2      -32.6040  -26.7970    6.3120 C.ar  182  HIS182      0.1154
     44  CE1      -31.1160  -28.3150    5.7560 C.ar  182  HIS182      0.1986
     45  NE2      -31.8610  -27.3310    5.2810 N.ar  182  HIS182     -0.2212
     46  N        -32.6380  -28.5140   11.7830 N.am  183  GLY183     -0.1957
     47  CA       -32.8270  -28.2510   13.1970 C.3   183  GLY183      0.1869
     48  C        -33.0120  -29.5120   14.0140 C.2   183  GLY183      0.2309
     49  O        -32.9590  -30.6460   13.5200 O.2   183  GLY183     -0.2863
     50  N        -37.1630  -32.2920   14.3660 N.3   186  LYS186     -0.1245
     51  CA       -37.4500  -32.9910   13.1200 C.3   186  LYS186      0.1561
     52  C        -38.7140  -33.8210   13.2190 C.2   186  LYS186      0.2260
     53  O        -39.4240  -33.9900   12.2200 O.2   186  LYS186     -0.2867
     54  CB       -36.2830  -33.8940   12.7330 C.3   186  LYS186      0.0271
     55  CG       -34.9730  -33.1680   12.5160 C.3   186  LYS186      0.0035
     56  CD       -33.9170  -34.1130   11.9990 C.3   186  LYS186      0.0206
     57  CE       -32.5380  -33.5210   12.2430 C.3   186  LYS186      0.1093
     58  NZ       -32.5000  -32.1050   11.7640 N.3   186  LYS186     -0.1314
     59  N        -30.3790  -34.6800    3.4840 N.3   216  HIS216     -0.1226
     60  CA       -30.2610  -33.5180    4.3360 C.3   216  HIS216      0.1752
     61  C        -31.0210  -33.7630    5.6240 C.2   216  HIS216      0.2596
     62  O        -31.7440  -34.7450    5.7590 O.2   216  HIS216     -0.2718
     63  CB       -30.7670  -32.2890    3.6140 C.3   216  HIS216      0.0759
     64  CG       -29.8610  -31.8490    2.5090 C.ar  216  HIS216      0.0818
     65  ND1      -28.9800  -30.8020    2.6450 N.ar  216  HIS216     -0.2268
     66  CD2      -29.6720  -32.3400    1.2620 C.ar  216  HIS216      0.1154
     67  CE1      -28.3030  -30.6520    1.5210 C.ar  216  HIS216      0.1986
     68  NE2      -28.7010  -31.5760    0.6660 N.ar  216  HIS216     -0.2212
     69  N        -30.8090  -32.8810    6.5900 N.am  217  GLY217     -0.1957
     70  CA       -31.5210  -32.9080    7.8630 C.3   217  GLY217      0.1869
     71  C        -31.3700  -34.1940    8.6390 C.2   217  GLY217      0.2309
     72  O        -32.3370  -34.6700    9.2430 O.2   217  GLY217     -0.2863
     73  N        -29.3200  -35.1170   11.2650 N.3   219  SER219     -0.1217
     74  CA       -28.8540  -35.2270   12.6360 C.3   219  SER219      0.1889
     75  C        -29.7320  -36.2310   13.3770 C.2   219  SER219      0.2288
     76  O        -30.9460  -36.3040   13.1710 O.2   219  SER219     -0.2866
     77  CB       -28.8810  -33.8710   13.3420 C.3   219  SER219      0.2089
     78  OG       -27.7440  -33.0680   13.0450 O.3   219  SER219     -0.2183
     79  N        -25.8700  -35.3080    5.6580 N.3   259  ASN259     -0.1225
     80  CA       -25.4890  -34.0010    6.1930 C.3   259  ASN259      0.1785
     81  C        -25.7750  -33.9350    7.6860 C.2   259  ASN259      0.2597
     82  O        -26.9140  -34.1370    8.1090 O.2   259  ASN259     -0.2718
     83  CB       -26.2310  -32.8960    5.4520 C.3   259  ASN259      0.1169
     84  CG       -25.7830  -32.7700    3.9970 C.2   259  ASN259      0.2627
     85  OD1      -25.2190  -33.6960    3.4420 O.2   259  ASN259     -0.2716
     86  ND2      -26.0450  -31.6260    3.3800 N.am  259  ASN259     -0.0877
     87  N        -24.7450  -33.6750    8.4980 N.am  260  ILE260     -0.1966
     88  CA       -24.9140  -33.6350    9.9530 C.3   260  ILE260      0.1727
     89  C        -24.2920  -32.3760   10.5480 C.2   260  ILE260      0.2616
     90  O        -23.0830  -32.1230   10.3790 O.2   260  ILE260     -0.2715
     91  CB       -24.3270  -34.8690   10.6400 C.3   260  ILE260      0.0290
     92  CG1      -25.1180  -36.1230   10.2300 C.3   260  ILE260      0.0022
     93  CG2      -24.3850  -34.6510   12.1430 C.3   260  ILE260      0.0023
     94  CD1      -24.4110  -37.4570   10.5560 C.3   260  ILE260      0.0001
     95  N        -25.1140  -31.6010   11.2680 N.am  261  ASP261     -0.1957
     96  CA       -24.6380  -30.4040   11.9570 C.3   261  ASP261      0.1840
     97  C        -25.3240  -30.1630   13.3030 C.2   261  ASP261      0.2622
     98  O        -24.6470  -29.7540   14.2590 O.2   261  ASP261     -0.2715
     99  CB       -24.7720  -29.1630   11.0800 C.3   261  ASP261      0.1450
    100  CG       -24.0960  -27.9520   11.7050 C.2   261  ASP261      0.3671
    101  OD1      -22.8600  -27.9960   11.9020 O.co2 261  ASP261     -0.2456
    102  OD2      -24.8040  -26.9720   12.0270 O.co2 261  ASP261     -0.2456
    103  N        -26.6560  -30.3710   13.3970 N.am  262  THR262     -0.1951
    104  CA       -27.3530  -30.1030   14.6580 C.3   262  THR262      0.1897
    105  C        -26.7540  -30.9330   15.7850 C.2   262  THR262      0.2313
    106  O        -26.6170  -30.4530   16.9190 O.2   262  THR262     -0.2863
    107  CB       -28.8700  -30.3930   14.5310 C.3   262  THR262      0.1794
    108  OG1      -29.5610  -29.2950   13.9080 O.3   262  THR262     -0.2208
    109  CG2      -29.5270  -30.6870   15.9140 C.3   262  THR262      0.0378
    110  N        -23.8730  -29.2120   17.1280 N.3   265  ARG265     -0.1245
    111  CA       -24.2730  -28.0750   17.9570 C.3   265  ARG265      0.1563
    112  C        -24.7510  -28.5410   19.3200 C.2   265  ARG265      0.2260
    113  O        -24.4320  -27.9230   20.3420 O.2   265  ARG265     -0.2867
    114  CB       -25.3600  -27.2600   17.2760 C.3   265  ARG265      0.0307
    115  CG       -25.0040  -26.7660   15.9160 C.3   265  ARG265      0.0489
    116  CD       -26.1870  -26.0540   15.3390 C.3   265  ARG265      0.2205
    117  NE       -26.0100  -25.8350   13.9150 N.pl3 265  ARG265     -0.0865
    118  CZ       -26.7760  -25.0370   13.1870 C.cat 265  ARG265      0.5346
    119  NH1      -27.7830  -24.3810   13.7570 N.pl3 265  ARG265      0.1354
    120  NH2      -26.5370  -24.9080   11.8870 N.pl3 265  ARG265      0.1354
@<TRIPOS>BOND
     1    28    29    2
     2    28    27    1
     3    27    26    1
     4    27    30    1
     5    26    20   am
     6    20    21    2
     7    20    19    1
     8    18    19    1
     9    19    22    1
    10    68    66   ar
    11    68    67   ar
    12    30    31    1
    13    32    31   ar
    14    32    34   ar
    15    66    64   ar
    16    24    23   ar
    17    67    65   ar
    18    31    33   ar
    19    34    35   ar
    20    22    23    1
    21    23    25   ar
    22    64    65   ar
    23    64    63    1
    24    33    35   ar
    25    16    15    2
    26    86    84   am
    27    85    84    2
    28    59    60    1
    29    63    60    1
    30    15    14    1
    31    15    17   am
    32    14    13    1
    33    84    83    1
    34    10    13    1
    35    10    11    1
    36    10     9    1
    37    60    61    1
    38    11    12    2
    39    45    44   ar
    40    45    43   ar
    41    83    80    1
    42    61    62    2
    43    61    69   am
    44    79    80    1
    45    44    42   ar
    46    80    81    1
    47    43    41   ar
    48    69    70    1
    49     7     6    2
    50    42    41   ar
    51    41    40    1
    52    81    82    2
    53    81    87   am
    54    70    71    1
    55     6     8   am
    56     6     5    1
    57    87    88    1
    58     2     1    1
    59     2     5    1
    60     2     3    1
    61    71    72    2
    62    36    37    1
    63    40    37    1
    64     3     4    2
    65    37    38    1
    66    88    89    1
    67    88    91    1
    68    92    94    1
    69    92    91    1
    70    90    89    2
    71    89    95   am
    72    91    93    1
    73    38    39    2
    74    38    46   am
    75    99   100    1
    76    99    96    1
    77    73    74    1
    78    95    96    1
    79   100   101   ar
    80   100   102   ar
    81    58    57    1
    82    46    47    1
    83   120   118    1
    84    96    97    1
    85    56    57    1
    86    56    55    1
    87    53    52    2
    88    55    54    1
    89    74    77    1
    90    74    75    1
    91    54    51    1
    92    78    77    1
    93    51    52    1
    94    51    50    1
    95    76    75    2
    96   118   119    1
    97   118   117    2
    98    47    48    1
    99    97   103   am
   100    97    98    2
   101   103   104    1
   102    49    48    2
   103   108   107    1
   104   117   116    1
   105   107   104    1
   106   107   109    1
   107   104   105    1
   108   116   115    1
   109   105   106    2
   110   115   114    1
   111   110   111    1
   112   114   111    1
   113   111   112    1
   114   112   113    2
