@<TRIPOS>MOLECULE
tmp/5u7vA00.pdb
 141 130 0 0 0
SMALL
GASTEIGER

@<TRIPOS>ATOM
      1  N         30.5120   34.7950   47.9680 N.3     8  ASP8       -0.1239
      2  CA        29.2730   34.4050   48.5940 C.3     8  ASP8        0.1674
      3  C         28.8850   35.6170   49.3910 C.2     8  ASP8        0.2266
      4  O         29.4370   35.8550   50.4520 O.2     8  ASP8       -0.2867
      5  CB        29.4810   33.2100   49.5230 C.3     8  ASP8        0.1410
      6  CG        28.2940   32.9640   50.4490 C.2     8  ASP8        0.3668
      7  OD1       27.2130   33.5110   50.1910 O.co2   8  ASP8       -0.2456
      8  OD2       28.4500   32.2370   51.4510 O.co2   8  ASP8       -0.2456
      9  N         26.2490   36.5740   51.4700 N.3    10  GLY10      -0.1210
     10  CA        25.0180   36.1990   52.2300 C.3    10  GLY10       0.1956
     11  C         24.4870   37.3260   53.1090 C.2    10  GLY10       0.2613
     12  O         24.9160   38.4550   52.9670 O.2    10  GLY10      -0.2717
     13  N         23.6030   36.9930   54.0540 N.am   11  SER11      -0.1938
     14  CA        22.8860   37.9850   54.8770 C.3    11  SER11       0.2055
     15  C         23.7630   38.6650   55.9290 C.2    11  SER11       0.2643
     16  O         23.5750   39.8690   56.2060 O.2    11  SER11      -0.2714
     17  CB        21.6210   37.3720   55.5430 C.3    11  SER11       0.2130
     18  OG        21.9370   36.4410   56.5650 O.3    11  SER11      -0.2179
     19  N         24.7130   37.9190   56.4950 N.am   12  THR12      -0.1950
     20  CA        25.5170   38.4310   57.6080 C.3    12  THR12       0.1897
     21  C         26.8970   38.9430   57.1840 C.2    12  THR12       0.2313
     22  O         27.5390   39.6750   57.9230 O.2    12  THR12      -0.2863
     23  CB        25.7450   37.3240   58.6720 C.3    12  THR12       0.1794
     24  OG1       26.1520   36.1200   58.0090 O.3    12  THR12      -0.2208
     25  CG2       24.4590   37.0480   59.5130 C.3    12  THR12       0.0378
     26  N         31.8880   36.3990   51.7080 N.3    15  ARG15      -0.1245
     27  CA        33.0490   35.4950   51.7030 C.3    15  ARG15       0.1563
     28  C         33.4870   35.2630   50.3070 C.2    15  ARG15       0.2260
     29  O         32.6590   35.2590   49.4080 O.2    15  ARG15      -0.2867
     30  CB        32.7360   34.1440   52.3090 C.3    15  ARG15       0.0307
     31  CG        32.1280   34.2710   53.6620 C.3    15  ARG15       0.0489
     32  CD        30.6480   34.3170   53.5040 C.3    15  ARG15       0.2205
     33  NE        30.0260   34.8560   54.6750 N.pl3  15  ARG15      -0.0865
     34  CZ        28.7330   34.7030   54.9270 C.cat  15  ARG15       0.5346
     35  NH1       27.9480   34.0350   54.0700 N.pl3  15  ARG15       0.1354
     36  NH2       28.2310   35.2230   56.0380 N.pl3  15  ARG15       0.1354
     37  N         32.5660   41.2510   57.3710 N.3    41  GLN41      -0.1245
     38  CA        31.2490   41.6630   57.8060 C.3    41  GLN41       0.1566
     39  C         31.1750   43.2050   57.7210 C.2    41  GLN41       0.2260
     40  O         32.2190   43.8680   57.6020 O.2    41  GLN41      -0.2867
     41  CB        31.0170   41.1270   59.2090 C.3    41  GLN41       0.0367
     42  CG        31.0060   39.6070   59.2490 C.3    41  GLN41       0.0905
     43  CD        30.7990   39.0450   60.6430 C.2    41  GLN41       0.2608
     44  OE1       29.7200   38.5640   60.9770 O.2    41  GLN41      -0.2717
     45  NE2       31.8390   39.1010   61.4630 N.am   41  GLN41      -0.0878
     46  N         22.6830   36.3480   48.3880 N.3    84  THR84      -0.1218
     47  CA        21.5240   35.6200   48.9420 C.3    84  THR84       0.1862
     48  C         20.1700   36.3430   48.7310 C.2    84  THR84       0.2287
     49  O         20.1030   37.5880   48.6750 O.2    84  THR84      -0.2866
     50  CB        21.6510   35.2780   50.4340 C.3    84  THR84       0.1770
     51  OG1       21.7850   36.4900   51.1610 O.3    84  THR84      -0.2211
     52  CG2       22.8240   34.3560   50.7090 C.3    84  THR84       0.0375
     53  N         20.0190   30.2400   57.5760 N.3   157  GLY157     -0.1225
     54  CA        19.3260   30.9840   58.6510 C.3   157  GLY157      0.1811
     55  C         17.8590   31.0740   58.3550 C.2   157  GLY157      0.2280
     56  O         16.9720   30.8910   59.2400 O.2   157  GLY157     -0.2866
     57  N         17.3070   27.9710   60.1630 N.3   203  ARG203     -0.1231
     58  CA        17.4870   27.9100   61.6180 C.3   203  ARG203      0.1694
     59  C         16.7940   29.0670   62.3540 C.2   203  ARG203      0.2591
     60  O         16.0580   28.8540   63.2880 O.2   203  ARG203     -0.2718
     61  CB        18.9780   27.9240   61.9580 C.3   203  ARG203      0.0321
     62  CG        19.3500   27.9110   63.4480 C.3   203  ARG203      0.0489
     63  CD        19.5090   26.5250   64.0100 C.3   203  ARG203      0.2205
     64  NE        20.1130   26.5160   65.3490 N.pl3 203  ARG203     -0.0865
     65  CZ        21.4160   26.4280   65.6160 C.cat 203  ARG203      0.5346
     66  NH1       22.3340   26.3630   64.6440 N.pl3 203  ARG203      0.1354
     67  NH2       21.8150   26.4320   66.8830 N.pl3 203  ARG203      0.1354
     68  N         17.0220   30.2750   61.8890 N.am  204  GLU204     -0.1979
     69  CA        16.5550   31.4760   62.5880 C.3   204  GLU204      0.1602
     70  C         15.1090   31.6710   62.3180 C.2   204  GLU204      0.2287
     71  O         14.2820   31.9250   63.2380 O.2   204  GLU204     -0.2864
     72  CB        17.3060   32.7020   62.1290 C.3   204  GLU204      0.0415
     73  CG        18.7070   32.4300   61.6060 C.3   204  GLU204      0.1163
     74  CD        19.7720   33.0520   62.4280 C.2   204  GLU204      0.3649
     75  OE1       20.6280   33.7390   61.8320 O.co2 204  GLU204     -0.2457
     76  OE2       19.7570   32.8320   63.6600 O.co2 204  GLU204     -0.2457
     77  N         12.4040   29.4310   64.1260 N.3   207  ARG207     -0.1245
     78  CA        12.0320   29.7900   65.4770 C.3   207  ARG207      0.1563
     79  C         10.8350   30.7120   65.4830 C.2   207  ARG207      0.2260
     80  O         10.1200   30.7420   66.4370 O.2   207  ARG207     -0.2867
     81  CB        13.1660   30.4440   66.1820 C.3   207  ARG207      0.0307
     82  CG        14.3520   29.5340   66.4000 C.3   207  ARG207      0.0489
     83  CD        15.3300   30.1990   67.3240 C.3   207  ARG207      0.2205
     84  NE        16.6450   29.5760   67.2390 N.pl3 207  ARG207     -0.0865
     85  CZ        17.7490   30.1310   66.7300 C.cat 207  ARG207      0.5346
     86  NH1       17.7340   31.3530   66.2110 N.pl3 207  ARG207      0.1354
     87  NH2       18.8940   29.4310   66.7020 N.pl3 207  ARG207      0.1354
     88  N         23.7820   24.6040   59.6810 N.3   292  SER292     -0.1217
     89  CA        23.2700   24.4820   61.0140 C.3   292  SER292      0.1889
     90  C         23.0030   23.0610   61.4470 C.2   292  SER292      0.2288
     91  O         22.8940   22.8040   62.6500 O.2   292  SER292     -0.2866
     92  CB        22.0090   25.3500   61.1780 C.3   292  SER292      0.2089
     93  OG        22.2920   26.4510   62.0250 O.3   292  SER292     -0.2183
     94  N         26.1670   22.9870   63.0730 N.3   295  TYR295     -0.1241
     95  CA        26.4610   23.9350   64.0960 C.3   295  TYR295      0.1605
     96  C         25.7660   23.5910   65.3890 C.2   295  TYR295      0.2264
     97  O         26.2850   23.9420   66.4430 O.2   295  TYR295     -0.2867
     98  CB        26.0800   25.3830   63.7200 C.3   295  TYR295      0.0534
     99  CG        26.7690   25.9460   62.5220 C.ar  295  TYR295     -0.0201
    100  CD1       28.1120   25.6860   62.2640 C.ar  295  TYR295     -0.0009
    101  CD2       26.0770   26.7610   61.6350 C.ar  295  TYR295     -0.0009
    102  CE1       28.7200   26.2050   61.1640 C.ar  295  TYR295      0.0417
    103  CE2       26.6840   27.2730   60.5150 C.ar  295  TYR295      0.0417
    104  CZ        28.0070   27.0010   60.2950 C.ar  295  TYR295      0.1957
    105  OH        28.6370   27.5380   59.1980 O.3   295  TYR295     -0.2866
    106  N         27.6670   20.7310   67.1130 N.3   298  GLN298     -0.1231
    107  CA        28.9440   21.3220   67.5550 C.3   298  GLN298      0.1698
    108  C         28.7010   22.0810   68.8440 C.2   298  GLN298      0.2592
    109  O         29.4380   21.9570   69.7590 O.2   298  GLN298     -0.2718
    110  CB        29.4720   22.2840   66.4940 C.3   298  GLN298      0.0381
    111  CG        30.7260   23.0760   66.8180 C.3   298  GLN298      0.0905
    112  CD        31.1050   23.9920   65.6900 C.2   298  GLN298      0.2608
    113  OE1       30.2750   24.6410   65.0960 O.2   298  GLN298     -0.2717
    114  NE2       32.3440   24.0200   65.3660 N.am  298  GLN298     -0.0878
    115  N         27.6150   22.8400   68.9040 N.am  299  ASP299     -0.1974
    116  CA        27.3330   23.6750   70.0270 C.3   299  ASP299      0.1709
    117  C         26.7980   22.9440   71.2760 C.2   299  ASP299      0.2293
    118  O         26.7750   23.5150   72.3190 O.2   299  ASP299     -0.2864
    119  CB        26.3370   24.7310   69.5830 C.3   299  ASP299      0.1436
    120  CG        26.9660   25.7270   68.6480 C.2   299  ASP299      0.3671
    121  OD1       28.1820   25.6160   68.4560 O.co2 299  ASP299     -0.2456
    122  OD2       26.2730   26.6020   68.0930 O.co2 299  ASP299     -0.2456
    123  N         26.8120   32.6720   70.0560 N.3   342  PHE342     -0.1241
    124  CA        25.6580   32.9900   69.1900 C.3   342  PHE342      0.1605
    125  C         24.5190   33.1230   70.1540 C.2   342  PHE342      0.2264
    126  O         24.4770   32.3980   71.1190 O.2   342  PHE342     -0.2867
    127  CB        25.4760   31.8820   68.1720 C.3   342  PHE342      0.0534
    128  CG        26.6960   31.7030   67.3470 C.ar  342  PHE342     -0.0203
    129  CD1       26.9480   32.5720   66.2860 C.ar  342  PHE342     -0.0042
    130  CD2       27.6570   30.7890   67.7110 C.ar  342  PHE342     -0.0042
    131  CE1       28.1150   32.4710   65.5570 C.ar  342  PHE342     -0.0003
    132  CE2       28.8280   30.6850   66.9860 C.ar  342  PHE342     -0.0003
    133  CZ        29.0500   31.5180   65.9060 C.ar  342  PHE342     -0.0000
    134  N         21.8070   32.2110   71.5190 N.3   344  ILE344     -0.1245
    135  CA        20.7260   31.2730   71.2780 C.3   344  ILE344      0.1561
    136  C         20.5050   30.2920   72.3690 C.2   344  ILE344      0.2260
    137  O         19.7860   29.3180   72.1990 O.2   344  ILE344     -0.2867
    138  CB        20.8530   30.5900   69.8950 C.3   344  ILE344      0.0252
    139  CG1       22.2330   29.9700   69.7040 C.3   344  ILE344      0.0019
    140  CG2       20.6120   31.6150   68.7930 C.3   344  ILE344      0.0019
    141  CD1       22.3070   28.9650   68.5870 C.3   344  ILE344      0.0001
@<TRIPOS>BOND
     1     1     2    1
     2    46    47    1
     3     2     3    1
     4     2     5    1
     5    49    48    2
     6    48    47    1
     7    47    50    1
     8     3     4    2
     9    29    28    2
    10     5     6    1
    11     7     6   ar
    12    28    27    1
    13    50    52    1
    14    50    51    1
    15     6     8   ar
    16     9    10    1
    17    27    26    1
    18    27    30    1
    19    10    11    1
    20    30    31    1
    21    12    11    2
    22    11    13   am
    23    32    31    1
    24    32    33    1
    25    13    14    1
    26    35    34    1
    27    33    34    2
    28    14    17    1
    29    14    15    1
    30    34    36    1
    31    17    18    1
    32    15    16    2
    33    15    19   am
    34    19    20    1
    35    21    20    1
    36    21    22    2
    37    37    38    1
    38    53    54    1
    39    40    39    2
    40    20    23    1
    41    39    38    1
    42    38    41    1
    43    24    23    1
    44    55    54    1
    45    55    56    2
    46    23    25    1
    47   105   104    1
    48    41    42    1
    49    42    43    1
    50    88    89    1
    51    57    58    1
    52   104   103   ar
    53   104   102   ar
    54   103   101   ar
    55    43    44    2
    56    43    45   am
    57    89    92    1
    58    89    90    1
    59   102   100   ar
    60    92    93    1
    61    90    91    2
    62    73    72    1
    63    73    74    1
    64    58    61    1
    65    58    59    1
    66   101    99   ar
    67    75    74   ar
    68    68    59   am
    69    68    69    1
    70    61    62    1
    71    72    69    1
    72   100    99   ar
    73    70    69    1
    74    70    71    2
    75    59    60    2
    76    74    76   ar
    77    99    98    1
    78    94    95    1
    79    62    63    1
    80    98    95    1
    81    63    64    1
    82    95    96    1
    83    77    78    1
    84    66    65    1
    85   113   112    2
    86    64    65    2
    87   114   112   am
    88    96    97    2
    89    78    79    1
    90    78    81    1
    91    79    80    2
    92   131   133   ar
    93   131   129   ar
    94    65    67    1
    95   112   111    1
    96   133   132   ar
    97    81    82    1
    98    86    85    1
    99   129   128   ar
   100    82    83    1
   101   110   111    1
   102   110   107    1
   103    87    85    1
   104    85    84    2
   105   132   130   ar
   106   106   107    1
   107    84    83    1
   108   128   130   ar
   109   128   127    1
   110   107   108    1
   111   122   120   ar
   112   127   124    1
   113   121   120   ar
   114   141   139    1
   115   120   119    1
   116   140   138    1
   117   108   115   am
   118   108   109    2
   119   115   116    1
   120   124   123    1
   121   124   125    1
   122   119   116    1
   123   139   138    1
   124   138   135    1
   125   116   117    1
   126   125   126    2
   127   117   118    2
   128   135   134    1
   129   135   136    1
   130   137   136    2
