@<TRIPOS>MOLECULE
tmp/5u81A00.pdb
 85 76 0 0 0
SMALL
GASTEIGER

@<TRIPOS>ATOM
      1  N        -14.5680  -32.0910  -31.9420 N.3    18  ARG18      -0.1245
      2  CA       -13.9970  -33.3570  -32.3880 C.3    18  ARG18       0.1563
      3  C        -15.0820  -34.2480  -32.9710 C.2    18  ARG18       0.2260
      4  O        -14.8750  -34.8870  -34.0090 O.2    18  ARG18      -0.2867
      5  CB       -13.2680  -34.0710  -31.2450 C.3    18  ARG18       0.0307
      6  CG       -12.9530  -35.5700  -31.5040 C.3    18  ARG18       0.0489
      7  CD       -11.9380  -35.7790  -32.6060 C.3    18  ARG18       0.2205
      8  NE       -10.6370  -35.2990  -32.1630 N.pl3  18  ARG18      -0.0865
      9  CZ        -9.7350  -36.0320  -31.5240 C.cat  18  ARG18       0.5346
     10  NH1       -9.9440  -37.3130  -31.2830 N.pl3  18  ARG18       0.1354
     11  NH2       -8.6260  -35.4540  -31.1170 N.pl3  18  ARG18       0.1354
     12  N          2.8730  -35.9890  -27.3310 N.3   144  ASN144     -0.1240
     13  CA         2.9540  -36.2850  -28.7550 C.3   144  ASN144      0.1653
     14  C          3.3570  -34.9990  -29.4650 C.2   144  ASN144      0.2266
     15  O          2.5290  -34.1070  -29.6470 O.2   144  ASN144     -0.2867
     16  CB         1.5890  -36.7670  -29.2380 C.3   144  ASN144      0.1155
     17  CG         1.5990  -37.1840  -30.6810 C.2   144  ASN144      0.2627
     18  OD1        2.4720  -36.7960  -31.4480 O.2   144  ASN144     -0.2716
     19  ND2        0.5920  -37.9510  -31.0770 N.am  144  ASN144     -0.0877
     20  N          1.3710  -33.7010  -32.8440 N.3   147  ASN147     -0.1240
     21  CA         0.1580  -32.8910  -32.8390 C.3   147  ASN147      0.1653
     22  C         -0.0700  -32.1340  -31.5450 C.2   147  ASN147      0.2266
     23  O         -1.1740  -31.6110  -31.3440 O.2   147  ASN147     -0.2867
     24  CB        -1.0910  -33.6600  -33.2280 C.3   147  ASN147      0.1155
     25  CG        -1.4000  -34.8290  -32.3170 C.2   147  ASN147      0.2627
     26  OD1       -0.8110  -35.0720  -31.2640 O.2   147  ASN147     -0.2716
     27  ND2       -2.3260  -35.5930  -32.8240 N.am  147  ASN147     -0.0877
     28  N         -0.3230  -32.9260  -28.2200 N.3   149  THR149     -0.1218
     29  CA        -1.3360  -33.4450  -27.3150 C.3   149  THR149      0.1862
     30  C         -0.7080  -34.4290  -26.3420 C.2   149  THR149      0.2287
     31  O          0.3790  -34.9650  -26.5710 O.2   149  THR149     -0.2866
     32  CB        -2.4640  -34.1900  -28.0410 C.3   149  THR149      0.1770
     33  OG1       -1.9310  -35.3220  -28.7430 O.3   149  THR149     -0.2211
     34  CG2       -3.1950  -33.2750  -29.0020 C.3   149  THR149      0.0375
     35  N         -1.0040  -38.1230  -24.7250 N.3   151  VAL151     -0.1245
     36  CA        -1.4170  -39.3910  -25.3050 C.3   151  VAL151      0.1561
     37  C         -2.7060  -39.9100  -24.6620 C.2   151  VAL151      0.2260
     38  O         -3.6660  -40.2730  -25.3590 O.2   151  VAL151     -0.2867
     39  CB        -0.2460  -40.3740  -25.1540 C.3   151  VAL151      0.0252
     40  CG1       -0.6560  -41.7860  -25.3760 C.3   151  VAL151      0.0019
     41  CG2        0.9000  -39.9640  -26.0860 C.3   151  VAL151      0.0019
     42  N         -5.9190  -37.7410  -25.2160 N.3   154  GLU154     -0.1231
     43  CA        -6.5330  -37.9440  -26.5190 C.3   154  GLU154      0.1699
     44  C         -7.2380  -39.2850  -26.6320 C.2   154  GLU154      0.2592
     45  O         -8.2890  -39.3780  -27.2890 O.2   154  GLU154     -0.2718
     46  CB        -5.5040  -37.8220  -27.6220 C.3   154  GLU154      0.0402
     47  CG        -4.8790  -36.4630  -27.7250 C.3   154  GLU154      0.1161
     48  CD        -5.9040  -35.3540  -27.9460 C.2   154  GLU154      0.3649
     49  OE1       -6.5890  -35.3700  -29.0020 O.co2 154  GLU154     -0.2457
     50  OE2       -6.0260  -34.4690  -27.0630 O.co2 154  GLU154     -0.2457
     51  N         -6.7000  -40.3200  -25.9890 N.am  155  GLU155     -0.1979
     52  CA        -7.2950  -41.6440  -26.0730 C.3   155  GLU155      0.1602
     53  C         -8.6180  -41.7300  -25.3240 C.2   155  GLU155      0.2287
     54  O         -9.4230  -42.6080  -25.6290 O.2   155  GLU155     -0.2864
     55  CB        -6.2830  -42.6810  -25.5980 C.3   155  GLU155      0.0415
     56  CG        -5.1970  -42.8990  -26.6660 C.3   155  GLU155      0.1163
     57  CD        -3.9680  -43.6700  -26.2130 C.2   155  GLU155      0.3649
     58  OE1       -3.8480  -43.9640  -25.0080 O.co2 155  GLU155     -0.2457
     59  OE2       -3.1100  -43.9600  -27.0960 O.co2 155  GLU155     -0.2457
     60  N        -10.9780  -39.5280  -25.6580 N.3   157  LYS157     -0.1245
     61  CA       -12.0350  -39.0390  -26.5390 C.3   157  LYS157      0.1561
     62  C        -12.8070  -40.1700  -27.2000 C.2   157  LYS157      0.2260
     63  O        -14.0390  -40.2110  -27.0500 O.2   157  LYS157     -0.2867
     64  CB       -11.4560  -38.0330  -27.5330 C.3   157  LYS157      0.0271
     65  CG       -10.9600  -36.7750  -26.8250 C.3   157  LYS157      0.0035
     66  CD       -10.2140  -35.8240  -27.7240 C.3   157  LYS157      0.0206
     67  CE        -9.6460  -34.6910  -26.9160 C.3   157  LYS157      0.1093
     68  NZ        -8.8680  -33.7350  -27.7570 N.3   157  LYS157     -0.1314
     69  N         -6.1140  -27.7490  -23.8880 N.3   340  LYS340     -0.1245
     70  CA        -5.6450  -28.9850  -24.5140 C.3   340  LYS340      0.1561
     71  C         -6.0470  -30.2270  -23.7460 C.2   340  LYS340      0.2260
     72  O         -5.9960  -31.3240  -24.3160 O.2   340  LYS340     -0.2867
     73  CB        -4.1300  -28.9980  -24.6230 C.3   340  LYS340      0.0271
     74  CG        -3.6300  -28.1690  -25.7480 C.3   340  LYS340      0.0035
     75  CD        -3.7040  -28.9220  -27.0590 C.3   340  LYS340      0.0206
     76  CE        -2.9280  -28.1590  -28.1210 C.3   340  LYS340      0.1093
     77  NZ        -2.8840  -28.8600  -29.4280 N.3   340  LYS340     -0.1314
     78  N        -11.6650  -30.4450  -29.2090 N.3   361  ASP361     -0.1239
     79  CA       -10.2730  -30.2120  -29.5440 C.3   361  ASP361      0.1674
     80  C         -9.9790  -28.7480  -29.2420 C.2   361  ASP361      0.2266
     81  O        -10.8880  -27.9210  -29.1560 O.2   361  ASP361     -0.2867
     82  CB        -9.9900  -30.5050  -31.0200 C.3   361  ASP361      0.1410
     83  CG        -9.7430  -31.9750  -31.3010 C.2   361  ASP361      0.3668
     84  OD1       -8.9820  -32.6230  -30.5460 O.co2 361  ASP361     -0.2456
     85  OD2      -10.3120  -32.4850  -32.3070 O.co2 361  ASP361     -0.2456
@<TRIPOS>BOND
     1     4     3    2
     2    24    21    1
     3    24    25    1
     4     3     2    1
     5    20    21    1
     6    21    22    1
     7    27    25   am
     8     7     8    1
     9     7     6    1
    10     2     1    1
    11     2     5    1
    12    25    26    2
    13    85    83   ar
    14     8     9    2
    15    22    23    2
    16     9    10    1
    17     9    11    1
    18     6     5    1
    19    18    17    2
    20    83    82    1
    21    83    84   ar
    22    19    17   am
    23    82    79    1
    24    17    16    1
    25    15    14    2
    26    79    80    1
    27    79    78    1
    28    14    13    1
    29    77    76    1
    30    80    81    2
    31    16    13    1
    32    49    48   ar
    33    34    32    1
    34    13    12    1
    35    33    32    1
    36    28    29    1
    37    76    75    1
    38    32    29    1
    39    48    47    1
    40    48    50   ar
    41    68    67    1
    42    47    46    1
    43    66    67    1
    44    66    65    1
    45    46    43    1
    46    64    65    1
    47    64    61    1
    48    29    30    1
    49    45    44    2
    50    62    63    2
    51    62    61    1
    52    59    57   ar
    53    75    74    1
    54    56    57    1
    55    56    55    1
    56    44    43    1
    57    44    51   am
    58    31    30    2
    59    61    60    1
    60    43    42    1
    61    57    58   ar
    62    41    39    1
    63    52    51    1
    64    52    55    1
    65    52    53    1
    66    74    73    1
    67    54    53    2
    68    40    39    1
    69    38    37    2
    70    36    39    1
    71    36    35    1
    72    36    37    1
    73    73    70    1
    74    70    69    1
    75    70    71    1
    76    72    71    2
