@<TRIPOS>MOLECULE
tmp/5u82B00.pdb
 129 125 0 0 0
SMALL
GASTEIGER

@<TRIPOS>ATOM
      1  N          8.6220   -2.3120    3.2980 N.3    10  LEU10      -0.1245
      2  CA         7.9670   -3.4400    3.9630 C.3    10  LEU10       0.1561
      3  C          8.2620   -4.7490    3.2420 C.2    10  LEU10       0.2260
      4  O          8.5470   -5.7760    3.8760 O.2    10  LEU10      -0.2867
      5  CB         6.4630   -3.2050    4.0290 C.3    10  LEU10       0.0270
      6  CG         5.8980   -2.2990    5.1050 C.3    10  LEU10       0.0019
      7  CD1        4.4260   -2.2560    4.8790 C.3    10  LEU10       0.0001
      8  CD2        6.1820   -2.7510    6.5600 C.3    10  LEU10       0.0001
      9  N         10.5630   -8.7340    4.0570 N.3    14  VAL14      -0.1245
     10  CA        10.0760  -10.0980    3.8890 C.3    14  VAL14       0.1561
     11  C         10.6750  -10.7880    2.6780 C.2    14  VAL14       0.2260
     12  O         10.6070  -12.0210    2.5920 O.2    14  VAL14      -0.2867
     13  CB         8.5350  -10.1750    3.7890 C.3    14  VAL14       0.0252
     14  CG1        7.8690   -9.3220    4.8580 C.3    14  VAL14       0.0019
     15  CG2        8.0360   -9.7840    2.4230 C.3    14  VAL14       0.0019
     16  N          5.2320  -17.1770    5.5700 N.3    24  LEU24      -0.1245
     17  CA         4.3760  -16.2190    6.2750 C.3    24  LEU24       0.1561
     18  C          2.9120  -16.6230    6.2450 C.2    24  LEU24       0.2260
     19  O          2.2260  -16.6010    7.2710 O.2    24  LEU24      -0.2867
     20  CB         4.5280  -14.8170    5.6610 C.3    24  LEU24       0.0270
     21  CG         3.5290  -13.7600    6.1820 C.3    24  LEU24       0.0019
     22  CD1        3.7050  -13.6060    7.6780 C.3    24  LEU24       0.0001
     23  CD2        3.6350  -12.3950    5.4950 C.3    24  LEU24       0.0001
     24  N          4.0740  -14.0580   15.3430 N.3    74  TYR74      -0.1227
     25  CA         4.8040  -13.3950   14.2660 C.3    74  TYR74       0.1736
     26  C          3.7910  -12.4930   13.5750 C.2    74  TYR74       0.2596
     27  O          3.0350  -12.9580   12.7210 O.2    74  TYR74      -0.2718
     28  CB         5.4490  -14.3420   13.2500 C.3    74  TYR74       0.0548
     29  CG         6.2970  -13.4840   12.3340 C.ar   74  TYR74      -0.0200
     30  CD1        7.4530  -12.8650   12.8130 C.ar   74  TYR74      -0.0009
     31  CD2        5.8850  -13.1800   11.0410 C.ar   74  TYR74      -0.0009
     32  CE1        8.2030  -12.0590   12.0290 C.ar   74  TYR74       0.0417
     33  CE2        6.6410  -12.3530   10.2380 C.ar   74  TYR74       0.0417
     34  CZ         7.8040  -11.7880   10.7350 C.ar   74  TYR74       0.1957
     35  OH         8.5880  -10.9510    9.9550 O.3    74  TYR74      -0.2866
     36  N          3.7930  -11.2250   13.9530 N.am   75  GLY75      -0.1957
     37  CA         2.8030  -10.2420   13.5210 C.3    75  GLY75       0.1869
     38  C          1.4500  -10.4790   14.1480 C.2    75  GLY75       0.2309
     39  O          0.8920   -9.6230   14.8310 O.2    75  GLY75      -0.2863
     40  N          0.8250   -7.0760   16.1210 N.3    95  TRP95      -0.1227
     41  CA         1.9290   -6.2150   16.5360 C.3    95  TRP95       0.1737
     42  C          1.7350   -4.7210   16.2440 C.2    95  TRP95       0.2595
     43  O          2.4080   -3.8900   16.8700 O.2    95  TRP95      -0.2718
     44  CB         3.1930   -6.7040   15.8860 C.3    95  TRP95       0.0564
     45  CG         3.7130   -7.9430   16.5120 C.ar   95  TRP95       0.0003
     46  CD1        3.2230   -8.6130   17.6090 C.ar   95  TRP95       0.0946
     47  CD2        4.8310   -8.6800   16.0690 C.ar   95  TRP95       0.0152
     48  NE1        3.9930   -9.6960   17.8690 N.ar   95  TRP95      -0.2442
     49  CE2        4.9810   -9.7730   16.9320 C.ar   95  TRP95       0.0810
     50  CE3        5.7430   -8.5130   15.0240 C.ar   95  TRP95       0.0012
     51  CZ2        5.9930  -10.7200   16.7700 C.ar   95  TRP95       0.0191
     52  CZ3        6.7560   -9.4520   14.8710 C.ar   95  TRP95       0.0001
     53  CH2        6.8680  -10.5370   15.7450 C.ar   95  TRP95       0.0015
     54  N          0.8800   -4.3340   15.3070 N.am   96  CYS96      -0.1970
     55  CA         0.6770   -2.9160   15.0220 C.3    96  CYS96       0.1712
     56  C         -0.5740   -2.7810   14.1720 C.2    96  CYS96       0.2296
     57  O         -1.1610   -3.7750   13.7120 O.2    96  CYS96      -0.2864
     58  CB         1.8890   -2.2800   14.3170 C.3    96  CYS96       0.0983
     59  SG         2.1270   -2.8090   12.5940 S.3    96  CYS96      -0.0798
     60  N         -1.0730   -1.5430   11.1020 N.3    98  LEU98      -0.1231
     61  CA        -1.0870   -1.9640    9.7080 C.3    98  LEU98       0.1693
     62  C         -1.2190   -3.4770    9.5820 C.2    98  LEU98       0.2592
     63  O         -1.9300   -3.9750    8.7030 O.2    98  LEU98      -0.2718
     64  CB         0.1650   -1.4680    9.0270 C.3    98  LEU98       0.0284
     65  CG         0.2520   -1.8120    7.5470 C.3    98  LEU98       0.0019
     66  CD1       -0.8800   -1.1440    6.8170 C.3    98  LEU98       0.0001
     67  CD2        1.5820   -1.3730    7.0570 C.3    98  LEU98       0.0001
     68  N         -0.5970   -4.2220   10.5090 N.am   99  ASP99      -0.1974
     69  CA        -0.7420   -5.6740   10.5580 C.3    99  ASP99       0.1709
     70  C         -2.2050   -6.0850   10.5840 C.2    99  ASP99       0.2293
     71  O         -2.6170   -6.9830    9.8380 O.2    99  ASP99      -0.2864
     72  CB        -0.0070   -6.2400   11.7740 C.3    99  ASP99       0.1436
     73  CG         1.4150   -6.4420   11.5140 C.2    99  ASP99       0.3671
     74  OD1        1.6900   -6.8030   10.3710 O.co2  99  ASP99      -0.2456
     75  OD2        2.2540   -6.2360   12.4000 O.co2  99  ASP99      -0.2456
     76  N         -3.6170   -5.9450    7.0950 N.3   102  ILE102     -0.1231
     77  CA        -3.0590   -6.8640    6.1010 C.3   102  ILE102      0.1692
     78  C         -3.5550   -8.2970    6.2830 C.2   102  ILE102      0.2592
     79  O         -3.8670   -8.9900    5.3120 O.2   102  ILE102     -0.2718
     80  CB        -1.5320   -6.8060    6.1900 C.3   102  ILE102      0.0266
     81  CG1       -1.0220   -5.5020    5.5730 C.3   102  ILE102      0.0019
     82  CG2       -0.9140   -8.0750    5.5670 C.3   102  ILE102      0.0020
     83  CD1        0.3890   -5.2320    5.8420 C.3   102  ILE102      0.0001
     84  N         -3.5820   -8.7920    7.5160 N.am  103  PHE103     -0.1976
     85  CA        -3.7730  -10.2270    7.7310 C.3   103  PHE103      0.1639
     86  C         -5.0930  -10.7810    7.2210 C.2   103  PHE103      0.2290
     87  O         -5.1220  -11.9590    6.8330 O.2   103  PHE103     -0.2864
     88  CB        -3.6940  -10.5590    9.2170 C.3   103  PHE103      0.0560
     89  CG        -2.4050  -10.2270    9.8450 C.ar  103  PHE103     -0.0200
     90  CD1       -1.2500  -10.1770    9.1100 C.ar  103  PHE103     -0.0042
     91  CD2       -2.3600   -9.9490   11.2000 C.ar  103  PHE103     -0.0042
     92  CE1       -0.0470   -9.8710    9.7200 C.ar  103  PHE103     -0.0003
     93  CE2       -1.1650   -9.6390   11.8250 C.ar  103  PHE103     -0.0003
     94  CZ        -0.0030   -9.6120   11.0910 C.ar  103  PHE103     -0.0000
     95  N         11.9260   -5.5370   13.3640 N.3   154  VAL154     -0.1245
     96  CA        10.7710   -4.9050   12.7340 C.3   154  VAL154      0.1561
     97  C          9.8420   -4.3850   13.8000 C.2   154  VAL154      0.2260
     98  O          9.0640   -3.4550   13.5570 O.2   154  VAL154     -0.2867
     99  CB        10.0630   -5.8900   11.7720 C.3   154  VAL154      0.0252
    100  CG1        9.4840   -7.0760   12.5520 C.3   154  VAL154      0.0019
    101  CG2        8.9570   -5.2260   10.9600 C.3   154  VAL154      0.0019
    102  N          9.5190   -0.4650   13.5210 N.3   158  PHE158     -0.1227
    103  CA         8.3590   -0.1710   12.7040 C.3   158  PHE158      0.1736
    104  C          7.0870   -0.3100   13.5190 C.2   158  PHE158      0.2595
    105  O          6.4020    0.6990   13.7470 O.2   158  PHE158     -0.2718
    106  CB         8.3050   -1.0860   11.4800 C.3   158  PHE158      0.0547
    107  CG         7.1070   -0.8270   10.5930 C.ar  158  PHE158     -0.0202
    108  CD1        7.1140    0.2220    9.6920 C.ar  158  PHE158     -0.0042
    109  CD2        5.9720   -1.6060   10.7030 C.ar  158  PHE158     -0.0042
    110  CE1        6.0400    0.4640    8.8670 C.ar  158  PHE158     -0.0003
    111  CE2        4.8720   -1.3620    9.9090 C.ar  158  PHE158     -0.0003
    112  CZ         4.9090   -0.3160    8.9660 C.ar  158  PHE158     -0.0000
    113  N          6.8060   -1.5460   13.9730 N.am  159  CYS159     -0.1970
    114  CA         5.5230   -1.8810   14.6080 C.3   159  CYS159      0.1712
    115  C          5.1900   -0.9790   15.7840 C.2   159  CYS159      0.2296
    116  O          4.0320   -0.5720   15.9510 O.2   159  CYS159     -0.2864
    117  CB         5.5130   -3.3350   15.0800 C.3   159  CYS159      0.0983
    118  SG         5.6470   -4.5290   13.7440 S.3   159  CYS159     -0.0798
    119  N          0.7820   -4.1040   -0.4890 N.3   199  PHE199     -0.1241
    120  CA         1.7150   -5.0680    0.0990 C.3   199  PHE199      0.1605
    121  C          1.3540   -6.5050   -0.2600 C.2   199  PHE199      0.2264
    122  O          2.2070   -7.3100   -0.6330 O.2   199  PHE199     -0.2867
    123  CB         1.7210   -4.9030    1.6200 C.3   199  PHE199      0.0534
    124  CG         2.5360   -5.9470    2.3340 C.ar  199  PHE199     -0.0203
    125  CD1        3.8920   -5.8050    2.4730 C.ar  199  PHE199     -0.0042
    126  CD2        1.9370   -7.0620    2.8660 C.ar  199  PHE199     -0.0042
    127  CE1        4.6230   -6.7540    3.1260 C.ar  199  PHE199     -0.0003
    128  CE2        2.6660   -8.0260    3.5060 C.ar  199  PHE199     -0.0003
    129  CZ         4.0230   -7.8740    3.6260 C.ar  199  PHE199     -0.0000
@<TRIPOS>BOND
     1   122   121    2
     2   119   120    1
     3   121   120    1
     4   120   123    1
     5   123   124    1
     6   124   125   ar
     7   124   126   ar
     8    15    13    1
     9   125   127   ar
    10    12    11    2
    11    11    10    1
    12   126   128   ar
    13   127   129   ar
    14     3     4    2
    15     3     2    1
    16     1     2    1
    17   128   129   ar
    18    13    10    1
    19    13    14    1
    20    10     9    1
    21     2     5    1
    22     5     6    1
    23     7     6    1
    24     6     8    1
    25    79    78    2
    26    23    21    1
    27    82    80    1
    28    16    17    1
    29    81    83    1
    30    81    80    1
    31    20    21    1
    32    20    17    1
    33    77    80    1
    34    77    78    1
    35    77    76    1
    36    21    22    1
    37    18    17    1
    38    18    19    2
    39    78    84   am
    40    66    65    1
    41    87    86    2
    42    67    65    1
    43    86    85    1
    44    84    85    1
    45    65    64    1
    46    85    88    1
    47    63    62    2
    48   110   112   ar
    49   110   108   ar
    50   112   111   ar
    51    64    61    1
    52    90    92   ar
    53    90    89   ar
    54    88    89    1
    55    62    61    1
    56    62    68   am
    57   108   107   ar
    58    61    60    1
    59    92    94   ar
    60    71    70    2
    61    89    91   ar
    62   111   109   ar
    63    35    34    1
    64    33    34   ar
    65    33    31   ar
    66    74    73   ar
    67    68    69    1
    68    69    70    1
    69    69    72    1
    70   107   109   ar
    71   107   106    1
    72    34    32   ar
    73   101    99    1
    74    31    29   ar
    75    94    93   ar
    76    91    93   ar
    77   106   103    1
    78    73    72    1
    79    73    75   ar
    80    99   100    1
    81    99    96    1
    82    32    30   ar
    83    29    30   ar
    84    29    28    1
    85    59    58    1
    86   103   104    1
    87   103   102    1
    88    27    26    2
    89    96    95    1
    90    96    97    1
    91    28    25    1
    92   104   105    2
    93   104   113   am
    94    37    36    1
    95    37    38    1
    96    98    97    2
    97    26    36   am
    98    26    25    1
    99    57    56    2
   100   118   117    1
   101   113   114    1
   102    38    39    2
   103    56    55    1
   104    25    24    1
   105    58    55    1
   106   114   117    1
   107   114   115    1
   108    52    50   ar
   109    52    53   ar
   110    55    54    1
   111    50    47   ar
   112    54    42   am
   113    53    51   ar
   114   115   116    2
   115    44    45    1
   116    44    41    1
   117    47    45   ar
   118    47    49   ar
   119    40    41    1
   120    42    41    1
   121    42    43    2
   122    45    46   ar
   123    51    49   ar
   124    49    48   ar
   125    46    48   ar
