@<TRIPOS>MOLECULE
tmp/5u84A06.pdb
 75 73 0 0 0
SMALL
GASTEIGER

@<TRIPOS>ATOM
      1  N         -8.4890  -11.0120    0.7710 N.3    34  HIS34      -0.1241
      2  CA        -8.6430  -11.1850   -0.6700 C.3    34  HIS34       0.1621
      3  C         -7.6220  -12.1720   -1.2240 C.2    34  HIS34       0.2264
      4  O         -7.9860  -13.2010   -1.8050 O.2    34  HIS34      -0.2867
      5  CB        -8.5200   -9.8410   -1.3840 C.3    34  HIS34       0.0745
      6  CG        -8.7730   -9.9270   -2.8550 C.ar   34  HIS34       0.0817
      7  ND1      -10.0020   -9.6640   -3.4180 N.ar   34  HIS34      -0.2268
      8  CD2       -7.9570  -10.2720   -3.8790 C.ar   34  HIS34       0.1154
      9  CE1       -9.9300   -9.8300   -4.7270 C.ar   34  HIS34       0.1986
     10  NE2       -8.6990  -10.1990   -5.0320 N.ar   34  HIS34      -0.2212
     11  N         -8.1880  -15.9070   -0.2180 N.3    37  MET37      -0.1230
     12  CA        -9.3520  -16.6250   -0.7260 C.3    37  MET37       0.1702
     13  C         -9.2690  -16.9690   -2.2090 C.2    37  MET37       0.2592
     14  O        -10.1730  -17.6450   -2.7130 O.2    37  MET37      -0.2718
     15  CB       -10.6170  -15.7980   -0.4780 C.3    37  MET37       0.0401
     16  CG       -10.9320  -15.5280    0.9880 C.3    37  MET37       0.0596
     17  SD       -10.6410  -16.9260    2.0830 S.3    37  MET37      -0.1393
     18  CE       -11.7970  -18.1220    1.4130 C.3    37  MET37       0.0692
     19  N         -8.2260  -16.5380   -2.9220 N.am   38  VAL38      -0.1966
     20  CA        -8.1410  -16.8300   -4.3490 C.3    38  VAL38       0.1727
     21  C         -8.2350  -18.3340   -4.5630 C.2    38  VAL38       0.2616
     22  O         -7.5340  -19.1170   -3.9110 O.2    38  VAL38      -0.2715
     23  CB        -6.8430  -16.2580   -4.9390 C.3    38  VAL38       0.0290
     24  CG1       -6.5900  -16.8150   -6.3450 C.3    38  VAL38       0.0023
     25  CG2       -6.8880  -14.7380   -4.9550 C.3    38  VAL38       0.0023
     26  N         -9.0930  -18.7430   -5.5000 N.am   39  ASP39      -0.1957
     27  CA        -9.1660  -20.1200   -5.9820 C.3    39  ASP39       0.1840
     28  C         -9.6130  -21.1120   -4.9110 C.2    39  ASP39       0.2622
     29  O         -9.4300  -22.3220   -5.0750 O.2    39  ASP39      -0.2715
     30  CB        -7.8140  -20.5570   -6.5610 C.3    39  ASP39       0.1450
     31  CG        -7.8680  -21.9250   -7.2120 C.2    39  ASP39       0.3671
     32  OD1       -8.4030  -22.0320   -8.3360 O.co2  39  ASP39      -0.2456
     33  OD2       -7.3720  -22.8920   -6.5950 O.co2  39  ASP39      -0.2456
     34  N        -10.2110  -20.6440   -3.8160 N.am   40  LYS40      -0.1963
     35  CA       -10.6100  -21.5260   -2.7270 C.3    40  LYS40       0.1728
     36  C        -12.1200  -21.6600   -2.5670 C.2    40  LYS40       0.2616
     37  O        -12.5670  -22.4120   -1.6940 O.2    40  LYS40      -0.2715
     38  CB       -10.0000  -21.0450   -1.4060 C.3    40  LYS40       0.0311
     39  CG        -8.5710  -21.5230   -1.1790 C.3    40  LYS40       0.0038
     40  CD        -7.8060  -20.5550   -0.3030 C.3    40  LYS40       0.0206
     41  CE        -6.4180  -21.0710    0.0510 C.3    40  LYS40       0.1093
     42  NZ        -5.3330  -20.4620   -0.7640 N.3    40  LYS40      -0.1314
     43  N        -12.9170  -20.9670   -3.3800 N.am   41  ALA41      -0.1977
     44  CA       -14.3680  -21.0820   -3.2590 C.3    41  ALA41       0.1597
     45  C        -14.8760  -22.5080   -3.4330 C.2    41  ALA41       0.2287
     46  O        -15.7540  -22.9190   -2.6530 O.2    41  ALA41      -0.2864
     47  CB       -15.0460  -20.1490   -4.2690 C.3    41  ALA41       0.0319
     48  N        -17.5050  -11.9570   -1.3050 N.3    92  ALA92      -0.1231
     49  CA       -17.3370  -11.3860   -2.6370 C.3    92  ALA92       0.1694
     50  C        -16.3100  -12.1690   -3.4470 C.2    92  ALA92       0.2592
     51  O        -16.5700  -12.5460   -4.5960 O.2    92  ALA92      -0.2718
     52  CB       -16.9270   -9.9180   -2.5240 C.3    92  ALA92       0.0304
     53  N        -15.1340  -12.4220   -2.8670 N.am   93  VAL93      -0.1966
     54  CA       -14.0800  -13.1240   -3.5980 C.3    93  VAL93       0.1727
     55  C        -14.5310  -14.5290   -3.9720 C.2    93  VAL93       0.2617
     56  O        -14.2770  -15.0020   -5.0850 O.2    93  VAL93      -0.2715
     57  CB       -12.7830  -13.1580   -2.7670 C.3    93  VAL93       0.0290
     58  CG1      -11.7270  -14.0220   -3.4460 C.3    93  VAL93       0.0023
     59  CG2      -12.2520  -11.7570   -2.5540 C.3    93  VAL93       0.0023
     60  N        -15.1920  -15.2220   -3.0480 N.am   94  THR94      -0.1937
     61  CA       -15.5960  -16.6040   -3.2700 C.3    94  THR94       0.2028
     62  C        -16.9240  -16.7330   -4.0030 C.2    94  THR94       0.2642
     63  O        -17.2490  -17.8310   -4.4690 O.2    94  THR94      -0.2714
     64  CB       -15.6880  -17.3510   -1.9320 C.3    94  THR94       0.1808
     65  OG1      -16.5320  -16.6260   -1.0290 O.3    94  THR94      -0.2208
     66  CG2      -14.3090  -17.5120   -1.3160 C.3    94  THR94       0.0379
     67  N        -17.6920  -15.6510   -4.1240 N.am   95  GLU95      -0.1976
     68  CA       -19.0170  -15.7020   -4.7360 C.3    95  GLU95       0.1602
     69  C        -19.9480  -16.6230   -3.9530 C.2    95  GLU95       0.2287
     70  O        -20.8430  -17.2540   -4.5210 O.2    95  GLU95      -0.2864
     71  CB       -18.9300  -16.1430   -6.2000 C.3    95  GLU95       0.0415
     72  CG       -18.0290  -15.2560   -7.0480 C.3    95  GLU95       0.1163
     73  CD       -17.9830  -15.6780   -8.5020 C.2    95  GLU95       0.3649
     74  OE1      -18.4180  -16.8080   -8.8130 O.co2  95  GLU95      -0.2457
     75  OE2      -17.5150  -14.8710   -9.3340 O.co2  95  GLU95      -0.2457
@<TRIPOS>BOND
     1    75    73   ar
     2    74    73   ar
     3    73    72    1
     4    32    31   ar
     5    31    33   ar
     6    31    30    1
     7    72    71    1
     8    30    27    1
     9    24    23    1
    10    71    68    1
    11    27    26    1
    12    27    28    1
    13    26    21   am
    14    56    55    2
    15    29    28    2
    16    10     9   ar
    17    10     8   ar
    18    25    23    1
    19    23    20    1
    20    28    34   am
    21    68    67    1
    22    68    69    1
    23     9     7   ar
    24    51    50    2
    25    21    20    1
    26    21    22    2
    27    70    69    2
    28    63    62    2
    29    20    19    1
    30    47    44    1
    31    67    62   am
    32    62    61    1
    33    55    54    1
    34    55    60   am
    35     8     6   ar
    36    34    35    1
    37    54    53    1
    38    54    57    1
    39    50    53   am
    40    50    49    1
    41    58    57    1
    42    45    44    1
    43    45    46    2
    44     7     6   ar
    45    43    44    1
    46    43    36   am
    47    61    60    1
    48    61    64    1
    49    19    13   am
    50     6     5    1
    51    57    59    1
    52    35    36    1
    53    35    38    1
    54    14    13    2
    55    49    52    1
    56    49    48    1
    57    36    37    2
    58    13    12    1
    59    64    66    1
    60    64    65    1
    61     4     3    2
    62    38    39    1
    63     5     2    1
    64     3     2    1
    65    39    40    1
    66    42    41    1
    67    12    15    1
    68    12    11    1
    69     2     1    1
    70    15    16    1
    71    40    41    1
    72    16    17    1
    73    18    17    1
