@<TRIPOS>MOLECULE
tmp/5u84B00.pdb
 84 80 0 0 0
SMALL
GASTEIGER

@<TRIPOS>ATOM
      1  N        -48.1730  -47.6020   10.3080 N.3     7  TYR7       -0.1228
      2  CA       -48.3570  -49.0530   10.3280 C.3     7  TYR7        0.1721
      3  C        -49.6630  -49.4770    9.6460 C.2     7  TYR7        0.2437
      4  O        -50.6830  -48.8050    9.8000 O.2     7  TYR7       -0.2733
      5  CB       -48.3410  -49.5500   11.7740 C.3     7  TYR7        0.0547
      6  CG       -48.1120  -51.0360   11.9220 C.ar    7  TYR7       -0.0200
      7  CD1      -46.8240  -51.5480   11.9980 C.ar    7  TYR7       -0.0009
      8  CD2      -49.1760  -51.9250   11.9860 C.ar    7  TYR7       -0.0009
      9  CE1      -46.5990  -52.9000   12.1360 C.ar    7  TYR7        0.0417
     10  CE2      -48.9600  -53.2840   12.1240 C.ar    7  TYR7        0.0417
     11  CZ       -47.6690  -53.7650   12.1990 C.ar    7  TYR7        0.1957
     12  OH       -47.4420  -55.1170   12.3360 O.3     7  TYR7       -0.2866
     13  N        -49.6440  -50.5920    8.8860 N.am    8  PRO8       -0.2729
     14  CA       -48.5130  -51.4840    8.5900 C.3     8  PRO8        0.1401
     15  C        -47.4330  -50.8070    7.7490 C.2     8  PRO8        0.2269
     16  O        -47.7170  -49.7970    7.1050 O.2     8  PRO8       -0.2865
     17  CB       -49.1640  -52.6430    7.8280 C.3     8  PRO8        0.0296
     18  CG       -50.3870  -52.0670    7.2420 C.3     8  PRO8        0.0237
     19  CD       -50.8820  -51.0740    8.2500 C.3     8  PRO8        0.0939
     20  N        -45.5590  -56.7160   24.8250 N.3   127  LEU127     -0.1245
     21  CA       -44.9940  -56.5530   23.4940 C.3   127  LEU127      0.1561
     22  C        -43.4940  -56.3280   23.6170 C.2   127  LEU127      0.2260
     23  O        -43.0370  -55.6170   24.5160 O.2   127  LEU127     -0.2867
     24  CB       -45.6320  -55.3770   22.7530 C.3   127  LEU127      0.0270
     25  CG       -47.1580  -55.3710   22.6780 C.3   127  LEU127      0.0019
     26  CD1      -47.6280  -54.1550   21.8970 C.3   127  LEU127      0.0001
     27  CD2      -47.6970  -56.6600   22.0660 C.3   127  LEU127      0.0001
     28  N        -49.3620  -50.5640   21.2700 N.3   308  SER308     -0.1202
     29  CA       -49.6850  -51.6840   20.3950 C.3   308  SER308      0.2020
     30  C        -48.5530  -51.8460   19.3890 C.2   308  SER308      0.2619
     31  O        -47.5550  -51.1200   19.4260 O.2   308  SER308     -0.2717
     32  CB       -51.0240  -51.4650   19.6890 C.3   308  SER308      0.2103
     33  OG       -50.9270  -50.4230   18.7310 O.3   308  SER308     -0.2182
     34  N        -48.7200  -52.8070   18.4770 N.am  309  PHE309     -0.1961
     35  CA       -47.7560  -52.9680   17.3920 C.3   309  PHE309      0.1771
     36  C        -47.6350  -51.6910   16.5730 C.2   309  PHE309      0.2619
     37  O        -46.5270  -51.2800   16.2110 O.2   309  PHE309     -0.2715
     38  CB       -48.1670  -54.1320   16.4840 C.3   309  PHE309      0.0574
     39  CG       -47.4500  -55.4290   16.7710 C.ar  309  PHE309     -0.0200
     40  CD1      -46.9800  -55.7300   18.0390 C.ar  309  PHE309     -0.0042
     41  CD2      -47.2470  -56.3480   15.7540 C.ar  309  PHE309     -0.0042
     42  CE1      -46.3230  -56.9240   18.2840 C.ar  309  PHE309     -0.0003
     43  CE2      -46.5930  -57.5400   15.9930 C.ar  309  PHE309     -0.0003
     44  CZ       -46.1300  -57.8280   17.2590 C.ar  309  PHE309     -0.0000
     45  N        -48.7630  -51.0430   16.2790 N.am  310  ALA310     -0.1977
     46  CA       -48.7400  -49.8640   15.4200 C.3   310  ALA310      0.1597
     47  C        -48.0590  -48.6910   16.1130 C.2   310  ALA310      0.2287
     48  O        -47.2060  -48.0180   15.5220 O.2   310  ALA310     -0.2864
     49  CB       -50.1630  -49.4940   15.0050 C.3   310  ALA310      0.0319
     50  N        -45.0640  -60.4720   19.7590 N.3   333  ASP333     -0.1239
     51  CA       -46.1540  -60.7100   20.7040 C.3   333  ASP333      0.1674
     52  C        -45.9800  -62.1530   21.1670 C.2   333  ASP333      0.2266
     53  O        -46.3780  -63.0890   20.4670 O.2   333  ASP333     -0.2867
     54  CB       -47.5200  -60.4780   20.0610 C.3   333  ASP333      0.1410
     55  CG       -48.6370  -60.3710   21.0830 C.2   333  ASP333      0.3668
     56  OD1      -48.6090  -61.1230   22.0800 O.co2 333  ASP333     -0.2456
     57  OD2      -49.5500  -59.5390   20.8840 O.co2 333  ASP333     -0.2456
     58  N        -49.2840  -64.3310   21.7600 N.3   336  LYS336     -0.1245
     59  CA       -49.9610  -64.5440   20.4880 C.3   336  LYS336      0.1561
     60  C        -49.0860  -65.2530   19.4600 C.2   336  LYS336      0.2260
     61  O        -49.5980  -65.6620   18.4120 O.2   336  LYS336     -0.2867
     62  CB       -50.4150  -63.1950   19.9300 C.3   336  LYS336      0.0271
     63  CG       -51.6800  -63.2340   19.1050 C.3   336  LYS336      0.0035
     64  CD       -51.9560  -61.8640   18.5100 C.3   336  LYS336      0.0206
     65  CE       -52.6950  -61.9540   17.1870 C.3   336  LYS336      0.1093
     66  NZ       -52.5470  -60.6930   16.4100 N.3   336  LYS336     -0.1314
     67  N        -46.7440  -63.9370   17.5700 N.3   338  GLN338     -0.1245
     68  CA       -46.5060  -63.0940   16.4070 C.3   338  GLN338      0.1566
     69  C        -45.0670  -62.5900   16.4090 C.2   338  GLN338      0.2260
     70  O        -44.5340  -62.1980   17.4510 O.2   338  GLN338     -0.2867
     71  CB       -47.4770  -61.9110   16.3880 C.3   338  GLN338      0.0367
     72  CG       -47.2480  -60.9350   15.2400 C.3   338  GLN338      0.0905
     73  CD       -47.3370  -61.5880   13.8710 C.2   338  GLN338      0.2608
     74  OE1      -46.4460  -62.3360   13.4620 O.2   338  GLN338     -0.2717
     75  NE2      -48.4020  -61.2770   13.1390 N.am  338  GLN338     -0.0878
     76  N        -42.7400  -60.2430   13.7020 N.3   340  GLU340     -0.1245
     77  CA       -42.6310  -59.4650   12.4750 C.3   340  GLU340      0.1567
     78  C        -41.3050  -58.7160   12.4440 C.2   340  GLU340      0.2260
     79  O        -40.8990  -58.1150   13.4430 O.2   340  GLU340     -0.2867
     80  CB       -43.7880  -58.4660   12.3510 C.3   340  GLU340      0.0388
     81  CG       -45.1510  -59.1060   12.1220 C.3   340  GLU340      0.1160
     82  CD       -46.2820  -58.0900   12.1420 C.2   340  GLU340      0.3649
     83  OE1      -45.9950  -56.8740   12.0860 O.co2 340  GLU340     -0.2457
     84  OE2      -47.4580  -58.5060   12.2170 O.co2 340  GLU340     -0.2457
@<TRIPOS>BOND
     1    16    15    2
     2    18    17    1
     3    18    19    1
     4    15    14    1
     5    17    14    1
     6    19    13    1
     7    14    13    1
     8    13     3   am
     9     3     4    2
    10     3     2    1
    11     1     2    1
    12     2     5    1
    13     5     6    1
    14     6     8   ar
    15     6     7   ar
    16     8    10   ar
    17     7     9   ar
    18    83    82   ar
    19    81    82    1
    20    81    80    1
    21    10    11   ar
    22     9    11   ar
    23    82    84   ar
    24    11    12    1
    25    80    77    1
    26    78    77    1
    27    78    79    2
    28    77    76    1
    29    75    73   am
    30    74    73    2
    31    73    72    1
    32    49    46    1
    33    72    71    1
    34    46    47    1
    35    46    45    1
    36    48    47    2
    37    41    43   ar
    38    41    39   ar
    39    43    44   ar
    40    37    36    2
    41    45    36   am
    42    71    68    1
    43    68    69    1
    44    68    67    1
    45    69    70    2
    46    66    65    1
    47    38    39    1
    48    38    35    1
    49    36    35    1
    50    39    40   ar
    51    65    64    1
    52    44    42   ar
    53    35    34    1
    54    40    42   ar
    55    61    60    2
    56    34    30   am
    57    64    63    1
    58    33    32    1
    59    63    62    1
    60    30    31    2
    61    30    29    1
    62    60    59    1
    63    32    29    1
    64    50    51    1
    65    62    59    1
    66    54    51    1
    67    54    55    1
    68    29    28    1
    69    53    52    2
    70    59    58    1
    71    51    52    1
    72    57    55   ar
    73    55    56   ar
    74    26    25    1
    75    27    25    1
    76    25    24    1
    77    24    21    1
    78    21    22    1
    79    21    20    1
    80    22    23    2
