@<TRIPOS>MOLECULE
tmp/5u84A07.pdb
 168 164 0 0 0
SMALL
GASTEIGER

@<TRIPOS>ATOM
      1  N        -22.1210   -8.4820   15.2940 N.3    79  PHE79      -0.1241
      2  CA       -20.6800   -8.5950   15.1380 C.3    79  PHE79       0.1605
      3  C        -20.0250   -7.2290   15.3260 C.2    79  PHE79       0.2264
      4  O        -20.6000   -6.2060   14.9400 O.2    79  PHE79      -0.2867
      5  CB       -20.3220   -9.1240   13.7480 C.3    79  PHE79       0.0534
      6  CG       -20.7980  -10.5200   13.4800 C.ar   79  PHE79      -0.0203
      7  CD1      -20.2320  -11.6070   14.1230 C.ar   79  PHE79      -0.0042
      8  CD2      -21.8070  -10.7430   12.5620 C.ar   79  PHE79      -0.0042
      9  CE1      -20.6790  -12.8910   13.8600 C.ar   79  PHE79      -0.0003
     10  CE2      -22.2580  -12.0170   12.2960 C.ar   79  PHE79      -0.0003
     11  CZ       -21.6930  -13.0940   12.9440 C.ar   79  PHE79      -0.0000
     12  N        -18.5560  -19.4380    9.8720 N.3   105  ASN105     -0.1225
     13  CA       -17.7590  -18.8160   10.9220 C.3   105  ASN105      0.1785
     14  C        -18.3540  -19.0490   12.3050 C.2   105  ASN105      0.2597
     15  O        -17.6180  -19.0610   13.2970 O.2   105  ASN105     -0.2718
     16  CB       -17.6150  -17.3210   10.6430 C.3   105  ASN105      0.1169
     17  CG       -16.4670  -17.0150    9.7050 C.2   105  ASN105      0.2627
     18  OD1      -15.3500  -16.7480   10.1480 O.2   105  ASN105     -0.2716
     19  ND2      -16.7260  -17.0780    8.4020 N.am  105  ASN105     -0.0877
     20  N        -19.6710  -19.2320   12.3960 N.am  106  ILE106     -0.1980
     21  CA       -20.3000  -19.4380   13.6970 C.3   106  ILE106      0.1595
     22  C        -20.1260  -20.8770   14.1680 C.2   106  ILE106      0.2287
     23  O        -19.8500  -21.1250   15.3470 O.2   106  ILE106     -0.2864
     24  CB       -21.7870  -19.0410   13.6360 C.3   106  ILE106      0.0276
     25  CG1      -21.9250  -17.5180   13.5970 C.3   106  ILE106      0.0022
     26  CG2      -22.5540  -19.6260   14.8190 C.3   106  ILE106      0.0022
     27  CD1      -23.3430  -17.0360   13.3480 C.3   106  ILE106      0.0001
     28  N        -16.4120  -24.2850   15.0080 N.3   109  GLU109     -0.1231
     29  CA       -15.8090  -24.8430   16.2150 C.3   109  GLU109      0.1699
     30  C        -16.4200  -26.1890   16.5790 C.2   109  GLU109      0.2592
     31  O        -15.7200  -27.0900   17.0550 O.2   109  GLU109     -0.2718
     32  CB       -15.9730  -23.8650   17.3730 C.3   109  GLU109      0.0402
     33  CG       -15.3850  -22.5030   17.1040 C.3   109  GLU109      0.1161
     34  CD       -15.4870  -21.6010   18.3030 C.2   109  GLU109      0.3649
     35  OE1      -16.1120  -22.0310   19.2900 O.co2 109  GLU109     -0.2457
     36  OE2      -14.9620  -20.4680   18.2590 O.co2 109  GLU109     -0.2457
     37  N        -17.7280  -26.3410   16.3760 N.am  110  PHE110     -0.1976
     38  CA       -18.4170  -27.5530   16.7970 C.3   110  PHE110      0.1639
     39  C        -18.0210  -28.7730   15.9790 C.2   110  PHE110      0.2290
     40  O        -18.4570  -29.8810   16.3070 O.2   110  PHE110     -0.2864
     41  CB       -19.9250  -27.3330   16.7110 C.3   110  PHE110      0.0560
     42  CG       -20.4160  -26.2090   17.5730 C.ar  110  PHE110     -0.0200
     43  CD1      -20.5160  -26.3660   18.9440 C.ar  110  PHE110     -0.0042
     44  CD2      -20.7590  -24.9900   17.0160 C.ar  110  PHE110     -0.0042
     45  CE1      -20.9620  -25.3330   19.7420 C.ar  110  PHE110     -0.0003
     46  CE2      -21.2040  -23.9520   17.8100 C.ar  110  PHE110     -0.0003
     47  CZ       -21.3050  -24.1250   19.1750 C.ar  110  PHE110     -0.0000
     48  N        -12.3690  -18.5350    7.3600 N.3   178  TYR178     -0.1227
     49  CA       -12.6560  -18.4440    8.7870 C.3   178  TYR178      0.1736
     50  C        -11.8720  -17.2560    9.3380 C.2   178  TYR178      0.2595
     51  O        -10.6380  -17.2920    9.3930 O.2   178  TYR178     -0.2718
     52  CB       -12.2690  -19.7460    9.4880 C.3   178  TYR178      0.0548
     53  CG       -12.6860  -19.8350   10.9380 C.ar  178  TYR178     -0.0200
     54  CD1      -13.9890  -19.5600   11.3240 C.ar  178  TYR178     -0.0009
     55  CD2      -11.7790  -20.2110   11.9200 C.ar  178  TYR178     -0.0009
     56  CE1      -14.3770  -19.6470   12.6450 C.ar  178  TYR178      0.0417
     57  CE2      -12.1570  -20.3000   13.2440 C.ar  178  TYR178      0.0417
     58  CZ       -13.4590  -20.0170   13.6010 C.ar  178  TYR178      0.1957
     59  OH       -13.8460  -20.1030   14.9190 O.3   178  TYR178     -0.2866
     60  N        -12.5850  -16.1940    9.7290 N.am  179  VAL179     -0.1966
     61  CA       -11.9180  -14.9890   10.2180 C.3   179  VAL179      0.1727
     62  C        -11.5260  -15.0990   11.6800 C.2   179  VAL179      0.2616
     63  O        -10.7560  -14.2640   12.1710 O.2   179  VAL179     -0.2715
     64  CB       -12.7940  -13.7370   10.0150 C.3   179  VAL179      0.0290
     65  CG1      -13.3190  -13.6860    8.5900 C.3   179  VAL179      0.0023
     66  CG2      -13.9400  -13.6980   11.0150 C.3   179  VAL179      0.0023
     67  N        -12.0500  -16.0940   12.3950 N.am  180  GLY180     -0.1955
     68  CA       -11.5870  -16.3970   13.7300 C.3   180  GLY180      0.1869
     69  C        -10.4150  -17.3590   13.6980 C.2   180  GLY180      0.2309
     70  O         -9.9110  -17.7450   12.6430 O.2   180  GLY180     -0.2863
     71  N         -7.7430  -23.3590   21.5650 N.3   194  LEU194     -0.1245
     72  CA        -9.1110  -23.5800   22.0120 C.3   194  LEU194      0.1561
     73  C         -9.5400  -24.9930   21.6550 C.2   194  LEU194      0.2260
     74  O         -9.4070  -25.4150   20.5020 O.2   194  LEU194     -0.2867
     75  CB       -10.0650  -22.5590   21.3830 C.3   194  LEU194      0.0270
     76  CG       -11.5070  -22.5350   21.8980 C.3   194  LEU194      0.0019
     77  CD1      -12.1370  -21.1920   21.5970 C.3   194  LEU194      0.0001
     78  CD2      -12.3600  -23.6410   21.2790 C.3   194  LEU194      0.0001
     79  N        -12.9500  -27.5660   21.8630 N.3   196  GLU196     -0.1245
     80  CA       -14.3910  -27.5360   22.0470 C.3   196  GLU196      0.1567
     81  C        -14.7830  -28.3840   23.2510 C.2   196  GLU196      0.2260
     82  O        -14.2010  -29.4420   23.5050 O.2   196  GLU196     -0.2867
     83  CB       -15.1030  -28.0360   20.7880 C.3   196  GLU196      0.0388
     84  CG       -16.5270  -27.5120   20.6310 C.3   196  GLU196      0.1160
     85  CD       -16.6080  -25.9920   20.6920 C.2   196  GLU196      0.3649
     86  OE1      -15.6200  -25.3250   20.3150 O.co2 196  GLU196     -0.2457
     87  OE2      -17.6540  -25.4660   21.1310 O.co2 196  GLU196     -0.2457
     88  N        -26.0690  -21.4130   21.0090 N.3   204  VAL204     -0.1245
     89  CA       -25.8310  -20.6920   19.7600 C.3   204  VAL204      0.1561
     90  C        -27.1220  -20.6020   18.9600 C.2   204  VAL204      0.2260
     91  O        -27.5550  -19.5150   18.5620 O.2   204  VAL204     -0.2867
     92  CB       -24.7080  -21.3700   18.9540 C.3   204  VAL204      0.0252
     93  CG1      -24.6030  -20.7740   17.5570 C.3   204  VAL204      0.0019
     94  CG2      -23.3830  -21.2130   19.6770 C.3   204  VAL204      0.0019
     95  N        -29.3030  -18.3730   20.5780 N.3   207  TRP207     -0.1241
     96  CA       -28.7650  -17.0270   20.4050 C.3   207  TRP207      0.1605
     97  C        -28.9920  -16.4910   18.9960 C.2   207  TRP207      0.2264
     98  O        -29.2690  -15.2980   18.8260 O.2   207  TRP207     -0.2867
     99  CB       -27.2780  -17.0190   20.7630 C.3   207  TRP207      0.0550
    100  CG       -26.5440  -15.7850   20.3290 C.ar  207  TRP207      0.0003
    101  CD1      -26.5090  -14.5770   20.9620 C.ar  207  TRP207      0.0946
    102  CD2      -25.7000  -15.6580   19.1760 C.ar  207  TRP207      0.0152
    103  NE1      -25.7120  -13.6990   20.2630 N.ar  207  TRP207     -0.2442
    104  CE2      -25.2010  -14.3410   19.1650 C.ar  207  TRP207      0.0810
    105  CE3      -25.3230  -16.5310   18.1500 C.ar  207  TRP207      0.0012
    106  CZ2      -24.3470  -13.8750   18.1650 C.ar  207  TRP207      0.0191
    107  CZ3      -24.4770  -16.0660   17.1590 C.ar  207  TRP207      0.0001
    108  CH2      -23.9980  -14.7510   17.1750 C.ar  207  TRP207      0.0015
    109  N        -13.3280  -14.2350   20.1690 N.3   209  ILE209     -0.1231
    110  CA       -12.7170  -13.8250   21.4240 C.3   209  ILE209      0.1692
    111  C        -11.2240  -14.1090   21.3300 C.2   209  ILE209      0.2591
    112  O        -10.4000  -13.2780   21.7120 O.2   209  ILE209     -0.2718
    113  CB       -13.3620  -14.5490   22.6320 C.3   209  ILE209      0.0266
    114  CG1      -13.1760  -13.7370   23.9090 C.3   209  ILE209      0.0019
    115  CG2      -12.7380  -15.9160   22.8670 C.3   209  ILE209      0.0020
    116  CD1      -14.1100  -12.5540   24.0080 C.3   209  ILE209      0.0001
    117  N        -10.8830  -15.2940   20.8110 N.am  210  ILE210     -0.1980
    118  CA        -9.4790  -15.6480   20.6370 C.3   210  ILE210      0.1595
    119  C         -8.7890  -14.5980   19.7840 C.2   210  ILE210      0.2287
    120  O         -7.6620  -14.1780   20.0700 O.2   210  ILE210     -0.2864
    121  CB        -9.3460  -17.0530   20.0170 C.3   210  ILE210      0.0276
    122  CG1      -10.0870  -18.1010   20.8590 C.3   210  ILE210      0.0022
    123  CG2       -7.8730  -17.4300   19.8670 C.3   210  ILE210      0.0022
    124  CD1       -9.4600  -18.3850   22.2140 C.3   210  ILE210      0.0001
    125  N        -18.9320  -16.0980   26.7930 N.3   232  ILE232     -0.1231
    126  CA       -18.6390  -16.7530   25.5270 C.3   232  ILE232      0.1692
    127  C        -19.8850  -17.4950   25.0630 C.2   232  ILE232      0.2592
    128  O        -20.7930  -17.7880   25.8430 O.2   232  ILE232     -0.2718
    129  CB       -17.4290  -17.7120   25.6210 C.3   232  ILE232      0.0266
    130  CG1      -17.6640  -18.7900   26.6820 C.3   232  ILE232      0.0019
    131  CG2      -16.1650  -16.9150   25.9240 C.3   232  ILE232      0.0020
    132  CD1      -16.5110  -19.7730   26.8340 C.3   232  ILE232      0.0001
    133  N        -19.9250  -17.7820   23.7620 N.am  233  LEU233     -0.1966
    134  CA       -21.1380  -18.3210   23.1560 C.3   233  LEU233      0.1728
    135  C        -21.3810  -19.7710   23.5630 C.2   233  LEU233      0.2616
    136  O        -22.5350  -20.1890   23.7190 O.2   233  LEU233     -0.2715
    137  CB       -21.0460  -18.1920   21.6360 C.3   233  LEU233      0.0311
    138  CG       -21.4970  -16.8380   21.0780 C.3   233  LEU233      0.0022
    139  CD1      -21.1430  -16.7260   19.6030 C.3   233  LEU233      0.0001
    140  CD2      -22.9920  -16.6170   21.2840 C.3   233  LEU233      0.0001
    141  N        -20.3240  -20.5560   23.7200 N.am  234  ALA234     -0.1964
    142  CA       -20.4460  -21.9630   24.0670 C.3   234  ALA234      0.1713
    143  C        -19.3140  -22.3460   25.0060 C.2   234  ALA234      0.2458
    144  O        -18.2640  -21.6950   25.0190 O.2   234  ALA234     -0.2730
    145  CB       -20.4190  -22.8570   22.8200 C.3   234  ALA234      0.0333
    146  N        -19.4960  -23.4000   25.8030 N.am  235  PRO235     -0.2716
    147  CA       -18.3980  -23.8650   26.6580 C.3   235  PRO235      0.1536
    148  C        -17.1780  -24.2440   25.8340 C.2   235  PRO235      0.2598
    149  O        -17.2790  -24.6220   24.6650 O.2   235  PRO235     -0.2715
    150  CB       -18.9960  -25.0820   27.3750 C.3   235  PRO235      0.0310
    151  CG       -20.1120  -25.5270   26.5030 C.3   235  PRO235      0.0237
    152  CD       -20.6800  -24.2660   25.9280 C.3   235  PRO235      0.0939
    153  N        -16.0110  -24.1320   26.4620 N.am  236  ALA236     -0.1978
    154  CA       -14.7530  -24.3870   25.7780 C.3   236  ALA236      0.1597
    155  C        -13.6760  -24.6580   26.8160 C.2   236  ALA236      0.2287
    156  O        -13.8580  -24.4120   28.0110 O.2   236  ALA236     -0.2864
    157  CB       -14.3590  -23.2070   24.8850 C.3   236  ALA236      0.0319
    158  N         -9.7660  -23.3930   27.2830 N.3   238  PHE238     -0.1241
    159  CA        -8.7150  -22.4870   26.8350 C.3   238  PHE238      0.1605
    160  C         -7.3910  -22.9880   27.3910 C.2   238  PHE238      0.2264
    161  O         -7.2410  -23.1280   28.6100 O.2   238  PHE238     -0.2867
    162  CB        -8.9630  -21.0530   27.2990 C.3   238  PHE238      0.0534
    163  CG       -10.1970  -20.4250   26.7270 C.ar  238  PHE238     -0.0203
    164  CD1      -10.5030  -20.5470   25.3860 C.ar  238  PHE238     -0.0042
    165  CD2      -11.0480  -19.6960   27.5380 C.ar  238  PHE238     -0.0042
    166  CE1      -11.6420  -19.9610   24.8690 C.ar  238  PHE238     -0.0003
    167  CE2      -12.1830  -19.1100   27.0260 C.ar  238  PHE238     -0.0003
    168  CZ       -12.4810  -19.2420   25.6910 C.ar  238  PHE238     -0.0000
@<TRIPOS>BOND
     1    48    49    1
     2    19    17   am
     3    65    64    1
     4    49    50    1
     5    49    52    1
     6    50    51    2
     7    50    60   am
     8    52    53    1
     9    17    18    2
    10    17    16    1
    11    60    61    1
    12    12    13    1
    13    64    61    1
    14    64    66    1
    15    61    62    1
    16    16    13    1
    17    13    14    1
    18    53    54   ar
    19    53    55   ar
    20    54    56   ar
    21    62    63    2
    22    62    67   am
    23    55    57   ar
    24    10     8   ar
    25    10    11   ar
    26    14    20   am
    27    14    15    2
    28    67    68    1
    29    20    21    1
    30     8     6   ar
    31    70    69    2
    32    56    58   ar
    33    11     9   ar
    34    57    58   ar
    35    27    25    1
    36     6     5    1
    37     6     7   ar
    38    25    24    1
    39    58    59    1
    40    24    21    1
    41    24    26    1
    42    21    22    1
    43    69    68    1
    44     5     2    1
    45     9     7   ar
    46    22    23    2
    47     4     3    2
    48    28    29    1
    49     2     1    1
    50     2     3    1
    51    39    40    2
    52    39    38    1
    53    29    30    1
    54    29    32    1
    55    37    30   am
    56    37    38    1
    57    30    31    2
    58    41    38    1
    59    41    42    1
    60    44    42   ar
    61    44    46   ar
    62    33    32    1
    63    33    34    1
    64   107   108   ar
    65   107   105   ar
    66   108   106   ar
    67    93    92    1
    68    42    43   ar
    69    46    47   ar
    70   105   102   ar
    71   106   104   ar
    72    36    34   ar
    73    34    35   ar
    74    91    90    2
    75    98    97    2
    76    43    45   ar
    77    92    94    1
    78    92    89    1
    79    90    89    1
    80    97    96    1
    81   104   102   ar
    82   104   103   ar
    83    47    45   ar
    84   102   100   ar
    85   139   138    1
    86    89    88    1
    87   119   120    2
    88   119   118    1
    89   123   121    1
    90   121   118    1
    91   121   122    1
    92   109   110    1
    93   103   101   ar
    94    86    85   ar
    95   100    99    1
    96   100   101   ar
    97    96    95    1
    98    96    99    1
    99    74    73    2
   100    84    85    1
   101    84    83    1
   102   118   117    1
   103    85    87   ar
   104    83    80    1
   105   117   111   am
   106   122   124    1
   107   138   140    1
   108   138   137    1
   109    78    76    1
   110   111   110    1
   111   111   112    2
   112    75    76    1
   113    75    72    1
   114   110   113    1
   115    71    72    1
   116    77    76    1
   117   137   134    1
   118    73    72    1
   119    79    80    1
   120    80    81    1
   121   113   115    1
   122   113   114    1
   123   145   142    1
   124   134   135    1
   125   134   133    1
   126    81    82    2
   127   135   136    2
   128   135   141   am
   129   141   142    1
   130   133   127   am
   131   114   116    1
   132   142   143    1
   133   149   148    2
   134   166   164   ar
   135   166   168   ar
   136   157   154    1
   137   143   144    2
   138   143   146   am
   139   127   126    1
   140   127   128    2
   141   164   163   ar
   142   126   129    1
   143   126   125    1
   144   129   131    1
   145   129   130    1
   146   168   167   ar
   147   154   153    1
   148   154   155    1
   149   146   152    1
   150   146   147    1
   151   148   153   am
   152   148   147    1
   153   152   151    1
   154   151   150    1
   155   147   150    1
   156   130   132    1
   157   163   162    1
   158   163   165   ar
   159   155   156    2
   160   159   158    1
   161   159   162    1
   162   159   160    1
   163   167   165   ar
   164   160   161    2
