@<TRIPOS>MOLECULE
tmp/5u8aA00.pdb
 138 129 0 0 0
SMALL
GASTEIGER

@<TRIPOS>ATOM
      1  N        -12.4050  -19.6280   31.4160 N.3    14  PRO14      -0.2116
      2  CA       -11.4820  -20.4700   30.6790 C.3    14  PRO14       0.1372
      3  C        -10.7420  -19.7360   29.5780 C.2    14  PRO14       0.2244
      4  O        -11.3110  -18.8780   28.8860 O.2    14  PRO14      -0.2868
      5  CB       -12.3740  -21.5530   30.0870 C.3    14  PRO14       0.0268
      6  CG       -13.5150  -21.6370   31.0350 C.3    14  PRO14       0.0207
      7  CD       -13.7590  -20.2140   31.4590 C.3    14  PRO14       0.0892
      8  N         -9.4840  -20.4830   26.1850 N.3    16  PHE16      -0.1241
      9  CA        -9.7550  -21.5150   25.2080 C.3    16  PHE16       0.1605
     10  C         -8.6390  -21.6600   24.2200 C.2    16  PHE16       0.2264
     11  O         -8.4710  -22.7460   23.6560 O.2    16  PHE16      -0.2867
     12  CB       -11.0620  -21.2470   24.4830 C.3    16  PHE16       0.0534
     13  CG       -12.2630  -21.4180   25.3460 C.ar   16  PHE16      -0.0203
     14  CD1      -12.4860  -22.6230   26.0220 C.ar   16  PHE16      -0.0042
     15  CD2      -13.1530  -20.3930   25.5180 C.ar   16  PHE16      -0.0042
     16  CE1      -13.6090  -22.7940   26.8150 C.ar   16  PHE16      -0.0003
     17  CE2      -14.2820  -20.5640   26.3050 C.ar   16  PHE16      -0.0003
     18  CZ       -14.4930  -21.7570   26.9650 C.ar   16  PHE16      -0.0000
     19  N        -17.7840  -14.3610   23.7840 N.3    65  ASN65      -0.1240
     20  CA       -16.8210  -15.2940   24.3420 C.3    65  ASN65       0.1653
     21  C        -15.9490  -15.7120   23.1750 C.2    65  ASN65       0.2266
     22  O        -16.4240  -16.4220   22.2960 O.2    65  ASN65      -0.2867
     23  CB       -17.5330  -16.5160   24.9510 C.3    65  ASN65       0.1155
     24  CG       -16.6800  -17.3100   25.9400 C.2    65  ASN65       0.2627
     25  OD1      -17.2150  -18.2180   26.5830 O.2    65  ASN65      -0.2716
     26  ND2      -15.3830  -16.9880   26.0870 N.am   65  ASN65      -0.0877
     27  N        -13.3370  -17.8770   21.2650 N.3    67  TYR67      -0.1241
     28  CA       -12.9630  -19.2870   21.3420 C.3    67  TYR67       0.1605
     29  C        -11.6700  -19.6570   20.6120 C.2    67  TYR67       0.2264
     30  O        -11.1260  -20.7540   20.8280 O.2    67  TYR67      -0.2867
     31  CB       -14.0640  -20.1430   20.7180 C.3    67  TYR67       0.0534
     32  CG       -15.4310  -20.1150   21.3720 C.ar   67  TYR67      -0.0201
     33  CD1      -15.5900  -19.9060   22.7320 C.ar   67  TYR67      -0.0009
     34  CD2      -16.5690  -20.3880   20.6200 C.ar   67  TYR67      -0.0009
     35  CE1      -16.8600  -19.9420   23.3070 C.ar   67  TYR67       0.0417
     36  CE2      -17.8240  -20.4180   21.1850 C.ar   67  TYR67       0.0417
     37  CZ       -17.9570  -20.2050   22.5360 C.ar   67  TYR67       0.1957
     38  OH       -19.2050  -20.2520   23.1240 O.3    67  TYR67      -0.2866
     39  N        -15.9290  -21.8310   16.0740 N.3   113  ASN113     -0.1240
     40  CA       -15.1550  -22.6660   17.0020 C.3   113  ASN113      0.1653
     41  C        -13.6620  -22.7120   16.7060 C.2   113  ASN113      0.2266
     42  O        -12.8750  -23.0220   17.6000 O.2   113  ASN113     -0.2867
     43  CB       -15.7390  -24.0750   16.9910 C.3   113  ASN113      0.1155
     44  CG       -17.1330  -24.1240   17.5970 C.2   113  ASN113      0.2627
     45  OD1      -17.4050  -23.4180   18.5600 O.2   113  ASN113     -0.2716
     46  ND2      -18.0260  -24.9490   17.0270 N.am  113  ASN113     -0.0877
     47  N        -20.5710  -23.5400   14.5420 N.3   130  LYS130     -0.1245
     48  CA       -21.7210  -24.1540   15.1760 C.3   130  LYS130      0.1561
     49  C        -22.8730  -24.4210   14.2160 C.2   130  LYS130      0.2260
     50  O        -23.6600  -25.3310   14.4720 O.2   130  LYS130     -0.2867
     51  CB       -22.1750  -23.2440   16.3190 C.3   130  LYS130      0.0271
     52  CG       -23.4500  -23.6510   17.0290 C.3   130  LYS130      0.0035
     53  CD       -23.5280  -22.9700   18.3800 C.3   130  LYS130      0.0206
     54  CE       -24.8380  -23.3290   19.0540 C.3   130  LYS130      0.1093
     55  NZ       -24.8520  -22.8130   20.4450 N.3   130  LYS130     -0.1314
     56  N        -22.2820  -29.2970   14.9560 N.3   157  GLU157     -0.1245
     57  CA       -21.2240  -28.2910   15.0280 C.3   157  GLU157      0.1567
     58  C        -19.9040  -28.8120   14.4860 C.2   157  GLU157      0.2260
     59  O        -19.4960  -29.9320   14.7910 O.2   157  GLU157     -0.2867
     60  CB       -20.9600  -27.8400   16.4550 C.3   157  GLU157      0.0388
     61  CG       -22.1450  -27.2480   17.1810 C.3   157  GLU157      0.1160
     62  CD       -21.7550  -26.3200   18.3360 C.2   157  GLU157      0.3649
     63  OE1      -20.7140  -25.5990   18.2830 O.co2 157  GLU157     -0.2457
     64  OE2      -22.5330  -26.2770   19.2980 O.co2 157  GLU157     -0.2457
     65  N        -16.0370  -28.5410   14.8650 N.3   159  LEU159     -0.1245
     66  CA       -15.1610  -28.1860   15.9840 C.3   159  LEU159      0.1561
     67  C        -13.7340  -27.8280   15.6110 C.2   159  LEU159      0.2260
     68  O        -13.1070  -27.0370   16.3070 O.2   159  LEU159     -0.2867
     69  CB       -15.1360  -29.3120   17.0190 C.3   159  LEU159      0.0270
     70  CG       -16.4820  -29.6630   17.6470 C.3   159  LEU159      0.0019
     71  CD1      -16.3240  -30.8580   18.5810 C.3   159  LEU159      0.0001
     72  CD2      -17.0970  -28.4930   18.4060 C.3   159  LEU159      0.0001
     73  N        -18.9920  -32.5720   15.9810 N.3   175  MET175     -0.1245
     74  CA       -19.9110  -33.2360   16.8970 C.3   175  MET175      0.1570
     75  C        -20.6730  -34.3820   16.2690 C.2   175  MET175      0.2261
     76  O        -21.2550  -35.1830   16.9930 O.2   175  MET175     -0.2867
     77  CB       -20.9390  -32.2760   17.4300 C.3   175  MET175      0.0387
     78  CG       -20.4240  -31.3760   18.4770 C.3   175  MET175      0.0595
     79  SD       -21.8330  -30.4370   19.0810 S.3   175  MET175     -0.1393
     80  CE       -20.7520  -29.2650   19.7890 C.3   175  MET175      0.0692
     81  N        -12.8180  -33.3820   18.2310 N.3   229  ASP229     -0.1239
     82  CA       -12.6020  -31.9650   18.6080 C.3   229  ASP229      0.1674
     83  C        -11.2780  -31.3310   18.1900 C.2   229  ASP229      0.2266
     84  O        -11.0480  -30.1470   18.4520 O.2   229  ASP229     -0.2867
     85  CB       -12.9030  -31.7300   20.0950 C.3   229  ASP229      0.1410
     86  CG       -12.0740  -32.5880   21.0270 C.2   229  ASP229      0.3668
     87  OD1      -11.3890  -33.5290   20.5560 O.co2 229  ASP229     -0.2456
     88  OD2      -12.1460  -32.3490   22.2620 O.co2 229  ASP229     -0.2456
     89  N        -13.7580  -31.0110   24.2280 N.3   284  TYR284     -0.1227
     90  CA       -13.2030  -29.6940   23.8380 C.3   284  TYR284      0.1736
     91  C        -11.7940  -29.4630   24.4000 C.2   284  TYR284      0.2595
     92  O        -11.5450  -28.5250   25.1610 O.2   284  TYR284     -0.2718
     93  CB       -14.1670  -28.5370   24.1790 C.3   284  TYR284      0.0548
     94  CG       -15.6100  -28.8260   23.8220 C.ar  284  TYR284     -0.0200
     95  CD1      -15.9570  -29.2910   22.5550 C.ar  284  TYR284     -0.0009
     96  CD2      -16.6320  -28.6710   24.7690 C.ar  284  TYR284     -0.0009
     97  CE1      -17.2710  -29.5970   22.2400 C.ar  284  TYR284      0.0417
     98  CE2      -17.9570  -28.9600   24.4440 C.ar  284  TYR284      0.0417
     99  CZ       -18.2660  -29.4300   23.1870 C.ar  284  TYR284      0.1957
    100  OH       -19.5680  -29.7350   22.8370 O.3   284  TYR284     -0.2866
    101  N        -10.8590  -30.2960   23.9570 N.am  285  MET285     -0.1965
    102  CA        -9.4560  -30.2130   24.3760 C.3   285  MET285      0.1736
    103  C         -8.6130  -30.3420   23.1160 C.2   285  MET285      0.2616
    104  O         -8.7850  -31.3020   22.3650 O.2   285  MET285     -0.2715
    105  CB        -9.1290  -31.3440   25.3550 C.3   285  MET285      0.0427
    106  CG       -10.0070  -31.3550   26.5990 C.3   285  MET285      0.0599
    107  SD        -9.5360  -30.0700   27.7750 S.3   285  MET285     -0.1393
    108  CE        -8.2110  -30.9100   28.6470 C.3   285  MET285      0.0692
    109  N         -7.7390  -29.3750   22.8540 N.am  286  ARG286     -0.1977
    110  CA        -6.9750  -29.3450   21.6000 C.3   286  ARG286      0.1597
    111  C         -5.5520  -29.7910   21.7870 C.2   286  ARG286      0.2287
    112  O         -4.9410  -29.5020   22.8130 O.2   286  ARG286     -0.2864
    113  CB        -6.9550  -27.9350   21.0360 C.3   286  ARG286      0.0334
    114  CG        -8.3260  -27.3820   20.7180 C.3   286  ARG286      0.0492
    115  CD        -8.2240  -25.8950   20.4190 C.3   286  ARG286      0.2205
    116  NE        -9.4830  -25.3420   19.9190 N.pl3 286  ARG286     -0.0865
    117  CZ        -9.9910  -24.1180   20.1590 C.cat 286  ARG286      0.5346
    118  NH1       -9.4090  -23.2250   20.9590 N.pl3 286  ARG286      0.1354
    119  NH2      -11.1340  -23.7780   19.5800 N.pl3 286  ARG286      0.1354
    120  N         -6.7480  -26.4590   27.9620 N.3   333  ARG333     -0.1245
    121  CA        -7.5670  -26.4530   26.7430 C.3   333  ARG333      0.1563
    122  C         -6.7430  -26.4260   25.4550 C.2   333  ARG333      0.2260
    123  O         -7.1400  -27.0220   24.4480 O.2   333  ARG333     -0.2867
    124  CB        -8.5130  -25.2520   26.7460 C.3   333  ARG333      0.0307
    125  CG        -9.5880  -25.3150   27.8150 C.3   333  ARG333      0.0489
    126  CD       -10.6920  -26.2870   27.4490 C.3   333  ARG333      0.2205
    127  NE       -11.5920  -26.4900   28.5850 N.pl3 333  ARG333     -0.0865
    128  CZ       -12.5210  -27.4340   28.6690 C.cat 333  ARG333      0.5346
    129  NH1      -12.7330  -28.2840   27.6650 N.pl3 333  ARG333      0.1354
    130  NH2      -13.2680  -27.5230   29.7720 N.pl3 333  ARG333      0.1354
    131  N         -8.5010  -23.7750   32.1920 N.3   349  ASP349     -0.1239
    132  CA        -9.8780  -23.4330   32.5510 C.3   349  ASP349      0.1674
    133  C        -10.0390  -22.4090   33.6640 C.2   349  ASP349      0.2266
    134  O        -11.0940  -21.7890   33.7500 O.2   349  ASP349     -0.2867
    135  CB       -10.6560  -24.6910   32.9430 C.3   349  ASP349      0.1410
    136  CG       -11.4340  -25.2810   31.7920 C.2   349  ASP349      0.3668
    137  OD1      -11.2800  -24.8440   30.6290 O.co2 349  ASP349     -0.2456
    138  OD2      -12.2140  -26.2030   32.0500 O.co2 349  ASP349     -0.2456
@<TRIPOS>BOND
     1    49    50    2
     2    49    48    1
     3    58    59    2
     4    58    57    1
     5    47    48    1
     6    65    66    1
     7    56    57    1
     8    57    60    1
     9    48    51    1
    10    67    66    1
    11    67    68    2
    12    73    74    1
    13    66    69    1
    14    39    40    1
    15    75    74    1
    16    75    76    2
    17    51    52    1
    18    60    61    1
    19    41    40    1
    20    41    42    2
    21    74    77    1
    22    43    40    1
    23    43    44    1
    24    69    70    1
    25    46    44   am
    26    52    53    1
    27    61    62    1
    28    77    78    1
    29    44    45    2
    30    70    72    1
    31    70    71    1
    32    83    84    2
    33    83    82    1
    34    81    82    1
    35    63    62   ar
    36    62    64   ar
    37    53    54    1
    38    78    79    1
    39    82    85    1
    40    54    55    1
    41    79    80    1
    42   119   117    1
    43   116   117    2
    44   116   115    1
    45    85    86    1
    46   117   118    1
    47   115   114    1
    48    87    86   ar
    49    29    30    2
    50    29    28    1
    51    34    36   ar
    52    34    32   ar
    53    31    28    1
    54    31    32    1
    55   114   113    1
    56    86    88   ar
    57   113   110    1
    58    36    37   ar
    59    27    28    1
    60    32    33   ar
    61   110   111    1
    62   110   109    1
    63   111   112    2
    64    97    95   ar
    65    97    99   ar
    66    22    21    2
    67   104   103    2
    68    37    38    1
    69    37    35   ar
    70    95    94   ar
    71    33    35   ar
    72   100    99    1
    73   109   103   am
    74   103   102    1
    75    21    20    1
    76    99    98   ar
    77    11    10    2
    78    19    20    1
    79    94    93    1
    80    94    96   ar
    81    90    93    1
    82    90    89    1
    83    90    91    1
    84   101   102    1
    85   101    91   am
    86    10     9    1
    87    20    23    1
    88   102   105    1
    89    91    92    2
    90    98    96   ar
    91   123   122    2
    92    12     9    1
    93    12    13    1
    94    23    24    1
    95     9     8    1
    96    13    15   ar
    97    13    14   ar
    98   105   106    1
    99   122   121    1
   100    15    17   ar
   101    24    26   am
   102    24    25    2
   103    14    16   ar
   104    17    18   ar
   105   106   107    1
   106   121   124    1
   107   121   120    1
   108   124   125    1
   109    16    18   ar
   110   126   125    1
   111   126   127    1
   112   129   128    1
   113   107   108    1
   114   127   128    2
   115   128   130    1
   116     4     3    2
   117     3     2    1
   118     5     2    1
   119     5     6    1
   120   137   136   ar
   121     2     1    1
   122     6     7    1
   123     1     7    1
   124   136   138   ar
   125   136   135    1
   126   131   132    1
   127   132   135    1
   128   132   133    1
   129   133   134    2
