@<TRIPOS>MOLECULE
tmp/5u8cB00.pdb
 155 143 0 0 0
SMALL
GASTEIGER

@<TRIPOS>ATOM
      1  N          0.4890   11.7570  -51.7560 N.3    13  GLU13      -0.1245
      2  CA         0.0950   13.0130  -51.1350 C.3    13  GLU13       0.1567
      3  C          0.8510   13.1430  -49.8190 C.2    13  GLU13       0.2260
      4  O          0.3830   12.6730  -48.7780 O.2    13  GLU13      -0.2867
      5  CB        -1.4270   13.0550  -50.9310 C.3    13  GLU13       0.0388
      6  CG        -1.9850   14.4320  -50.6160 C.3    13  GLU13       0.1160
      7  CD        -3.3700   14.6400  -51.2210 C.2    13  GLU13       0.3649
      8  OE1       -4.3660   14.4230  -50.5140 O.co2  13  GLU13      -0.2457
      9  OE2       -3.4610   15.0150  -52.4130 O.co2  13  GLU13      -0.2457
     10  N         -7.6790   11.5460  -58.9450 N.3    84  LYS84      -0.1231
     11  CA        -7.0390   11.6980  -57.6440 C.3    84  LYS84       0.1693
     12  C         -7.8500   10.9770  -56.6120 C.2    84  LYS84       0.2592
     13  O         -7.8180    9.7300  -56.5390 O.2    84  LYS84      -0.2718
     14  CB        -6.8530   13.1890  -57.3090 C.3    84  LYS84       0.0285
     15  CG        -5.7300   13.8930  -58.0600 C.3    84  LYS84       0.0035
     16  CD        -5.7340   15.3870  -57.7620 C.3    84  LYS84       0.0206
     17  CE        -5.2910   15.6840  -56.3370 C.3    84  LYS84       0.1093
     18  NZ        -5.4930   17.1260  -55.9870 N.3    84  LYS84      -0.1314
     19  N         -8.6160   11.6750  -55.7610 N.am   85  HIS85      -0.1976
     20  CA        -9.3620   11.0330  -54.6890 C.3    85  HIS85       0.1656
     21  C        -10.5820   10.3110  -55.2350 C.2    85  HIS85       0.2291
     22  O        -10.8350    9.1480  -54.8960 O.2    85  HIS85      -0.2864
     23  CB        -9.7650   12.0870  -53.6590 C.3    85  HIS85       0.0771
     24  CG        -8.6060   12.8870  -53.1510 C.ar   85  HIS85       0.0820
     25  ND1       -8.4030   14.2070  -53.4930 N.ar   85  HIS85      -0.2267
     26  CD2       -7.5740   12.5420  -52.3460 C.ar   85  HIS85       0.1154
     27  CE1       -7.3060   14.6470  -52.9010 C.ar   85  HIS85       0.1986
     28  NE2       -6.7800   13.6540  -52.2030 N.ar   85  HIS85      -0.2212
     29  N         -5.2970    9.9030  -48.3570 N.3   111  SER111     -0.1217
     30  CA        -5.9120   11.1190  -47.8130 C.3   111  SER111      0.1889
     31  C         -7.2710   11.3390  -48.4780 C.2   111  SER111      0.2288
     32  O         -7.5180   12.3180  -49.1780 O.2   111  SER111     -0.2866
     33  CB        -4.9710   12.3000  -48.0110 C.3   111  SER111      0.2089
     34  OG        -4.4700   12.2550  -49.3340 O.3   111  SER111     -0.2183
     35  N        -11.2300   11.7390  -48.3500 N.3   113  THR113     -0.1218
     36  CA       -12.2120   12.3240  -47.4430 C.3   113  THR113      0.1862
     37  C        -13.5520   11.5850  -47.4900 C.2   113  THR113      0.2287
     38  O        -14.1080   11.3470  -48.5630 O.2   113  THR113     -0.2866
     39  CB       -12.4160   13.7960  -47.7870 C.3   113  THR113      0.1770
     40  OG1      -11.1480   14.4700  -47.7470 O.3   113  THR113     -0.2211
     41  CG2      -13.3450   14.4350  -46.7380 C.3   113  THR113      0.0375
     42  N        -17.3170   11.5180  -47.5270 N.3   115  ASN115     -0.1240
     43  CA       -18.4100   12.4450  -47.8220 C.3   115  ASN115      0.1653
     44  C        -19.6830   11.6910  -48.2230 C.2   115  ASN115      0.2266
     45  O        -19.6920   10.4690  -48.4410 O.2   115  ASN115     -0.2867
     46  CB       -17.9990   13.4970  -48.8850 C.3   115  ASN115      0.1155
     47  CG       -17.8450   12.9320  -50.2990 C.2   115  ASN115      0.2627
     48  OD1      -18.2710   11.8270  -50.5940 O.2   115  ASN115     -0.2716
     49  ND2      -17.2490   13.7330  -51.1970 N.am  115  ASN115     -0.0877
     50  N        -19.7210    9.9990  -52.0620 N.3   118  ARG118     -0.1245
     51  CA       -18.9460    8.7720  -52.1520 C.3   118  ARG118      0.1563
     52  C        -19.5680    7.6550  -51.3390 C.2   118  ARG118      0.2260
     53  O        -19.4880    6.4910  -51.7400 O.2   118  ARG118     -0.2867
     54  CB       -17.5170    9.0280  -51.6850 C.3   118  ARG118      0.0307
     55  CG       -16.7830    9.9470  -52.6340 C.3   118  ARG118      0.0489
     56  CD       -15.5630   10.5610  -51.9800 C.3   118  ARG118      0.2205
     57  NE       -14.9000   11.4870  -52.8930 N.pl3 118  ARG118     -0.0865
     58  CZ       -13.8570   12.2380  -52.5510 C.cat 118  ARG118      0.5346
     59  NH1      -13.3870   12.1920  -51.3080 N.pl3 118  ARG118      0.1354
     60  NH2      -13.3000   13.0510  -53.4450 N.pl3 118  ARG118      0.1354
     61  N        -11.6010   18.6290  -42.3640 N.3   132  GLY132     -0.1210
     62  CA       -12.7180   19.5050  -42.6410 C.3   132  GLY132      0.1956
     63  C        -12.2280   20.6740  -43.4840 C.2   132  GLY132      0.2611
     64  O        -11.0840   20.6920  -43.9580 O.2   132  GLY132     -0.2717
     65  N        -13.0940   21.6700  -43.6420 N.am  133  ILE133     -0.1979
     66  CA       -12.6930   22.8970  -44.3210 C.3   133  ILE133      0.1595
     67  C        -12.2410   23.9040  -43.2690 C.2   133  ILE133      0.2287
     68  O        -13.0420   24.3820  -42.4540 O.2   133  ILE133     -0.2864
     69  CB       -13.8270   23.4490  -45.1920 C.3   133  ILE133      0.0276
     70  CG1      -14.2390   22.3890  -46.2180 C.3   133  ILE133      0.0022
     71  CG2      -13.3630   24.7240  -45.8710 C.3   133  ILE133      0.0022
     72  CD1      -15.3060   22.8350  -47.2010 C.3   133  ILE133      0.0001
     73  N         -7.6420   26.4470  -53.4940 N.3   166  VAL166     -0.1245
     74  CA        -7.1600   25.8080  -54.7130 C.3   166  VAL166      0.1561
     75  C         -8.3800   25.3420  -55.5000 C.2   166  VAL166      0.2260
     76  O         -9.1520   24.5140  -54.9840 O.2   166  VAL166     -0.2867
     77  CB        -6.2210   24.6350  -54.4180 C.3   166  VAL166      0.0252
     78  CG1       -5.7700   24.0300  -55.7410 C.3   166  VAL166      0.0019
     79  CG2       -5.0320   25.1020  -53.5890 C.3   166  VAL166      0.0019
     80  N        -11.5460   21.4410  -57.0090 N.3   169  GLY169     -0.1210
     81  CA       -11.6470   20.2810  -56.1490 C.3   169  GLY169      0.1956
     82  C        -12.8740   20.3080  -55.2660 C.2   169  GLY169      0.2613
     83  O        -13.8650   20.9890  -55.5600 O.2   169  GLY169     -0.2717
     84  N        -12.8190   19.5650  -54.1620 N.am  170  SER170     -0.1938
     85  CA       -13.9810   19.4720  -53.2950 C.3   170  SER170      0.2055
     86  C        -14.2020   20.7520  -52.5050 C.2   170  SER170      0.2643
     87  O        -15.3400   21.0470  -52.1250 O.2   170  SER170     -0.2714
     88  CB       -13.8240   18.2950  -52.3330 C.3   170  SER170      0.2130
     89  OG       -13.8670   17.0810  -53.0490 O.3   170  SER170     -0.2179
     90  N        -13.1340   21.5060  -52.2200 N.am  171  THR171     -0.1950
     91  CA       -13.3180   22.7430  -51.4680 C.3   171  THR171      0.1897
     92  C        -14.1560   23.7270  -52.2720 C.2   171  THR171      0.2313
     93  O        -15.1550   24.2620  -51.7790 O.2   171  THR171     -0.2863
     94  CB       -11.9770   23.4070  -51.0890 C.3   171  THR171      0.1794
     95  OG1      -11.0780   22.4750  -50.4700 O.3   171  THR171     -0.2208
     96  CG2      -12.2570   24.5180  -50.1040 C.3   171  THR171      0.0378
     97  N        -17.8020   22.6910  -52.5310 N.3   174  ASN174     -0.1240
     98  CA       -18.5610   22.9090  -51.3130 C.3   174  ASN174      0.1653
     99  C        -18.9240   24.3850  -51.1360 C.2   174  ASN174      0.2266
    100  O        -20.0750   24.7160  -50.8230 O.2   174  ASN174     -0.2867
    101  CB       -17.7720   22.3930  -50.1140 C.3   174  ASN174      0.1155
    102  CG       -18.5760   22.4690  -48.8390 C.2   174  ASN174      0.2627
    103  OD1      -18.6190   23.5100  -48.1930 O.2   174  ASN174     -0.2716
    104  ND2      -19.2560   21.3680  -48.4880 N.am  174  ASN174     -0.0877
    105  N         -8.8270   25.7410  -46.9390 N.3   211  TYR211     -0.1227
    106  CA        -8.4170   24.4480  -47.5040 C.3   211  TYR211      0.1736
    107  C         -8.5820   23.3440  -46.4550 C.2   211  TYR211      0.2595
    108  O         -9.1880   23.5480  -45.3970 O.2   211  TYR211     -0.2718
    109  CB        -6.9850   24.5190  -48.0490 C.3   211  TYR211      0.0548
    110  CG        -6.7300   23.4970  -49.1370 C.ar  211  TYR211     -0.0200
    111  CD1       -7.5400   23.4330  -50.2710 C.ar  211  TYR211     -0.0009
    112  CD2       -5.7000   22.5870  -49.0190 C.ar  211  TYR211     -0.0009
    113  CE1       -7.3190   22.4730  -51.2700 C.ar  211  TYR211      0.0417
    114  CE2       -5.4690   21.6250  -50.0070 C.ar  211  TYR211      0.0417
    115  CZ        -6.2750   21.5830  -51.1350 C.ar  211  TYR211      0.1957
    116  OH        -6.0380   20.6130  -52.0890 O.3   211  TYR211     -0.2866
    117  N         -8.0720   22.1590  -46.7800 N.am  212  ASP212     -0.1974
    118  CA        -8.2370   20.9740  -45.9390 C.3   212  ASP212      0.1709
    119  C         -7.5510   21.1520  -44.5820 C.2   212  ASP212      0.2293
    120  O         -6.3900   21.5710  -44.5020 O.2   212  ASP212     -0.2864
    121  CB        -7.6620   19.7540  -46.6520 C.3   212  ASP212      0.1436
    122  CG        -7.7120   18.4970  -45.7910 C.2   212  ASP212      0.3671
    123  OD1       -8.8300   17.9890  -45.6010 O.co2 212  ASP212     -0.2456
    124  OD2       -6.6580   18.0180  -45.3100 O.co2 212  ASP212     -0.2456
    125  N         -4.2020   19.1130  -44.0330 N.3   215  VAL215     -0.1245
    126  CA        -3.1030   19.7100  -44.7910 C.3   215  VAL215      0.1561
    127  C         -2.6430   21.0050  -44.1270 C.2   215  VAL215      0.2260
    128  O         -1.4420   21.2310  -43.9330 O.2   215  VAL215     -0.2867
    129  CB        -3.5130   19.9440  -46.2580 C.3   215  VAL215      0.0252
    130  CG1       -2.4660   20.8500  -46.9670 C.3   215  VAL215      0.0019
    131  CG2       -3.6830   18.6170  -46.9920 C.3   215  VAL215      0.0019
    132  N        -17.8000   21.6760  -41.8960 N.3   238  ALA238     -0.1245
    133  CA       -18.0430   20.3620  -42.4950 C.3   238  ALA238      0.1562
    134  C        -17.0210   19.3370  -41.9920 C.2   238  ALA238      0.2260
    135  O        -16.3550   18.6310  -42.7680 O.2   238  ALA238     -0.2867
    136  CB       -18.0370   20.4350  -44.0230 C.3   238  ALA238      0.0290
    137  N        -15.1780   16.2210  -40.8750 N.3   240  THR240     -0.1218
    138  CA       -15.2510   14.8510  -41.3450 C.3   240  THR240      0.1862
    139  C        -13.9110   14.1890  -41.0340 C.2   240  THR240      0.2287
    140  O        -13.2210   14.5970  -40.0880 O.2   240  THR240     -0.2866
    141  CB       -15.5860   14.8270  -42.8440 C.3   240  THR240      0.1770
    142  OG1      -15.7660   13.4790  -43.2840 O.3   240  THR240     -0.2211
    143  CG2      -14.4900   15.5150  -43.6730 C.3   240  THR240      0.0375
    144  N        -10.4750   11.6880  -43.0190 N.3   242  TYR242     -0.1241
    145  CA        -9.9940   10.7060  -43.9730 C.3   242  TYR242      0.1605
    146  C        -10.4210    9.3220  -43.5150 C.2   242  TYR242      0.2264
    147  O        -10.3470    8.9940  -42.3270 O.2   242  TYR242     -0.2867
    148  CB        -8.4750   10.7550  -44.0910 C.3   242  TYR242      0.0534
    149  CG        -7.8390   12.0420  -44.6170 C.ar  242  TYR242     -0.0201
    150  CD1       -8.5680   12.9990  -45.3290 C.ar  242  TYR242     -0.0009
    151  CD2       -6.4850   12.2860  -44.3910 C.ar  242  TYR242     -0.0009
    152  CE1       -7.9410   14.1660  -45.8080 C.ar  242  TYR242      0.0417
    153  CE2       -5.8600   13.4320  -44.8500 C.ar  242  TYR242      0.0417
    154  CZ        -6.5860   14.3700  -45.5480 C.ar  242  TYR242      0.1957
    155  OH        -5.9310   15.5040  -45.9970 O.3   242  TYR242     -0.2866
@<TRIPOS>BOND
     1    10    11    1
     2    15    16    1
     3    15    14    1
     4    16    17    1
     5    11    14    1
     6    11    12    1
     7    80    81    1
     8    12    13    2
     9    12    19   am
    10    17    18    1
    11    81    82    1
    12    19    20    1
    13    78    77    1
    14    83    82    2
    15    75    76    2
    16    75    74    1
    17    82    84   am
    18    21    22    2
    19    21    20    1
    20    74    77    1
    21    74    73    1
    22    20    23    1
    23    77    79    1
    24    84    85    1
    25    23    24    1
    26    25    24   ar
    27    25    27   ar
    28    60    58    1
    29    85    86    1
    30    85    88    1
    31    24    26   ar
    32    89    88    1
    33    27    28   ar
    34    57    58    2
    35    57    56    1
    36    55    56    1
    37    55    54    1
    38    58    59    1
    39    97    98    1
    40    86    90   am
    41    86    87    2
    42     9     7   ar
    43    26    28   ar
    44    92    93    2
    45    92    91    1
    46    90    91    1
    47    51    50    1
    48    51    54    1
    49    51    52    1
    50   116   115    1
    51     1     2    1
    52    53    52    2
    53    91    94    1
    54    98    99    1
    55    98   101    1
    56   113   115   ar
    57   113   111   ar
    58     7     6    1
    59     7     8   ar
    60    49    47   am
    61    99   100    2
    62     2     5    1
    63     2     3    1
    64   115   114   ar
    65    94    95    1
    66    94    96    1
    67     5     6    1
    68    48    47    2
    69    47    46    1
    70   111   110   ar
    71   101   102    1
    72   114   112   ar
    73     3     4    2
    74    34    33    1
    75    32    31    2
    76   110   112   ar
    77   110   109    1
    78    46    43    1
    79   102   104   am
    80   102   103    2
    81    38    37    2
    82    31    30    1
    83    45    44    2
    84    29    30    1
    85    35    36    1
    86    44    43    1
    87   109   106    1
    88    33    30    1
    89    43    42    1
    90    39    40    1
    91    39    36    1
    92    39    41    1
    93   106   105    1
    94   106   107    1
    95    37    36    1
    96    72    70    1
    97   131   129    1
    98   130   129    1
    99   117   107   am
   100   117   118    1
   101   121   118    1
   102   121   122    1
   103   107   108    2
   104   129   126    1
   105    70    69    1
   106   155   154    1
   107   118   119    1
   108    71    69    1
   109   152   154   ar
   110   152   150   ar
   111   122   123   ar
   112   122   124   ar
   113   154   153   ar
   114   150   149   ar
   115    69    66    1
   116   153   151   ar
   117   126   127    1
   118   126   125    1
   119   149   151   ar
   120   149   148    1
   121   119   120    2
   122    66    65    1
   123    66    67    1
   124   127   128    2
   125   148   145    1
   126   136   133    1
   127   145   146    1
   128   145   144    1
   129    64    63    2
   130   143   141    1
   131    65    63   am
   132   146   147    2
   133    63    62    1
   134   142   141    1
   135    67    68    2
   136   141   138    1
   137   135   134    2
   138    62    61    1
   139   133   134    1
   140   133   132    1
   141   138   139    1
   142   138   137    1
   143   139   140    2
