@<TRIPOS>MOLECULE
tmp/5u8fA00.pdb
 144 138 0 0 0
SMALL
GASTEIGER

@<TRIPOS>ATOM
      1  N        -12.4330  -19.6390   31.3550 N.3    14  PRO14      -0.2116
      2  CA       -11.4740  -20.4700   30.6280 C.3    14  PRO14       0.1372
      3  C        -10.7260  -19.7240   29.5270 C.2    14  PRO14       0.2244
      4  O        -11.3080  -18.8990   28.8050 O.2    14  PRO14      -0.2868
      5  CB       -12.3500  -21.5580   30.0140 C.3    14  PRO14       0.0268
      6  CG       -13.4910  -21.6790   30.9600 C.3    14  PRO14       0.0207
      7  CD       -13.7700  -20.2650   31.3950 C.3    14  PRO14       0.0892
      8  N         -9.5350  -20.4890   26.1440 N.3    16  PHE16      -0.1241
      9  CA        -9.8490  -21.4980   25.1380 C.3    16  PHE16       0.1605
     10  C         -8.7870  -21.6460   24.0620 C.2    16  PHE16       0.2264
     11  O         -8.7610  -22.6580   23.3470 O.2    16  PHE16      -0.2867
     12  CB       -11.1770  -21.1750   24.4730 C.3    16  PHE16       0.0534
     13  CG       -12.3710  -21.3880   25.3580 C.ar   16  PHE16      -0.0203
     14  CD1      -12.5670  -22.6070   26.0150 C.ar   16  PHE16      -0.0042
     15  CD2      -13.3200  -20.3800   25.5210 C.ar   16  PHE16      -0.0042
     16  CE1      -13.6840  -22.8120   26.8140 C.ar   16  PHE16      -0.0003
     17  CE2      -14.4420  -20.5840   26.3160 C.ar   16  PHE16      -0.0003
     18  CZ       -14.6160  -21.7970   26.9650 C.ar   16  PHE16      -0.0000
     19  N        -17.7930  -14.3360   23.7480 N.3    65  ASN65      -0.1240
     20  CA       -16.8250  -15.2580   24.3050 C.3    65  ASN65       0.1653
     21  C        -15.9420  -15.7030   23.1580 C.2    65  ASN65       0.2266
     22  O        -16.3980  -16.4380   22.2790 O.2    65  ASN65      -0.2867
     23  CB       -17.5330  -16.4570   24.9490 C.3    65  ASN65       0.1155
     24  CG       -16.6390  -17.2430   25.8990 C.2    65  ASN65       0.2627
     25  OD1      -15.4480  -16.9390   26.0960 O.2    65  ASN65      -0.2716
     26  ND2      -17.2230  -18.2650   26.5110 N.am   65  ASN65      -0.0877
     27  N        -13.3490  -17.8800   21.2620 N.3    67  TYR67      -0.1241
     28  CA       -13.0220  -19.3040   21.3150 C.3    67  TYR67       0.1605
     29  C        -11.7120  -19.6570   20.6260 C.2    67  TYR67       0.2264
     30  O        -11.1560  -20.7340   20.8610 O.2    67  TYR67      -0.2867
     31  CB       -14.1240  -20.1150   20.6350 C.3    67  TYR67       0.0534
     32  CG       -15.4830  -20.1190   21.3090 C.ar   67  TYR67      -0.0201
     33  CD1      -15.6380  -19.8620   22.6840 C.ar   67  TYR67      -0.0009
     34  CD2      -16.6220  -20.4400   20.5680 C.ar   67  TYR67      -0.0009
     35  CE1      -16.9010  -19.9030   23.2830 C.ar   67  TYR67       0.0417
     36  CE2      -17.8740  -20.4980   21.1600 C.ar   67  TYR67       0.0417
     37  CZ       -18.0100  -20.2310   22.5110 C.ar   67  TYR67       0.1957
     38  OH       -19.2560  -20.2980   23.0950 O.3    67  TYR67      -0.2866
     39  N        -15.9170  -21.8320   16.1130 N.3   113  ASN113     -0.1240
     40  CA       -15.1370  -22.6630   17.0340 C.3   113  ASN113      0.1653
     41  C        -13.6370  -22.7010   16.7620 C.2   113  ASN113      0.2266
     42  O        -12.8560  -22.9760   17.6690 O.2   113  ASN113     -0.2867
     43  CB       -15.7120  -24.0800   17.0460 C.3   113  ASN113      0.1155
     44  CG       -17.1140  -24.1220   17.6300 C.2   113  ASN113      0.2627
     45  OD1      -17.4040  -23.4180   18.5980 O.2   113  ASN113     -0.2716
     46  ND2      -17.9920  -24.9340   17.0410 N.am  113  ASN113     -0.0877
     47  N        -20.5570  -23.5350   14.5480 N.3   130  LYS130     -0.1245
     48  CA       -21.7120  -24.1440   15.1900 C.3   130  LYS130      0.1561
     49  C        -22.8660  -24.4110   14.2130 C.2   130  LYS130      0.2260
     50  O        -23.6630  -25.3050   14.4600 O.2   130  LYS130     -0.2867
     51  CB       -22.1720  -23.2360   16.3500 C.3   130  LYS130      0.0271
     52  CG       -23.4570  -23.6480   17.0610 C.3   130  LYS130      0.0035
     53  CD       -23.5630  -22.9770   18.4200 C.3   130  LYS130      0.0206
     54  CE       -24.8670  -23.3620   19.1000 C.3   130  LYS130      0.1093
     55  NZ       -24.8950  -22.8560   20.5000 N.3   130  LYS130     -0.1314
     56  N        -22.2540  -29.2750   14.9630 N.3   157  GLU157     -0.1245
     57  CA       -21.1960  -28.2640   15.0500 C.3   157  GLU157      0.1567
     58  C        -19.8760  -28.7820   14.5030 C.2   157  GLU157      0.2260
     59  O        -19.4560  -29.9040   14.8120 O.2   157  GLU157     -0.2867
     60  CB       -20.9480  -27.8060   16.4880 C.3   157  GLU157      0.0388
     61  CG       -22.1440  -27.2170   17.1980 C.3   157  GLU157      0.1160
     62  CD       -21.7430  -26.3070   18.3500 C.2   157  GLU157      0.3649
     63  OE1      -20.6940  -25.6120   18.2740 O.co2 157  GLU157     -0.2457
     64  OE2      -22.5000  -26.2640   19.3250 O.co2 157  GLU157     -0.2457
     65  N        -16.0060  -28.5410   14.8550 N.3   159  LEU159     -0.1245
     66  CA       -15.1490  -28.2040   15.9990 C.3   159  LEU159      0.1561
     67  C        -13.7170  -27.8470   15.6430 C.2   159  LEU159      0.2260
     68  O        -13.0670  -27.1230   16.3910 O.2   159  LEU159     -0.2867
     69  CB       -15.1460  -29.3400   17.0380 C.3   159  LEU159      0.0270
     70  CG       -16.5160  -29.6900   17.6320 C.3   159  LEU159      0.0019
     71  CD1      -16.3770  -30.8920   18.5600 C.3   159  LEU159      0.0001
     72  CD2      -17.1290  -28.5240   18.4030 C.3   159  LEU159      0.0001
     73  N        -18.9690  -32.5540   15.9750 N.3   175  MET175     -0.1245
     74  CA       -19.8960  -33.2120   16.8890 C.3   175  MET175      0.1570
     75  C        -20.6640  -34.3720   16.2740 C.2   175  MET175      0.2261
     76  O        -21.2180  -35.1930   17.0030 O.2   175  MET175     -0.2867
     77  CB       -20.9000  -32.2110   17.4260 C.3   175  MET175      0.0387
     78  CG       -20.3890  -31.3150   18.5170 C.3   175  MET175      0.0595
     79  SD       -21.8310  -30.3980   19.0780 S.3   175  MET175     -0.1393
     80  CE       -20.9920  -29.2610   20.1350 C.3   175  MET175      0.0692
     81  N        -12.8000  -33.3130   18.2320 N.3   229  ASP229     -0.1239
     82  CA       -12.5880  -31.9100   18.6050 C.3   229  ASP229      0.1674
     83  C        -11.2550  -31.2960   18.1820 C.2   229  ASP229      0.2266
     84  O        -10.9970  -30.1240   18.4730 O.2   229  ASP229     -0.2867
     85  CB       -12.8660  -31.6730   20.1050 C.3   229  ASP229      0.1410
     86  CG       -12.0360  -32.5580   21.0310 C.2   229  ASP229      0.3668
     87  OD1      -11.3330  -33.4780   20.5500 O.co2 229  ASP229     -0.2456
     88  OD2      -12.1050  -32.3360   22.2670 O.co2 229  ASP229     -0.2456
     89  N        -15.1080  -33.1020   26.7530 N.3   283  TRP283     -0.1227
     90  CA       -15.1360  -32.5030   25.4260 C.3   283  TRP283      0.1737
     91  C        -14.3260  -31.2120   25.3700 C.2   283  TRP283      0.2595
     92  O        -14.2650  -30.4620   26.3560 O.2   283  TRP283     -0.2718
     93  CB       -16.5660  -32.1620   25.0200 C.3   283  TRP283      0.0564
     94  CG       -17.4860  -33.3190   24.7720 C.ar  283  TRP283      0.0003
     95  CD1      -17.1930  -34.4960   24.1350 C.ar  283  TRP283      0.0946
     96  CD2      -18.8810  -33.3710   25.0920 C.ar  283  TRP283      0.0152
     97  NE1      -18.3150  -35.2920   24.0810 N.ar  283  TRP283     -0.2442
     98  CE2      -19.3640  -34.6270   24.6550 C.ar  283  TRP283      0.0810
     99  CE3      -19.7690  -32.4810   25.7250 C.ar  283  TRP283      0.0012
    100  CZ2      -20.7010  -35.0210   24.8210 C.ar  283  TRP283      0.0191
    101  CZ3      -21.1000  -32.8720   25.8930 C.ar  283  TRP283      0.0001
    102  CH2      -21.5520  -34.1320   25.4360 C.ar  283  TRP283      0.0015
    103  N        -13.7390  -30.9600   24.1980 N.am  284  TYR284     -0.1962
    104  CA       -13.1930  -29.6430   23.7930 C.3   284  TYR284      0.1771
    105  C        -11.7900  -29.3880   24.3400 C.2   284  TYR284      0.2619
    106  O        -11.5460  -28.4510   25.1010 O.2   284  TYR284     -0.2715
    107  CB       -14.1700  -28.4700   24.0690 C.3   284  TYR284      0.0574
    108  CG       -15.6170  -28.7970   23.7610 C.ar  284  TYR284     -0.0198
    109  CD1      -15.9870  -29.2800   22.4960 C.ar  284  TYR284     -0.0009
    110  CD2      -16.6130  -28.6470   24.7390 C.ar  284  TYR284     -0.0009
    111  CE1      -17.3000  -29.6020   22.2080 C.ar  284  TYR284      0.0417
    112  CE2      -17.9430  -28.9540   24.4520 C.ar  284  TYR284      0.0417
    113  CZ       -18.2700  -29.4430   23.1920 C.ar  284  TYR284      0.1957
    114  OH       -19.5630  -29.7690   22.8770 O.3   284  TYR284     -0.2866
    115  N        -10.8610  -30.2340   23.9050 N.am  285  MET285     -0.1963
    116  CA        -9.4540  -30.1540   24.3190 C.3   285  MET285      0.1736
    117  C         -8.6080  -30.3020   23.0630 C.2   285  MET285      0.2616
    118  O         -8.7930  -31.2580   22.3040 O.2   285  MET285     -0.2715
    119  CB        -9.1210  -31.2750   25.3230 C.3   285  MET285      0.0427
    120  CG        -9.9730  -31.2820   26.5890 C.3   285  MET285      0.0599
    121  SD        -9.5360  -29.9810   27.7570 S.3   285  MET285     -0.1393
    122  CE        -8.2510  -30.8470   28.6580 C.3   285  MET285      0.0692
    123  N         -7.6990  -29.3600   22.8240 N.am  286  ARG286     -0.1977
    124  CA        -6.9320  -29.3500   21.5800 C.3   286  ARG286      0.1597
    125  C         -5.4960  -29.7800   21.7700 C.2   286  ARG286      0.2287
    126  O         -4.8770  -29.4570   22.7870 O.2   286  ARG286     -0.2864
    127  CB        -6.9550  -27.9620   20.9410 C.3   286  ARG286      0.0334
    128  CG        -8.3350  -27.5460   20.4580 C.3   286  ARG286      0.0492
    129  CD        -8.2390  -26.3520   19.5300 C.3   286  ARG286      0.2205
    130  NE        -9.5120  -25.6770   19.2990 N.pl3 286  ARG286     -0.0865
    131  CZ       -10.4660  -26.0770   18.4580 C.cat 286  ARG286      0.5346
    132  NH1      -10.3780  -27.2310   17.8020 N.pl3 286  ARG286      0.1354
    133  NH2      -11.5460  -25.3330   18.3040 N.pl3 286  ARG286      0.1354
    134  N         -6.7780  -26.3930   27.9150 N.3   333  ARG333     -0.1245
    135  CA        -7.5850  -26.3980   26.6910 C.3   333  ARG333      0.1563
    136  C         -6.7630  -26.3890   25.4130 C.2   333  ARG333      0.2260
    137  O         -7.1730  -26.9690   24.4090 O.2   333  ARG333     -0.2867
    138  CB        -8.5540  -25.2100   26.6740 C.3   333  ARG333      0.0307
    139  CG        -9.6230  -25.2480   27.7580 C.3   333  ARG333      0.0489
    140  CD       -10.7250  -26.2420   27.4230 C.3   333  ARG333      0.2205
    141  NE       -11.6250  -26.4240   28.5590 N.pl3 333  ARG333     -0.0865
    142  CZ       -12.5630  -27.3640   28.6390 C.cat 333  ARG333      0.5346
    143  NH1      -12.7540  -28.2140   27.6400 N.pl3 333  ARG333      0.1354
    144  NH2      -13.3160  -27.4480   29.7260 N.pl3 333  ARG333      0.1354
@<TRIPOS>BOND
     1    49    50    2
     2    49    48    1
     3    58    59    2
     4    58    57    1
     5    47    48    1
     6    65    66    1
     7    56    57    1
     8    57    60    1
     9    48    51    1
    10    67    66    1
    11    67    68    2
    12    73    74    1
    13    66    69    1
    14    39    40    1
    15    75    74    1
    16    75    76    2
    17    51    52    1
    18    60    61    1
    19    41    40    1
    20    41    42    2
    21    74    77    1
    22    40    43    1
    23    69    70    1
    24    46    44   am
    25    43    44    1
    26    52    53    1
    27    61    62    1
    28    77    78    1
    29    44    45    2
    30    70    72    1
    31    70    71    1
    32   132   131    1
    33    83    84    2
    34    83    82    1
    35    81    82    1
    36    63    62   ar
    37   133   131    1
    38    62    64   ar
    39    53    54    1
    40   131   130    2
    41    78    79    1
    42    82    85    1
    43    79    80    1
    44    54    55    1
    45   130   129    1
    46   129   128    1
    47    85    86    1
    48   128   127    1
    49    87    86   ar
    50    34    36   ar
    51    34    32   ar
    52    29    30    2
    53    29    28    1
    54    31    32    1
    55    31    28    1
    56   127   124    1
    57    86    88   ar
    58    36    37   ar
    59    27    28    1
    60    32    33   ar
    61   124   125    1
    62   124   123    1
    63   125   126    2
    64   111   109   ar
    65   111   113   ar
    66    22    21    2
    67   118   117    2
    68   109   108   ar
    69    37    38    1
    70    37    35   ar
    71    33    35   ar
    72   123   117   am
    73   114   113    1
    74   117   116    1
    75    21    20    1
    76   113   112   ar
    77    11    10    2
    78    19    20    1
    79   108   107    1
    80   108   110   ar
    81   104   107    1
    82   104   103    1
    83   104   105    1
    84   115   116    1
    85   115   105   am
    86    10     9    1
    87    97    95   ar
    88    97    98   ar
    89    95    94   ar
    90   103    91   am
    91    20    23    1
    92   116   119    1
    93   105   106    2
    94   137   136    2
    95   112   110   ar
    96    12     9    1
    97    12    13    1
    98    98   100   ar
    99    98    96   ar
   100    94    93    1
   101    94    96   ar
   102   100   102   ar
   103    23    24    1
   104    93    90    1
   105    96    99   ar
   106     9     8    1
   107   119   120    1
   108    13    15   ar
   109    13    14   ar
   110    91    90    1
   111    91    92    2
   112   136   135    1
   113    90    89    1
   114   102   101   ar
   115    15    17   ar
   116    99   101   ar
   117    24    25    2
   118    24    26   am
   119    14    16   ar
   120    17    18   ar
   121   120   121    1
   122   138   135    1
   123   138   139    1
   124   135   134    1
   125    16    18   ar
   126   140   139    1
   127   140   141    1
   128   143   142    1
   129   121   122    1
   130   141   142    2
   131   142   144    1
   132     4     3    2
   133     3     2    1
   134     5     2    1
   135     5     6    1
   136     2     1    1
   137     6     7    1
   138     1     7    1
