@<TRIPOS>MOLECULE
tmp/5u8lA00.pdb
 172 167 0 0 0
SMALL
GASTEIGER

@<TRIPOS>ATOM
      1  N         16.7290   -5.7710  -38.4210 N.3    17  LEU17      -0.1231
      2  CA        16.9380   -5.4310  -37.0180 C.3    17  LEU17       0.1693
      3  C         17.2310   -6.6700  -36.1780 C.2    17  LEU17       0.2593
      4  O         18.0230   -6.6160  -35.2350 O.2    17  LEU17      -0.2718
      5  CB        15.7110   -4.7000  -36.4580 C.3    17  LEU17       0.0284
      6  CG        15.3480   -3.3840  -37.1530 C.3    17  LEU17       0.0019
      7  CD1       14.0720   -2.8140  -36.5500 C.3    17  LEU17       0.0001
      8  CD2       16.4990   -2.3970  -37.0160 C.3    17  LEU17       0.0001
      9  N         16.5980   -7.7880  -36.5190 N.am   18  GLY18      -0.1942
     10  CA        16.8250   -9.0090  -35.7670 C.3    18  GLY18       0.2014
     11  C         15.9770  -10.1780  -36.2270 C.2    18  GLY18       0.2640
     12  O         15.0610  -10.0130  -37.0320 O.2    18  GLY18      -0.2714
     13  N         16.2860  -11.3650  -35.7140 N.am   19  SER19      -0.1935
     14  CA        15.5300  -12.5660  -36.0500 C.3    19  SER19       0.2055
     15  C         15.1370  -13.3280  -34.7920 C.2    19  SER19       0.2644
     16  O         15.7670  -13.1880  -33.7460 O.2    19  SER19      -0.2714
     17  CB        16.3530  -13.4760  -36.9640 C.3    19  SER19       0.2130
     18  OG        16.6100  -12.8510  -38.2090 O.3    19  SER19      -0.2179
     19  N         14.0830  -14.1290  -34.9020 N.am   20  GLY20      -0.1939
     20  CA        13.6070  -14.8930  -33.7650 C.3    20  GLY20       0.2014
     21  C         12.9230  -16.1610  -34.2270 C.2    20  GLY20       0.2639
     22  O         13.1180  -16.5930  -35.3610 O.2    20  GLY20      -0.2714
     23  N         12.1100  -16.7500  -33.3560 N.am   21  ALA21      -0.1963
     24  CA        11.5040  -18.0480  -33.6270 C.3    21  ALA21       0.1728
     25  C         10.4940  -18.0110  -34.7710 C.2    21  ALA21       0.2616
     26  O         10.3170  -19.0010  -35.4810 O.2    21  ALA21      -0.2715
     27  CB        10.8370  -18.5790  -32.3630 C.3    21  ALA21       0.0334
     28  N          9.8340  -16.8710  -34.9520 N.am   22  PHE22      -0.1960
     29  CA         8.7240  -16.7840  -35.8940 C.3    22  PHE22       0.1771
     30  C          9.0780  -16.0820  -37.2020 C.2    22  PHE22       0.2620
     31  O          8.3500  -16.1970  -38.1850 O.2    22  PHE22      -0.2715
     32  CB         7.5360  -16.0770  -35.2370 C.3    22  PHE22       0.0574
     33  CG         6.9910  -16.7990  -34.0390 C.ar   22  PHE22      -0.0200
     34  CD1        6.2500  -17.9610  -34.1910 C.ar   22  PHE22      -0.0042
     35  CD2        7.2220  -16.3200  -32.7590 C.ar   22  PHE22      -0.0042
     36  CE1        5.7510  -18.6320  -33.0880 C.ar   22  PHE22      -0.0003
     37  CE2        6.7250  -16.9850  -31.6510 C.ar   22  PHE22      -0.0003
     38  CZ         5.9900  -18.1420  -31.8160 C.ar   22  PHE22      -0.0000
     39  N         10.1920  -15.3570  -37.2190 N.am   23  GLY23      -0.1954
     40  CA        10.5720  -14.6440  -38.4270 C.3    23  GLY23       0.1869
     41  C         11.6090  -13.5580  -38.2140 C.2    23  GLY23       0.2309
     42  O         12.3620  -13.5890  -37.2390 O.2    23  GLY23      -0.2863
     43  N         12.5800   -9.2890  -38.2410 N.3    25  VAL25      -0.1245
     44  CA        12.0850   -7.9230  -38.1160 C.3    25  VAL25       0.1561
     45  C         12.9940   -6.9460  -38.8530 C.2    25  VAL25       0.2260
     46  O         14.2160   -7.0070  -38.7250 O.2    25  VAL25      -0.2867
     47  CB        11.9920   -7.4990  -36.6300 C.3    25  VAL25       0.0252
     48  CG1       11.5740   -6.0380  -36.5260 C.3    25  VAL25       0.0019
     49  CG2       10.9970   -8.3930  -35.9000 C.3    25  VAL25       0.0019
     50  N          8.0510   -0.7560  -38.6070 N.3    42  ALA42      -0.1245
     51  CA         8.7230   -2.0320  -38.4400 C.3    42  ALA42       0.1562
     52  C          7.9660   -3.0760  -39.2430 C.2    42  ALA42       0.2260
     53  O          6.7320   -3.0850  -39.2680 O.2    42  ALA42      -0.2867
     54  CB         8.7540   -2.4240  -36.9700 C.3    42  ALA42       0.0290
     55  N          7.7040   -7.2390  -39.7750 N.3    44  LYS44      -0.1245
     56  CA         8.1020   -8.5970  -39.4430 C.3    44  LYS44       0.1561
     57  C          7.6300   -9.5510  -40.5290 C.2    44  LYS44       0.2260
     58  O          6.4300   -9.6690  -40.7920 O.2    44  LYS44      -0.2867
     59  CB         7.5360   -9.0280  -38.0840 C.3    44  LYS44       0.0271
     60  CG         8.0540  -10.3980  -37.6520 C.3    44  LYS44       0.0035
     61  CD         7.8810  -10.6590  -36.1660 C.3    44  LYS44       0.0206
     62  CE         8.5920  -11.9500  -35.7810 C.3    44  LYS44       0.1093
     63  NZ         8.7060  -12.1140  -34.3090 N.3    44  LYS44      -0.1314
     64  N          2.4670   -1.9950  -28.8030 N.3    74  CYS74      -0.1235
     65  CA         2.8670   -1.7590  -30.1840 C.3    74  CYS74       0.1677
     66  C          1.7850   -2.2960  -31.1140 C.2    74  CYS74       0.2270
     67  O          1.3940   -3.4550  -31.0150 O.2    74  CYS74      -0.2867
     68  CB         4.2000   -2.4540  -30.4610 C.3    74  CYS74       0.0956
     69  SG         4.8880   -2.0940  -32.0970 S.3    74  CYS74      -0.0801
     70  N          4.1250   -2.8590  -38.5280 N.3    89  MET89      -0.1230
     71  CA         3.8480   -2.4460  -37.1580 C.3    89  MET89       0.1702
     72  C          4.4370   -1.0740  -36.8760 C.2    89  MET89       0.2592
     73  O          5.2830   -0.5830  -37.6240 O.2    89  MET89      -0.2718
     74  CB         4.4370   -3.4650  -36.1810 C.3    89  MET89       0.0401
     75  CG         3.9240   -4.8770  -36.4070 C.3    89  MET89       0.0596
     76  SD         4.4660   -6.0220  -35.1320 S.3    89  MET89      -0.1393
     77  CE         3.4680   -5.4740  -33.7420 C.3    89  MET89       0.0692
     78  N          3.9930   -0.4530  -35.7910 N.am   90  GLN90      -0.1966
     79  CA         4.5740    0.8150  -35.3820 C.3    90  GLN90       0.1733
     80  C          6.0650    0.6260  -35.1250 C.2    90  GLN90       0.2616
     81  O          6.4830   -0.3930  -34.5730 O.2    90  GLN90      -0.2715
     82  CB         3.8970    1.3240  -34.1120 C.3    90  GLN90       0.0408
     83  CG         2.4260    1.6410  -34.2860 C.3    90  GLN90       0.0908
     84  CD         1.7740    2.0310  -32.9790 C.2    90  GLN90       0.2608
     85  OE1        2.0260    1.4160  -31.9400 O.2    90  GLN90      -0.2717
     86  NE2        0.9290    3.0570  -33.0200 N.am   90  GLN90      -0.0878
     87  N          6.8630    1.6080  -35.5350 N.am   91  LEU91      -0.1963
     88  CA         8.3010    1.5550  -35.3090 C.3    91  LEU91       0.1728
     89  C          8.6610    2.2690  -34.0140 C.2    91  LEU91       0.2616
     90  O          8.3600    3.4530  -33.8410 O.2    91  LEU91      -0.2715
     91  CB         9.0480    2.2090  -36.4730 C.3    91  LEU91       0.0311
     92  CG        10.5740    2.2130  -36.3360 C.3    91  LEU91       0.0022
     93  CD1       11.0920    0.7820  -36.3620 C.3    91  LEU91       0.0001
     94  CD2       11.1910    3.0300  -37.4620 C.3    91  LEU91       0.0001
     95  N          9.2970    1.5350  -33.1070 N.am   92  MET92      -0.1964
     96  CA         9.8770    2.1130  -31.8980 C.3    92  MET92       0.1722
     97  C         11.3700    2.3030  -32.1650 C.2    92  MET92       0.2458
     98  O         12.1340    1.3390  -32.1780 O.2    92  MET92      -0.2730
     99  CB         9.6700    1.1590  -30.7200 C.3    92  MET92       0.0427
    100  CG         8.2280    0.7140  -30.5350 C.3    92  MET92       0.0599
    101  SD         7.1440    2.0610  -30.0450 S.3    92  MET92      -0.1393
    102  CE         6.3690    2.4960  -31.6100 C.3    92  MET92       0.0692
    103  N         11.7930    3.5520  -32.4120 N.am   93  PRO93      -0.2716
    104  CA        13.1200    3.8310  -32.9800 C.3    93  PRO93       0.1536
    105  C         14.2890    3.5500  -32.0440 C.2    93  PRO93       0.2599
    106  O         15.4210    3.3790  -32.4990 O.2    93  PRO93      -0.2715
    107  CB        13.0540    5.3140  -33.3540 C.3    93  PRO93       0.0310
    108  CG        11.6040    5.6550  -33.3610 C.3    93  PRO93       0.0237
    109  CD        10.9710    4.7680  -32.3350 C.3    93  PRO93       0.0939
    110  N         14.0180    3.5130  -30.7420 N.am   94  PHE94      -0.1960
    111  CA        15.0830    3.4310  -29.7430 C.3    94  PHE94       0.1771
    112  C         15.3880    2.0140  -29.2700 C.2    94  PHE94       0.2620
    113  O         16.1960    1.8250  -28.3620 O.2    94  PHE94      -0.2715
    114  CB        14.7370    4.2980  -28.5300 C.3    94  PHE94       0.0574
    115  CG        14.8220    5.7730  -28.7940 C.ar   94  PHE94      -0.0200
    116  CD1       13.7570    6.4500  -29.3610 C.ar   94  PHE94      -0.0042
    117  CD2       15.9680    6.4850  -28.4710 C.ar   94  PHE94      -0.0042
    118  CE1       13.8280    7.8120  -29.6030 C.ar   94  PHE94      -0.0003
    119  CE2       16.0470    7.8470  -28.7090 C.ar   94  PHE94      -0.0003
    120  CZ        14.9750    8.5110  -29.2760 C.ar   94  PHE94      -0.0000
    121  N         14.7390    1.0230  -29.8710 N.am   95  GLY95      -0.1940
    122  CA        15.0400   -0.3570  -29.5310 C.3    95  GLY95       0.2014
    123  C         14.3770   -0.8270  -28.2510 C.2    95  GLY95       0.2639
    124  O         13.4260   -0.2080  -27.7660 O.2    95  GLY95      -0.2714
    125  N         14.8770   -1.9270  -27.6990 N.am   96  CYS96      -0.1967
    126  CA        14.2550   -2.5100  -26.5220 C.3    96  CYS96       0.1712
    127  C         14.7030   -1.8180  -25.2440 C.2    96  CYS96       0.2296
    128  O         15.7970   -1.2500  -25.1620 O.2    96  CYS96      -0.2864
    129  CB        14.5640   -4.0050  -26.4350 C.3    96  CYS96       0.0983
    130  SG        16.2970   -4.3780  -26.1360 S.3    96  CYS96      -0.0798
    131  N         11.3010   -7.2540  -24.3600 N.3   141  ASN141     -0.1240
    132  CA        10.1030   -7.1800  -25.1980 C.3   141  ASN141      0.1653
    133  C          9.2680   -5.9310  -24.9180 C.2   141  ASN141      0.2266
    134  O          8.1190   -5.8180  -25.3540 O.2   141  ASN141     -0.2867
    135  CB         9.2510   -8.4420  -25.0170 C.3   141  ASN141      0.1155
    136  CG         9.9710   -9.6950  -25.4830 C.2   141  ASN141      0.2627
    137  OD1        9.7590  -10.7910  -24.9530 O.2   141  ASN141     -0.2716
    138  ND2       10.8360   -9.5370  -26.4780 N.am  141  ASN141     -0.0877
    139  N          9.4920   -2.0090  -25.8550 N.3   143  LEU143     -0.1245
    140  CA        10.2090   -1.2070  -26.8360 C.3   143  LEU143      0.1561
    141  C         10.0690    0.2770  -26.5380 C.2   143  LEU143      0.2260
    142  O          9.1000    0.7050  -25.9100 O.2   143  LEU143     -0.2867
    143  CB         9.6860   -1.5100  -28.2390 C.3   143  LEU143      0.0270
    144  CG         9.8950   -2.9590  -28.6800 C.3   143  LEU143      0.0019
    145  CD1        9.2700   -3.1760  -30.0410 C.3   143  LEU143      0.0001
    146  CD2       11.3810   -3.2670  -28.7150 C.3   143  LEU143      0.0001
    147  N          5.4750   -5.2250  -26.6970 N.3   153  THR153     -0.1203
    148  CA         5.3460   -5.8090  -28.0170 C.3   153  THR153      0.1994
    149  C          5.0620   -7.2940  -27.9240 C.2   153  THR153      0.2618
    150  O          5.6170   -7.9880  -27.0730 O.2   153  THR153     -0.2717
    151  CB         6.6200   -5.5870  -28.8340 C.3   153  THR153      0.1784
    152  OG1        6.8890   -4.1810  -28.9160 O.3   153  THR153     -0.2211
    153  CG2        6.4520   -6.1470  -30.2290 C.3   153  THR153      0.0376
    154  N          4.1730   -7.7630  -28.7960 N.am  154  ASP154     -0.1959
    155  CA         3.8990   -9.1830  -28.9590 C.3   154  ASP154      0.1840
    156  C          4.6760   -9.6640  -30.1770 C.2   154  ASP154      0.2622
    157  O          4.4790   -9.1590  -31.2810 O.2   154  ASP154     -0.2715
    158  CB         2.3990   -9.4020  -29.1850 C.3   154  ASP154      0.1450
    159  CG         2.0630  -10.8370  -29.5350 C.2   154  ASP154      0.3671
    160  OD1        2.7990  -11.7470  -29.0950 O.co2 154  ASP154     -0.2456
    161  OD2        1.0610  -11.0530  -30.2510 O.co2 154  ASP154     -0.2456
    162  N          5.5620  -10.6310  -29.9770 N.am  155  PHE155     -0.1974
    163  CA         6.3510  -11.1630  -31.0810 C.3   155  PHE155      0.1639
    164  C          5.7740  -12.4680  -31.6100 C.2   155  PHE155      0.2290
    165  O          6.2640  -13.0130  -32.6010 O.2   155  PHE155     -0.2864
    166  CB         7.8010  -11.3700  -30.6430 C.3   155  PHE155      0.0560
    167  CG         8.5840  -10.0960  -30.5290 C.ar  155  PHE155     -0.0200
    168  CD1        8.9380   -9.3820  -31.6640 C.ar  155  PHE155     -0.0042
    169  CD2        8.9750   -9.6130  -29.2940 C.ar  155  PHE155     -0.0042
    170  CE1        9.6660   -8.2150  -31.5640 C.ar  155  PHE155     -0.0003
    171  CE2        9.7050   -8.4420  -29.1900 C.ar  155  PHE155     -0.0003
    172  CZ        10.0500   -7.7430  -30.3270 C.ar  155  PHE155     -0.0000
@<TRIPOS>BOND
     1    58    57    2
     2    57    56    1
     3    55    56    1
     4    56    59    1
     5    53    52    2
     6    52    51    1
     7    45    46    2
     8    45    44    1
     9    50    51    1
    10    70    71    1
    11    51    54    1
    12    40    41    1
    13    40    39    1
    14     1     2    1
    15    43    44    1
    16    41    42    2
    17    18    17    1
    18    31    30    2
    19    44    47    1
    20    59    60    1
    21    60    61    1
    22    73    72    2
    23    94    92    1
    24    39    30   am
    25    30    29    1
    26    71    72    1
    27    71    74    1
    28     6     8    1
    29     6     7    1
    30     6     5    1
    31    12    11    2
    32     2     5    1
    33     2     3    1
    34    17    14    1
    35    72    78   am
    36    47    48    1
    37    47    49    1
    38     9     3   am
    39     9    10    1
    40    91    92    1
    41    91    88    1
    42    75    74    1
    43    75    76    1
    44    93    92    1
    45    11    10    1
    46    11    13   am
    47     3     4    2
    48    61    62    1
    49    14    13    1
    50    14    15    1
    51    29    32    1
    52    29    28    1
    53    78    79    1
    54    62    63    1
    55    87    88    1
    56    87    80   am
    57    26    25    2
    58    79    80    1
    59    79    82    1
    60    22    21    2
    61    88    89    1
    62    32    33    1
    63    76    77    1
    64    80    81    2
    65    28    25   am
    66    19    15   am
    67    19    20    1
    68    15    16    2
    69    25    24    1
    70    83    82    1
    71    83    84    1
    72    21    20    1
    73    21    23   am
    74    34    33   ar
    75    34    36   ar
    76    33    35   ar
    77    89    90    2
    78    89    95   am
    79    24    23    1
    80    24    27    1
    81   108   107    1
    82   108   109    1
    83   107   104    1
    84    95    96    1
    85    36    38   ar
    86    86    84   am
    87   104   103    1
    88   104   105    1
    89    84    85    2
    90    35    37   ar
    91   165   164    2
    92   106   105    2
    93   103   109    1
    94   103    97   am
    95    98    97    2
    96    97    96    1
    97    69    68    1
    98   105   110   am
    99    96    99    1
   100    38    37   ar
   101   168   170   ar
   102   168   167   ar
   103   102   101    1
   104   164   163    1
   105   170   172   ar
   106   157   156    2
   107    66    67    2
   108    66    65    1
   109   163   166    1
   110   163   162    1
   111   110   111    1
   112    99   100    1
   113   166   167    1
   114   100   101    1
   115   167   169   ar
   116    68    65    1
   117   172   171   ar
   118   161   159   ar
   119   153   151    1
   120    65    64    1
   121   156   162   am
   122   156   155    1
   123   145   144    1
   124   121   122    1
   125   121   112   am
   126   111   112    1
   127   111   114    1
   128   118   116   ar
   129   118   120   ar
   130   159   158    1
   131   159   160   ar
   132   122   123    1
   133   116   115   ar
   134   169   171   ar
   135   120   119   ar
   136   112   113    2
   137   158   155    1
   138   155   154    1
   139   152   151    1
   140   151   148    1
   141   154   149   am
   142   115   114    1
   143   115   117   ar
   144   146   144    1
   145   119   117   ar
   146   144   143    1
   147   123   124    2
   148   123   125   am
   149   143   140    1
   150   148   149    1
   151   148   147    1
   152   149   150    2
   153   125   126    1
   154   140   141    1
   155   140   139    1
   156   141   142    2
   157   126   129    1
   158   126   127    1
   159   138   136   am
   160   129   130    1
   161   136   135    1
   162   136   137    2
   163   134   133    2
   164   127   128    2
   165   132   135    1
   166   132   133    1
   167   132   131    1
