@<TRIPOS>MOLECULE
tmp/5u8qA01.pdb
 101 98 0 0 0
SMALL
GASTEIGER

@<TRIPOS>ATOM
      1  N         31.3250   29.2330  -54.9310 N.3    99  ARG99      -0.1231
      2  CA        32.5930   28.5800  -55.2350 C.3    99  ARG99       0.1694
      3  C         32.8360   27.3310  -54.4040 C.2    99  ARG99       0.2592
      4  O         33.2100   26.2900  -54.9570 O.2    99  ARG99      -0.2718
      5  CB        33.7540   29.5680  -55.0370 C.3    99  ARG99       0.0321
      6  CG        33.8430   30.6490  -56.1000 C.3    99  ARG99       0.0489
      7  CD        33.8870   30.0400  -57.4910 C.3    99  ARG99       0.2205
      8  NE        34.5260   30.9270  -58.4580 N.pl3  99  ARG99      -0.0865
      9  CZ        35.8100   30.8600  -58.7930 C.cat  99  ARG99       0.5346
     10  NH1       36.5940   29.9430  -58.2400 N.pl3  99  ARG99       0.1354
     11  NH2       36.3120   31.7060  -59.6820 N.pl3  99  ARG99       0.1354
     12  N         32.6430   27.4000  -53.0890 N.am  100  ASN100     -0.1960
     13  CA        32.9900   26.2980  -52.2020 C.3   100  ASN100      0.1819
     14  C         31.8870   26.1020  -51.1740 C.2   100  ASN100      0.2621
     15  O         31.5000   27.0490  -50.4840 O.2   100  ASN100     -0.2715
     16  CB        34.3390   26.5610  -51.5100 C.3   100  ASN100      0.1195
     17  CG        34.7410   25.4600  -50.5290 C.2   100  ASN100      0.2630
     18  OD1       33.9920   25.1150  -49.6150 O.2   100  ASN100     -0.2716
     19  ND2       35.9370   24.9100  -50.7140 N.am  100  ASN100     -0.0877
     20  N         31.3870   24.8730  -51.0810 N.am  101  ILE101     -0.1963
     21  CA        30.5190   24.4400  -49.9920 C.3   101  ILE101      0.1727
     22  C         31.3180   23.4500  -49.1570 C.2   101  ILE101      0.2616
     23  O         31.6950   22.3760  -49.6440 O.2   101  ILE101     -0.2715
     24  CB        29.2130   23.8210  -50.5120 C.3   101  ILE101      0.0290
     25  CG1       28.4090   24.8710  -51.2820 C.3   101  ILE101      0.0022
     26  CG2       28.3960   23.2560  -49.3590 C.3   101  ILE101      0.0023
     27  CD1       27.0830   24.3730  -51.8010 C.3   101  ILE101      0.0001
     28  N         31.5770   23.8110  -47.9000 N.am  102  THR102     -0.1951
     29  CA        32.6400   23.1590  -47.1430 C.3   102  THR102      0.1897
     30  C         32.2390   21.7790  -46.6320 C.2   102  THR102      0.2313
     31  O         33.0530   20.8490  -46.6620 O.2   102  THR102     -0.2863
     32  CB        33.0700   24.0500  -45.9770 C.3   102  THR102      0.1794
     33  OG1       33.2990   25.3830  -46.4520 O.3   102  THR102     -0.2208
     34  CG2       34.3490   23.5220  -45.3450 C.3   102  THR102      0.0378
     35  N         30.9340   18.9650  -58.5090 N.3   123  SER123     -0.1202
     36  CA        32.1260   18.2790  -58.0300 C.3   123  SER123      0.2020
     37  C         33.2670   19.2360  -57.7000 C.2   123  SER123      0.2619
     38  O         34.1840   18.8500  -56.9670 O.2   123  SER123     -0.2717
     39  CB        32.5950   17.2510  -59.0630 C.3   123  SER123      0.2103
     40  OG        32.9020   17.8680  -60.2990 O.3   123  SER123     -0.2182
     41  N         33.2340   20.4620  -58.2200 N.am  124  LEU124     -0.1965
     42  CA        34.2420   21.4680  -57.9220 C.3   124  LEU124      0.1728
     43  C         33.7440   22.5360  -56.9570 C.2   124  LEU124      0.2616
     44  O         34.5120   23.4240  -56.5740 O.2   124  LEU124     -0.2715
     45  CB        34.7440   22.1180  -59.2230 C.3   124  LEU124      0.0311
     46  CG        33.7340   22.8240  -60.1310 C.3   124  LEU124      0.0022
     47  CD1       33.5570   24.2970  -59.7640 C.3   124  LEU124      0.0001
     48  CD2       34.1570   22.6830  -61.5800 C.3   124  LEU124      0.0001
     49  N         32.4770   22.4630  -56.5500 N.am  125  ILE125     -0.1963
     50  CA        31.9010   23.3750  -55.5750 C.3   125  ILE125      0.1727
     51  C         31.7980   22.7390  -54.1920 C.2   125  ILE125      0.2616
     52  O         31.9670   23.4210  -53.1830 O.2   125  ILE125     -0.2715
     53  CB        30.5240   23.8750  -56.0520 C.3   125  ILE125      0.0290
     54  CG1       30.6020   24.2950  -57.5060 C.3   125  ILE125      0.0022
     55  CG2       30.0480   25.0310  -55.1790 C.3   125  ILE125      0.0023
     56  CD1       29.2810   24.5620  -58.1450 C.3   125  ILE125      0.0001
     57  N         31.4970   21.4420  -54.1200 N.am  126  LEU126     -0.1963
     58  CA        31.4330   20.7010  -52.8660 C.3   126  LEU126      0.1728
     59  C         32.2250   19.4080  -53.0170 C.2   126  LEU126      0.2616
     60  O         32.7830   19.1180  -54.0790 O.2   126  LEU126     -0.2715
     61  CB        29.9810   20.4160  -52.4680 C.3   126  LEU126      0.0311
     62  CG        29.1370   19.6410  -53.4810 C.3   126  LEU126      0.0022
     63  CD1       28.8670   18.2320  -52.9950 C.3   126  LEU126      0.0001
     64  CD2       27.8370   20.3670  -53.7920 C.3   126  LEU126      0.0001
     65  N         32.2800   18.6240  -51.9410 N.am  127  ASP127     -0.1971
     66  CA        33.0670   17.3970  -51.9090 C.3   127  ASP127      0.1709
     67  C         32.2170   16.1350  -51.9550 C.2   127  ASP127      0.2293
     68  O         32.4630   15.2450  -52.7790 O.2   127  ASP127     -0.2864
     69  CB        33.9550   17.3790  -50.6530 C.3   127  ASP127      0.1436
     70  CG        34.8520   18.5970  -50.5590 C.2   127  ASP127      0.3671
     71  OD1       35.3520   19.0470  -51.6120 O.co2 127  ASP127     -0.2456
     72  OD2       35.0500   19.1120  -49.4380 O.co2 127  ASP127     -0.2456
     73  N         39.7610   31.7380  -50.0060 N.3   190  LEU190     -0.1245
     74  CA        38.7040   30.8400  -50.4560 C.3   190  LEU190      0.1561
     75  C         37.6970   31.6250  -51.2810 C.2   190  LEU190      0.2260
     76  O         37.2240   32.6790  -50.8450 O.2   190  LEU190     -0.2867
     77  CB        38.0110   30.1650  -49.2660 C.3   190  LEU190      0.0270
     78  CG        36.9490   29.1170  -49.6040 C.3   190  LEU190      0.0019
     79  CD1       37.5470   28.0170  -50.4670 C.3   190  LEU190      0.0001
     80  CD2       36.3440   28.5370  -48.3340 C.3   190  LEU190      0.0001
     81  N         39.4090   30.5390  -45.7370 N.3   206  ARG206     -0.1231
     82  CA        39.4150   29.1570  -45.2910 C.3   206  ARG206      0.1694
     83  C         40.0460   29.0820  -43.9040 C.2   206  ARG206      0.2592
     84  O         40.7550   29.9950  -43.4690 O.2   206  ARG206     -0.2718
     85  CB        40.1630   28.2590  -46.2780 C.3   206  ARG206      0.0321
     86  CG        41.6730   28.3810  -46.2200 C.3   206  ARG206      0.0489
     87  CD        42.3540   27.3590  -47.1210 C.3   206  ARG206      0.2205
     88  NE        42.1010   27.6030  -48.5400 N.pl3 206  ARG206     -0.0865
     89  CZ        41.3100   26.8530  -49.3010 C.cat 206  ARG206      0.5346
     90  NH1       40.6930   25.7990  -48.7860 N.pl3 206  ARG206      0.1354
     91  NH2       41.1410   27.1530  -50.5820 N.pl3 206  ARG206      0.1354
     92  N         39.7710   27.9800  -43.2070 N.am  207  HIS207     -0.1976
     93  CA        40.1380   27.8280  -41.8030 C.3   207  HIS207      0.1656
     94  C         39.5030   28.9290  -40.9580 C.2   207  HIS207      0.2291
     95  O         38.2940   28.8980  -40.7110 O.2   207  HIS207     -0.2864
     96  CB        41.6590   27.8090  -41.6260 C.3   207  HIS207      0.0771
     97  CG        42.2430   26.4310  -41.5840 C.ar  207  HIS207      0.0820
     98  ND1       43.4860   26.1310  -42.0980 N.ar  207  HIS207     -0.2267
     99  CD2       41.7540   25.2720  -41.0830 C.ar  207  HIS207      0.1154
    100  CE1       43.7360   24.8470  -41.9190 C.ar  207  HIS207      0.1986
    101  NE2       42.7010   24.3020  -41.3050 N.ar  207  HIS207     -0.2212
@<TRIPOS>BOND
     1    48    46    1
     2    40    39    1
     3    46    47    1
     4    46    45    1
     5    11     9    1
     6    45    42    1
     7    39    36    1
     8     9     8    2
     9     9    10    1
    10    35    36    1
    11     8     7    1
    12    41    42    1
    13    41    37   am
    14    56    54    1
    15    36    37    1
    16    42    43    1
    17    37    38    2
    18    54    53    1
    19     7     6    1
    20    43    44    2
    21    43    49   am
    22    49    50    1
    23     6     5    1
    24    53    50    1
    25    53    55    1
    26    50    51    1
    27     2     5    1
    28     2     1    1
    29     2     3    1
    30     4     3    2
    31     3    12   am
    32    51    57   am
    33    51    52    2
    34    57    58    1
    35    60    59    2
    36    64    62    1
    37    62    63    1
    38    62    61    1
    39    12    13    1
    40    59    58    1
    41    59    65   am
    42    58    61    1
    43    68    67    2
    44    13    16    1
    45    13    14    1
    46    67    66    1
    47    65    66    1
    48    66    69    1
    49    27    25    1
    50    71    70   ar
    51    16    17    1
    52    25    24    1
    53    75    76    2
    54    75    74    1
    55    14    20   am
    56    14    15    2
    57    20    21    1
    58    19    17   am
    59    69    70    1
    60    91    89    1
    61    70    72   ar
    62    17    18    2
    63    24    21    1
    64    24    26    1
    65    79    78    1
    66    74    73    1
    67    74    77    1
    68    21    22    1
    69    23    22    2
    70    78    77    1
    71    78    80    1
    72    89    90    1
    73    89    88    2
    74    22    28   am
    75    88    87    1
    76    28    29    1
    77    29    30    1
    78    29    32    1
    79    87    86    1
    80    31    30    2
    81    33    32    1
    82    85    86    1
    83    85    82    1
    84    32    34    1
    85    81    82    1
    86    82    83    1
    87    83    84    2
    88    83    92   am
    89    92    93    1
    90    98   100   ar
    91    98    97   ar
    92   100   101   ar
    93    93    96    1
    94    93    94    1
    95    96    97    1
    96    97    99   ar
    97   101    99   ar
    98    94    95    2
