@<TRIPOS>MOLECULE
tmp/5u8sI00.pdb
 135 131 0 0 0
SMALL
GASTEIGER

@<TRIPOS>ATOM
      1  N        184.3570  168.2060  202.2300 N.3   303  SER303     -0.1202
      2  CA       184.2090  169.6490  202.0920 C.3   303  SER303      0.2020
      3  C        183.3000  170.2590  203.1630 C.2   303  SER303      0.2619
      4  O        183.1060  171.4740  203.1960 O.2   303  SER303     -0.2717
      5  CB       183.6670  169.9900  200.7030 C.3   303  SER303      0.2103
      6  OG       182.3670  169.4560  200.5150 O.3   303  SER303     -0.2182
      7  N        182.7530  169.4230  204.0440 N.am  304  ILE304     -0.1965
      8  CA       181.6700  169.8640  204.9270 C.3   304  ILE304      0.1727
      9  C        182.0230  169.9720  206.4160 C.2   304  ILE304      0.2616
     10  O        182.5790  169.0470  207.0080 O.2   304  ILE304     -0.2715
     11  CB       180.4550  168.9250  204.7980 C.3   304  ILE304      0.0290
     12  CG1      179.9420  168.9050  203.3560 C.3   304  ILE304      0.0022
     13  CG2      179.3540  169.3520  205.7500 C.3   304  ILE304      0.0023
     14  CD1      178.7860  167.9570  203.1340 C.3   304  ILE304      0.0001
     15  N        181.6750  171.1120  207.0130 N.am  305  TYR305     -0.1974
     16  CA       181.8290  171.3210  208.4530 C.3   305  TYR305      0.1639
     17  C        180.7760  170.5780  209.2570 C.2   305  TYR305      0.2290
     18  O        179.5820  170.7020  208.9820 O.2   305  TYR305     -0.2864
     19  CB       181.7310  172.8040  208.8170 C.3   305  TYR305      0.0560
     20  CG       182.8140  173.6840  208.2590 C.ar  305  TYR305     -0.0198
     21  CD1      184.1360  173.5250  208.6470 C.ar  305  TYR305     -0.0009
     22  CD2      182.5090  174.6960  207.3610 C.ar  305  TYR305     -0.0009
     23  CE1      185.1250  174.3390  208.1430 C.ar  305  TYR305      0.0417
     24  CE2      183.4870  175.5120  206.8530 C.ar  305  TYR305      0.0417
     25  CZ       184.7930  175.3300  207.2440 C.ar  305  TYR305      0.1957
     26  OH       185.7730  176.1480  206.7380 O.3   305  TYR305     -0.2866
     27  N        177.9860  168.8500  211.4630 N.3   307  HIS307     -0.1241
     28  CA       176.7320  168.1560  211.2050 C.3   307  HIS307      0.1621
     29  C        176.9810  166.6520  211.2210 C.2   307  HIS307      0.2264
     30  O        176.2860  165.8910  210.5490 O.2   307  HIS307     -0.2867
     31  CB       176.1230  168.5830  209.8660 C.3   307  HIS307      0.0745
     32  CG       175.8880  170.0570  209.7410 C.ar  307  HIS307      0.0817
     33  ND1      174.8890  170.7140  210.4260 N.ar  307  HIS307     -0.2268
     34  CD2      176.5120  170.9980  208.9940 C.ar  307  HIS307      0.1154
     35  CE1      174.9140  171.9970  210.1150 C.ar  307  HIS307      0.1986
     36  NE2      175.8890  172.1960  209.2470 N.ar  307  HIS307     -0.2212
     37  N        167.2040  177.1050  206.8820 N.3   343  ASP343     -0.1225
     38  CA       167.3490  178.3100  206.0740 C.3   343  ASP343      0.1790
     39  C        168.2390  178.0680  204.8610 C.2   343  ASP343      0.2440
     40  O        169.1250  177.2130  204.8930 O.2   343  ASP343     -0.2733
     41  CB       167.9120  179.4560  206.9180 C.3   343  ASP343      0.1423
     42  CG       166.9820  179.8590  208.0440 C.2   343  ASP343      0.3668
     43  OD1      165.7540  179.6960  207.8880 O.co2 343  ASP343     -0.2456
     44  OD2      167.4790  180.3380  209.0850 O.co2 343  ASP343     -0.2456
     45  N        168.0060  178.8400  203.7900 N.am  344  PRO344     -0.2718
     46  CA       168.6830  178.7090  202.4950 C.3   344  PRO344      0.1535
     47  C        170.2040  178.7250  202.6150 C.2   344  PRO344      0.2599
     48  O        170.7430  179.2920  203.5640 O.2   344  PRO344     -0.2715
     49  CB       168.1850  179.9310  201.7190 C.3   344  PRO344      0.0310
     50  CG       166.8490  180.2230  202.3100 C.3   344  PRO344      0.0237
     51  CD       166.9820  179.8990  203.7710 C.3   344  PRO344      0.0939
     52  N        170.8740  178.0980  201.6520 N.am  345  SER345     -0.1936
     53  CA       172.3240  177.9290  201.6720 C.3   345  SER345      0.2055
     54  C        172.7570  177.0570  202.8480 C.2   345  SER345      0.2644
     55  O        173.7240  177.3670  203.5410 O.2   345  SER345     -0.2714
     56  CB       173.0340  179.2860  201.7220 C.3   345  SER345      0.2130
     57  OG       172.9090  179.8920  202.9960 O.3   345  SER345     -0.2179
     58  N        172.0200  175.9700  203.0660 N.am  346  THR346     -0.1936
     59  CA       172.3400  174.9830  204.0970 C.3   346  THR346      0.2028
     60  C        173.4110  173.9890  203.6410 C.2   346  THR346      0.2642
     61  O        174.1310  173.4160  204.4610 O.2   346  THR346     -0.2714
     62  CB       171.0780  174.1960  204.5240 C.3   346  THR346      0.1808
     63  OG1      170.2050  175.0490  205.2740 O.3   346  THR346     -0.2208
     64  CG2      171.4520  172.9890  205.3720 C.3   346  THR346      0.0379
     65  N        173.5130  173.8090  202.3260 N.am  347  ALA347     -0.1963
     66  CA       174.3160  172.7450  201.7220 C.3   347  ALA347      0.1728
     67  C        173.7220  171.3790  202.0430 C.2   347  ALA347      0.2616
     68  O        174.4380  170.3790  202.1250 O.2   347  ALA347     -0.2715
     69  CB       175.7610  172.8180  202.1870 C.3   347  ALA347      0.0334
     70  N        172.4060  171.3510  202.2250 N.am  348  LYS348     -0.1963
     71  CA       171.6730  170.1070  202.4190 C.3   348  LYS348      0.1728
     72  C        171.6000  169.3310  201.1070 C.2   348  LYS348      0.2617
     73  O        171.8560  168.1260  201.0690 O.2   348  LYS348     -0.2715
     74  CB       170.2670  170.3910  202.9510 C.3   348  LYS348      0.0311
     75  CG       169.4390  171.2780  202.0380 C.3   348  LYS348      0.0038
     76  CD       167.9970  171.3950  202.5060 C.3   348  LYS348      0.0206
     77  CE       167.8870  172.1380  203.8280 C.3   348  LYS348      0.1093
     78  NZ       166.4840  172.5760  204.0830 N.3   348  LYS348     -0.1314
     79  N        171.2440  170.0360  200.0350 N.am  349  SER349     -0.1936
     80  CA       171.2310  169.4610  198.6960 C.3   349  SER349      0.2055
     81  C        172.6460  169.0710  198.2970 C.2   349  SER349      0.2642
     82  O        172.8590  168.0650  197.6200 O.2   349  SER349     -0.2714
     83  CB       170.6450  170.4480  197.6870 C.3   349  SER349      0.2130
     84  OG       169.3120  170.7920  198.0200 O.3   349  SER349     -0.2179
     85  N        173.6070  169.8860  198.7210 N.am  350  GLN350     -0.1976
     86  CA       175.0180  169.5750  198.5480 C.3   350  GLN350      0.1601
     87  C        175.3270  168.2090  199.1580 C.2   350  GLN350      0.2287
     88  O        176.0070  167.3820  198.5470 O.2   350  GLN350     -0.2864
     89  CB       175.8880  170.6570  199.1910 C.3   350  GLN350      0.0394
     90  CG       177.3820  170.4720  198.9710 C.3   350  GLN350      0.0908
     91  CD       177.8290  170.8990  197.5860 C.2   350  GLN350      0.2608
     92  OE1      178.2360  170.0730  196.7690 O.2   350  GLN350     -0.2717
     93  NE2      177.7610  172.1980  197.3170 N.am  350  GLN350     -0.0878
     94  N        163.9660  169.9660  197.2350 N.3   407  GLU407     -0.1245
     95  CA       162.7480  170.7540  197.0880 C.3   407  GLU407      0.1567
     96  C        161.5130  169.9110  197.3780 C.2   407  GLU407      0.2260
     97  O        160.4660  170.1000  196.7600 O.2   407  GLU407     -0.2867
     98  CB       162.6620  171.3480  195.6800 C.3   407  GLU407      0.0388
     99  CG       163.8860  172.1440  195.2700 C.3   407  GLU407      0.1160
    100  CD       164.1150  173.3470  196.1600 C.2   407  GLU407      0.3649
    101  OE1      163.1290  173.8630  196.7280 O.co2 407  GLU407     -0.2457
    102  OE2      165.2810  173.7710  196.2970 O.co2 407  GLU407     -0.2457
    103  N        164.6000  167.0480  201.2970 N.3   448  ALA448     -0.1231
    104  CA       165.0470  168.3340  201.8150 C.3   448  ALA448      0.1694
    105  C        164.0060  169.4140  201.5380 C.2   448  ALA448      0.2592
    106  O        163.3700  169.4150  200.4830 O.2   448  ALA448     -0.2718
    107  CB       166.3900  168.7150  201.2070 C.3   448  ALA448      0.0304
    108  N        163.8370  170.3360  202.4820 N.am  449  ALA449     -0.1966
    109  CA       162.8500  171.4020  202.3370 C.3   449  ALA449      0.1728
    110  C        163.2930  172.6920  203.0240 C.2   449  ALA449      0.2616
    111  O        163.9490  172.6600  204.0630 O.2   449  ALA449     -0.2715
    112  CB       161.5050  170.9490  202.8860 C.3   449  ALA449      0.0334
    113  N        162.9360  173.8260  202.4260 N.am  450  ASN450     -0.1972
    114  CA       163.2210  175.1340  203.0080 C.3   450  ASN450      0.1688
    115  C        162.2770  175.4620  204.1550 C.2   450  ASN450      0.2292
    116  O        161.2820  174.7690  204.3610 O.2   450  ASN450     -0.2864
    117  CB       163.1310  176.2320  201.9460 C.3   450  ASN450      0.1181
    118  CG       164.2970  176.2110  200.9800 C.2   450  ASN450      0.2629
    119  OD1      164.1100  176.2370  199.7640 O.2   450  ASN450     -0.2716
    120  ND2      165.5110  176.1690  201.5170 N.am  450  ASN450     -0.0877
    121  N        184.8360  178.5800  209.3650 N.3   494  ILE494     -0.1245
    122  CA       184.2140  178.4770  208.0480 C.3   494  ILE494      0.1561
    123  C        185.1350  178.8850  206.9010 C.2   494  ILE494      0.2260
    124  O        184.9880  178.3940  205.7840 O.2   494  ILE494     -0.2867
    125  CB       182.9380  179.3440  207.9650 C.3   494  ILE494      0.0252
    126  CG1      181.9080  178.8870  208.9970 C.3   494  ILE494      0.0019
    127  CG2      182.3400  179.2890  206.5670 C.3   494  ILE494      0.0019
    128  CD1      181.5090  177.4380  208.8510 C.3   494  ILE494      0.0001
    129  N        186.8800  176.3970  203.6900 N.3   498  VAL498     -0.1245
    130  CA       186.3410  176.9730  202.4640 C.3   498  VAL498      0.1561
    131  C        187.5030  177.4940  201.6250 C.2   498  VAL498      0.2260
    132  O        187.4560  177.4680  200.3950 O.2   498  VAL498     -0.2867
    133  CB       185.3320  178.1120  202.7480 C.3   498  VAL498      0.0252
    134  CG1      185.1860  179.0230  201.5360 C.3   498  VAL498      0.0019
    135  CG2      183.9790  177.5420  203.1580 C.3   498  VAL498      0.0019
@<TRIPOS>BOND
     1    99    98    1
     2    99   100    1
     3    98    95    1
     4   100   102   ar
     5   100   101   ar
     6    97    96    2
     7    92    91    2
     8    95    94    1
     9    95    96    1
    10    93    91   am
    11    91    90    1
    12    82    81    2
    13    83    84    1
    14    83    80    1
    15    81    80    1
    16    81    85   am
    17    88    87    2
    18    86    85    1
    19    86    87    1
    20    86    89    1
    21    80    79    1
    22    90    89    1
    23   119   118    2
    24    79    72   am
    25   132   131    2
    26   106   105    2
    27     6     5    1
    28     5     2    1
    29   118   120   am
    30   118   117    1
    31    73    72    2
    32    72    71    1
    33   107   104    1
    34   103   104    1
    35   134   133    1
    36   105   104    1
    37   105   108   am
    38   131   130    1
    39    52    53    1
    40    52    47   am
    41    53    56    1
    42    53    54    1
    43    49    50    1
    44    49    46    1
    45    66    67    1
    46    66    69    1
    47    66    65    1
    48    56    57    1
    49   117   114    1
    50    75    76    1
    51    75    74    1
    52    67    68    2
    53    67    70   am
    54     2     1    1
    55     2     3    1
    56    70    71    1
    57    50    51    1
    58    65    60   am
    59   109   108    1
    60   109   112    1
    61   109   110    1
    62    71    74    1
    63   113   114    1
    64   113   110   am
    65   130   133    1
    66   130   129    1
    67    46    47    1
    68    46    45    1
    69    76    77    1
    70    47    48    2
    71   133   135    1
    72    54    58   am
    73    54    55    2
    74   114   115    1
    75   110   111    2
    76    58    59    1
    77    14    12    1
    78     3     4    2
    79     3     7   am
    80    12    11    1
    81    60    59    1
    82    60    61    2
    83    51    45    1
    84    45    39   am
    85    77    78    1
    86     7     8    1
    87    59    62    1
    88   115   116    2
    89    62    63    1
    90    62    64    1
    91    11     8    1
    92    11    13    1
    93    39    40    2
    94    39    38    1
    95     8     9    1
    96   124   123    2
    97    38    37    1
    98    38    41    1
    99     9    10    2
   100     9    15   am
   101   127   125    1
   102    26    25    1
   103    24    25   ar
   104    24    22   ar
   105   123   122    1
   106    41    42    1
   107    15    16    1
   108    25    23   ar
   109    22    20   ar
   110    43    42   ar
   111   125   122    1
   112   125   126    1
   113    42    44   ar
   114   122   121    1
   115    23    21   ar
   116    20    21   ar
   117    20    19    1
   118    16    19    1
   119    16    17    1
   120   128   126    1
   121    18    17    2
   122    34    36   ar
   123    34    32   ar
   124    36    35   ar
   125    32    31    1
   126    32    33   ar
   127    31    28    1
   128    35    33   ar
   129    30    29    2
   130    28    29    1
   131    28    27    1
