@<TRIPOS>MOLECULE
tmp/5u8sK01.pdb
 119 113 0 0 0
SMALL
GASTEIGER

@<TRIPOS>ATOM
      1  N        176.0710  202.8730  173.9090 N.3   284  SER284     -0.1202
      2  CA       174.9380  203.7840  174.0420 C.3   284  SER284      0.2020
      3  C        174.6400  204.1350  175.4980 C.2   284  SER284      0.2619
      4  O        174.0460  205.1740  175.7790 O.2   284  SER284     -0.2717
      5  CB       173.6840  203.1860  173.3960 C.3   284  SER284      0.2103
      6  OG       172.5310  203.9320  173.7490 O.3   284  SER284     -0.2182
      7  N        175.0640  203.2740  176.4180 N.am  285  ILE285     -0.1965
      8  CA       174.6950  203.4050  177.8250 C.3   285  ILE285      0.1727
      9  C        175.5550  204.4260  178.5780 C.2   285  ILE285      0.2616
     10  O        176.7300  204.6160  178.2600 O.2   285  ILE285     -0.2715
     11  CB       174.7750  202.0410  178.5480 C.3   285  ILE285      0.0290
     12  CG1      173.8250  201.0220  177.9100 C.3   285  ILE285      0.0022
     13  CG2      174.4410  202.1890  180.0140 C.3   285  ILE285      0.0023
     14  CD1      174.3000  200.4710  176.5790 C.3   285  ILE285      0.0001
     15  N        174.9620  205.0830  179.5740 N.am  286  PHE286     -0.1974
     16  CA       175.6710  206.0980  180.3530 C.3   286  PHE286      0.1639
     17  C        175.6030  205.8660  181.8630 C.2   286  PHE286      0.2290
     18  O        174.5450  206.0020  182.4770 O.2   286  PHE286     -0.2864
     19  CB       175.1160  207.4880  180.0350 C.3   286  PHE286      0.0560
     20  CG       175.7220  208.5870  180.8600 C.ar  286  PHE286     -0.0200
     21  CD1      176.8650  209.2400  180.4320 C.ar  286  PHE286     -0.0042
     22  CD2      175.1500  208.9690  182.0640 C.ar  286  PHE286     -0.0042
     23  CE1      177.4280  210.2520  181.1870 C.ar  286  PHE286     -0.0003
     24  CE2      175.7080  209.9800  182.8250 C.ar  286  PHE286     -0.0003
     25  CZ       176.8490  210.6220  182.3860 C.ar  286  PHE286     -0.0000
     26  N        176.3500  203.7620  185.6420 N.3   288  ASN288     -0.1240
     27  CA       176.1020  202.4440  186.2150 C.3   288  ASN288      0.1653
     28  C        177.2220  201.4750  185.8580 C.2   288  ASN288      0.2266
     29  O        176.9780  200.2960  185.6060 O.2   288  ASN288     -0.2867
     30  CB       174.7520  201.8950  185.7450 C.3   288  ASN288      0.1155
     31  CG       173.5880  202.7760  186.1600 C.2   288  ASN288      0.2627
     32  OD1      173.5970  203.3640  187.2420 O.2   288  ASN288     -0.2716
     33  ND2      172.5810  202.8740  185.2990 N.am  288  ASN288     -0.0877
     34  N        161.6990  201.5020  186.4340 N.3   325  PRO325     -0.2102
     35  CA       161.8160  201.5830  184.9770 C.3   325  PRO325      0.1504
     36  C        162.5400  202.8620  184.5690 C.2   325  PRO325      0.2576
     37  O        162.4090  203.8880  185.2380 O.2   325  PRO325     -0.2718
     38  CB       160.3580  201.5750  184.4990 C.3   325  PRO325      0.0282
     39  CG       159.5370  201.8920  185.7060 C.3   325  PRO325      0.0208
     40  CD       160.3020  201.3420  186.8650 C.3   325  PRO325      0.0893
     41  N        163.2990  202.7910  183.4830 N.am  326  GLY326     -0.1943
     42  CA       164.2490  203.8360  183.1560 C.3   326  GLY326      0.2014
     43  C        165.5980  203.3650  183.6560 C.2   326  GLY326      0.2640
     44  O        166.5810  204.1040  183.6620 O.2   326  GLY326     -0.2714
     45  N        165.6190  202.1140  184.1050 N.am  327  THR327     -0.1936
     46  CA       166.8420  201.4410  184.5130 C.3   327  THR327      0.2028
     47  C        167.6140  201.0180  183.2730 C.2   327  THR327      0.2642
     48  O        168.8400  200.8820  183.2960 O.2   327  THR327     -0.2714
     49  CB       166.5370  200.2070  185.3890 C.3   327  THR327      0.1808
     50  OG1      165.9390  200.6290  186.6210 O.3   327  THR327     -0.2208
     51  CG2      167.8060  199.4220  185.6820 C.3   327  THR327      0.0379
     52  N        166.8720  200.8160  182.1890 N.am  328  ALA328     -0.1963
     53  CA       167.4290  200.3500  180.9270 C.3   328  ALA328      0.1728
     54  C        168.1060  198.9930  181.0980 C.2   328  ALA328      0.2616
     55  O        169.0000  198.6370  180.3310 O.2   328  ALA328     -0.2715
     56  CB       168.4090  201.3700  180.3700 C.3   328  ALA328      0.0334
     57  N        167.6730  198.2420  182.1070 N.am  329  LYS329     -0.1963
     58  CA       168.2370  196.9250  182.3950 C.3   329  LYS329      0.1728
     59  C        167.7800  195.8800  181.3780 C.2   329  LYS329      0.2617
     60  O        168.5660  195.0320  180.9550 O.2   329  LYS329     -0.2715
     61  CB       167.8620  196.4870  183.8130 C.3   329  LYS329      0.0311
     62  CG       166.3850  196.6500  184.1390 C.3   329  LYS329      0.0038
     63  CD       166.0530  196.1330  185.5330 C.3   329  LYS329      0.0206
     64  CE       164.6280  196.4850  185.9290 C.3   329  LYS329      0.1093
     65  NZ       164.4280  197.9580  185.9840 N.3   329  LYS329     -0.1314
     66  N        166.5090  195.9460  180.9890 N.am  330  SER330     -0.1936
     67  CA       165.9840  195.0860  179.9330 C.3   330  SER330      0.2055
     68  C        166.6760  195.4050  178.6140 C.2   330  SER330      0.2642
     69  O        166.9940  194.5080  177.8340 O.2   330  SER330     -0.2714
     70  CB       164.4730  195.2550  179.7890 C.3   330  SER330      0.2130
     71  OG       163.8170  195.0680  181.0300 O.3   330  SER330     -0.2179
     72  N        166.9000  196.6930  178.3720 N.am  331  GLN331     -0.1976
     73  CA       167.6990  197.1300  177.2360 C.3   331  GLN331      0.1601
     74  C        169.1250  196.6260  177.3980 C.2   331  GLN331      0.2287
     75  O        169.7930  196.2880  176.4210 O.2   331  GLN331     -0.2864
     76  CB       167.6800  198.6540  177.1140 C.3   331  GLN331      0.0394
     77  CG       168.6570  199.2140  176.0940 C.3   331  GLN331      0.0908
     78  CD       168.6010  200.7250  176.0170 C.2   331  GLN331      0.2608
     79  OE1      167.6530  201.3450  176.4940 O.2   331  GLN331     -0.2717
     80  NE2      169.6230  201.3270  175.4220 N.am  331  GLN331     -0.0878
     81  N        163.4890  188.7060  182.6210 N.3   387  ASP387     -0.1239
     82  CA       162.6610  189.8600  182.9470 C.3   387  ASP387      0.1674
     83  C        161.3620  189.3970  183.5890 C.2   387  ASP387      0.2266
     84  O        160.9890  188.2290  183.4700 O.2   387  ASP387     -0.2867
     85  CB       162.3600  190.6930  181.7000 C.3   387  ASP387      0.1410
     86  CG       163.3720  191.7920  181.4730 C.2   387  ASP387      0.3668
     87  OD1      164.1370  192.1020  182.4090 O.co2 387  ASP387     -0.2456
     88  OD2      163.3950  192.3550  180.3600 O.co2 387  ASP387     -0.2456
     89  N        161.6840  193.7240  188.1140 N.3   431  ASN431     -0.1240
     90  CA       161.4110  195.0290  188.7220 C.3   431  ASN431      0.1653
     91  C        160.8830  194.9240  190.1470 C.2   431  ASN431      0.2266
     92  O        160.0290  194.0870  190.4400 O.2   431  ASN431     -0.2867
     93  CB       160.4080  195.8270  187.8800 C.3   431  ASN431      0.1155
     94  CG       161.0170  196.3820  186.6070 C.2   431  ASN431      0.2627
     95  OD1      161.6810  197.4190  186.6210 O.2   431  ASN431     -0.2716
     96  ND2      160.7760  195.7020  185.4940 N.am  431  ASN431     -0.0877
     97  N        173.8080  212.6150  180.3200 N.3   475  ILE475     -0.1245
     98  CA       173.2400  211.5380  179.5190 C.3   475  ILE475      0.1561
     99  C        172.0550  212.0310  178.6970 C.2   475  ILE475      0.2260
    100  O        171.7500  211.4770  177.6410 O.2   475  ILE475     -0.2867
    101  CB       172.7940  210.3540  180.4030 C.3   475  ILE475      0.0252
    102  CG1      172.0790  209.2920  179.5650 C.3   475  ILE475      0.0019
    103  CG2      171.8960  210.8380  181.5280 C.3   475  ILE475      0.0019
    104  CD1      172.8540  208.8430  178.3480 C.3   475  ILE475      0.0001
    105  N        171.8190  211.2250  175.0210 N.3   479  VAL479     -0.1245
    106  CA       170.7180  210.6030  174.2930 C.3   479  VAL479      0.1561
    107  C        170.5950  211.1520  172.8680 C.2   479  VAL479      0.2260
    108  O        170.6410  210.3890  171.9040 O.2   479  VAL479     -0.2867
    109  CB       169.3780  210.7930  175.0370 C.3   479  VAL479      0.0252
    110  CG1      168.2260  210.2430  174.2120 C.3   479  VAL479      0.0019
    111  CG2      169.4250  210.1200  176.4040 C.3   479  VAL479      0.0019
    112  N        173.0830  210.0780  170.5820 N.3   482  ILE482     -0.1245
    113  CA       172.8250  208.7110  170.1440 C.3   482  ILE482      0.1561
    114  C        172.0200  208.7070  168.8450 C.2   482  ILE482      0.2260
    115  O        172.1200  207.7800  168.0430 O.2   482  ILE482     -0.2867
    116  CB       172.0620  207.8960  171.2180 C.3   482  ILE482      0.0252
    117  CG1      172.9090  207.7360  172.4820 C.3   482  ILE482      0.0019
    118  CG2      171.6660  206.5310  170.6770 C.3   482  ILE482      0.0019
    119  CD1      172.2050  206.9950  173.6020 C.3   482  ILE482      0.0001
@<TRIPOS>BOND
     1   115   114    2
     2   114   113    1
     3   113   112    1
     4   113   116    1
     5   118   116    1
     6   116   117    1
     7   108   107    2
     8   117   119    1
     9   107   106    1
    10     5     6    1
    11     5     2    1
    12     1     2    1
    13     2     3    1
    14   110   109    1
    15   106   105    1
    16   106   109    1
    17   109   111    1
    18    80    78   am
    19     3     4    2
    20     3     7   am
    21    78    77    1
    22    78    79    2
    23    77    76    1
    24     7     8    1
    25    75    74    2
    26    14    12    1
    27    76    73    1
    28    73    74    1
    29    73    72    1
    30   100    99    2
    31     8    11    1
    32     8     9    1
    33    69    68    2
    34    12    11    1
    35    10     9    2
    36   104   102    1
    37    72    68   am
    38    11    13    1
    39     9    15   am
    40    68    67    1
    41    99    98    1
    42    98    97    1
    43    98   101    1
    44   102   101    1
    45    15    16    1
    46    70    67    1
    47    70    71    1
    48    67    66    1
    49    19    16    1
    50    19    20    1
    51    55    54    2
    52    16    17    1
    53    88    86   ar
    54    56    53    1
    55   101   103    1
    56    21    20   ar
    57    21    23   ar
    58    20    22   ar
    59    53    54    1
    60    53    52    1
    61    60    59    2
    62    66    59   am
    63    54    57   am
    64    23    25   ar
    65    59    58    1
    66    86    85    1
    67    86    87   ar
    68    85    82    1
    69    17    18    2
    70    22    24   ar
    71    57    58    1
    72    52    47   am
    73    25    24   ar
    74    58    61    1
    75    81    82    1
    76    82    83    1
    77    42    41    1
    78    42    43    1
    79    47    48    2
    80    47    46    1
    81    84    83    2
    82    41    36   am
    83    43    44    2
    84    43    45   am
    85    61    62    1
    86    45    46    1
    87    62    63    1
    88    38    35    1
    89    38    39    1
    90    46    49    1
    91    36    35    1
    92    36    37    2
    93    35    34    1
    94    33    31   am
    95    49    51    1
    96    49    50    1
    97    96    94   am
    98    63    64    1
    99    29    28    2
   100    26    27    1
   101    39    40    1
   102    30    31    1
   103    30    27    1
   104    28    27    1
   105    64    65    1
   106    31    32    2
   107    34    40    1
   108    94    95    2
   109    94    93    1
   110    93    90    1
   111    89    90    1
   112    90    91    1
   113    91    92    2
