@<TRIPOS>MOLECULE
tmp/5u8tD00.pdb
 116 109 0 0 0
SMALL
GASTEIGER

@<TRIPOS>ATOM
      1  N        179.9360  168.7130  197.6680 N.3   316  MET316     -0.1245
      2  CA       179.6110  170.1290  197.8340 C.3   316  MET316      0.1570
      3  C        180.2590  171.0080  196.7700 C.2   316  MET316      0.2261
      4  O        181.4750  170.9860  196.5930 O.2   316  MET316     -0.2867
      5  CB       180.0690  170.6160  199.2150 C.3   316  MET316      0.0387
      6  CG       178.9420  170.9490  200.1600 C.3   316  MET316      0.0595
      7  SD       179.4790  171.7220  201.6930 S.3   316  MET316     -0.1393
      8  CE       179.2450  170.3620  202.8350 C.3   316  MET316      0.0692
      9  N        179.8330  175.1630  195.0370 N.3   318  LEU318     -0.1231
     10  CA       179.1910  176.4680  195.0960 C.3   318  LEU318      0.1693
     11  C        179.1440  177.0840  193.7000 C.2   318  LEU318      0.2591
     12  O        180.0520  176.8990  192.8900 O.2   318  LEU318     -0.2718
     13  CB       179.9210  177.3810  196.0900 C.3   318  LEU318      0.0284
     14  CG       179.5300  177.3190  197.5770 C.3   318  LEU318      0.0019
     15  CD1      179.4380  175.8940  198.1080 C.3   318  LEU318      0.0001
     16  CD2      180.5140  178.1220  198.4160 C.3   318  LEU318      0.0001
     17  N        178.0670  177.8120  193.4330 N.am  319  ARG319     -0.1980
     18  CA       177.6970  178.2320  192.0840 C.3   319  ARG319      0.1597
     19  C        178.5180  179.3660  191.4810 C.2   319  ARG319      0.2287
     20  O        179.1710  180.1260  192.1930 O.2   319  ARG319     -0.2864
     21  CB       176.2320  178.6520  192.0900 C.3   319  ARG319      0.0334
     22  CG       175.9600  179.8200  193.0290 C.3   319  ARG319      0.0492
     23  CD       174.5170  179.8170  193.4760 C.3   319  ARG319      0.2205
     24  NE       174.1280  180.9550  194.3030 N.pl3 319  ARG319     -0.0865
     25  CZ       173.5440  182.0540  193.8360 C.cat 319  ARG319      0.5346
     26  NH1      173.2150  183.0340  194.6670 N.pl3 319  ARG319      0.1354
     27  NH2      173.3030  182.1820  192.5380 N.pl3 319  ARG319      0.1354
     28  N        164.4370  178.7990  191.9250 N.3   406  HIS406     -0.1226
     29  CA       164.8740  178.9980  193.3040 C.3   406  HIS406      0.1752
     30  C        165.9600  177.9990  193.6890 C.2   406  HIS406      0.2595
     31  O        166.5780  178.1040  194.7440 O.2   406  HIS406     -0.2718
     32  CB       163.6930  178.8560  194.2740 C.3   406  HIS406      0.0759
     33  CG       162.6980  179.9730  194.2060 C.ar  406  HIS406      0.0818
     34  ND1      163.0250  181.2500  193.8010 N.ar  406  HIS406     -0.2268
     35  CD2      161.3780  180.0020  194.5100 C.ar  406  HIS406      0.1154
     36  CE1      161.9480  182.0150  193.8520 C.ar  406  HIS406      0.1986
     37  NE2      160.9360  181.2820  194.2820 N.ar  406  HIS406     -0.2212
     38  N        166.1690  177.0250  192.8170 N.am  407  GLU407     -0.1979
     39  CA       166.9890  175.8620  193.0930 C.3   407  GLU407      0.1602
     40  C        168.1750  175.8010  192.1310 C.2   407  GLU407      0.2287
     41  O        169.3400  175.7980  192.5450 O.2   407  GLU407     -0.2864
     42  CB       166.1280  174.6070  192.9970 C.3   407  GLU407      0.0415
     43  CG       166.8250  173.3300  193.3420 C.3   407  GLU407      0.1163
     44  CD       167.2800  172.5860  192.1140 C.2   407  GLU407      0.3649
     45  OE1      166.5000  172.5120  191.1380 O.co2 407  GLU407     -0.2457
     46  OE2      168.4190  172.0790  192.1250 O.co2 407  GLU407     -0.2457
     47  N        171.0440  177.9810  192.4350 N.3   410  GLU410     -0.1231
     48  CA       171.8920  177.6600  193.5780 C.3   410  GLU410      0.1699
     49  C        172.6140  176.3300  193.4350 C.2   410  GLU410      0.2592
     50  O        173.8440  176.2780  193.4130 O.2   410  GLU410     -0.2718
     51  CB       171.0640  177.6470  194.8600 C.3   410  GLU410      0.0402
     52  CG       170.5970  179.0130  195.2990 C.3   410  GLU410      0.1161
     53  CD       169.4530  179.5470  194.4690 C.2   410  GLU410      0.3649
     54  OE1      168.9700  178.8350  193.5640 O.co2 410  GLU410     -0.2457
     55  OE2      169.0370  180.6870  194.7280 O.co2 410  GLU410     -0.2457
     56  N        171.8400  175.2580  193.3430 N.am  411  GLN411     -0.1979
     57  CA       172.3930  173.9140  193.3170 C.3   411  GLN411      0.1601
     58  C        172.9110  173.5740  191.9260 C.2   411  GLN411      0.2287
     59  O        173.3850  172.4630  191.6890 O.2   411  GLN411     -0.2864
     60  CB       171.3460  172.8910  193.7630 C.3   411  GLN411      0.0394
     61  CG       171.1930  172.7700  195.2760 C.3   411  GLN411      0.0908
     62  CD       170.7420  174.0600  195.9300 C.2   411  GLN411      0.2608
     63  OE1      169.8680  174.7570  195.4160 O.2   411  GLN411     -0.2717
     64  NE2      171.3460  174.3910  197.0650 N.am  411  GLN411     -0.0878
     65  N        162.7650  185.8670  200.3810 N.3   457  THR457     -0.1218
     66  CA       163.8190  184.8690  200.2280 C.3   457  THR457      0.1862
     67  C        164.4400  184.8450  198.8310 C.2   457  THR457      0.2287
     68  O        165.6110  184.4790  198.6610 O.2   457  THR457     -0.2866
     69  CB       163.2720  183.4700  200.5630 C.3   457  THR457      0.1770
     70  OG1      162.3290  183.0720  199.5600 O.3   457  THR457     -0.2211
     71  CG2      162.5760  183.4940  201.9150 C.3   457  THR457      0.0375
     72  N        167.6450  186.6980  198.6960 N.3   460  SER460     -0.1202
     73  CA       168.7340  185.8580  199.1790 C.3   460  SER460      0.2020
     74  C        169.2190  184.9300  198.0820 C.2   460  SER460      0.2618
     75  O        170.4200  184.7140  197.9110 O.2   460  SER460     -0.2717
     76  CB       168.2750  185.0410  200.3830 C.3   460  SER460      0.2103
     77  OG       167.2890  184.0970  200.0110 O.3   460  SER460     -0.2182
     78  N        168.2640  184.3860  197.3430 N.am  461  ARG461     -0.1979
     79  CA       168.5730  183.5130  196.2240 C.3   461  ARG461      0.1597
     80  C        169.3530  184.2350  195.1440 C.2   461  ARG461      0.2287
     81  O        170.2160  183.6610  194.4850 O.2   461  ARG461     -0.2864
     82  CB       167.2910  182.9440  195.6580 C.3   461  ARG461      0.0334
     83  CG       166.6130  182.0470  196.6400 C.3   461  ARG461      0.0492
     84  CD       165.9480  180.9530  195.8900 C.3   461  ARG461      0.2205
     85  NE       165.3310  179.9700  196.7650 N.pl3 461  ARG461     -0.0865
     86  CZ       164.1580  180.1410  197.3620 C.cat 461  ARG461      0.5346
     87  NH1      163.4850  181.2710  197.2010 N.pl3 461  ARG461      0.1354
     88  NH2      163.6640  179.1850  198.1320 N.pl3 461  ARG461      0.1354
     89  N        173.9870  184.4140  204.8240 N.3   559  ILE559     -0.1231
     90  CA       175.3850  184.0070  204.7450 C.3   559  ILE559      0.1692
     91  C        175.7310  183.6040  203.3180 C.2   559  ILE559      0.2591
     92  O        176.8900  183.3420  202.9990 O.2   559  ILE559     -0.2718
     93  CB       175.6950  182.8450  205.6870 C.3   559  ILE559      0.0266
     94  CG1      174.9050  181.6110  205.2720 C.3   559  ILE559      0.0019
     95  CG2      175.3590  183.2160  207.1190 C.3   559  ILE559      0.0020
     96  CD1      174.5870  180.7210  206.4360 C.3   559  ILE559      0.0001
     97  N        174.7130  183.5430  202.4670 N.am  560  ARG560     -0.1980
     98  CA       174.9290  183.3650  201.0390 C.3   560  ARG560      0.1597
     99  C        175.0770  184.7370  200.3850 C.2   560  ARG560      0.2287
    100  O        175.4150  184.8410  199.2100 O.2   560  ARG560     -0.2864
    101  CB       173.7830  182.5810  200.3950 C.3   560  ARG560      0.0334
    102  CG       174.0160  182.2250  198.9300 C.3   560  ARG560      0.0492
    103  CD       172.7290  181.8350  198.2410 C.3   560  ARG560      0.2205
    104  NE       172.3510  180.4590  198.5360 N.pl3 560  ARG560     -0.0865
    105  CZ       171.1200  179.9810  198.4080 C.cat 560  ARG560      0.5346
    106  NH1      170.8670  178.7120  198.6920 N.pl3 560  ARG560      0.1354
    107  NH2      170.1400  180.7700  197.9940 N.pl3 560  ARG560      0.1354
    108  N        178.9320  185.3450  200.7380 N.3   563  GLU563     -0.1245
    109  CA       179.4820  184.4330  199.7440 C.3   563  GLU563      0.1567
    110  C        179.1820  184.9290  198.3240 C.2   563  GLU563      0.2260
    111  O        179.9760  184.7530  197.3850 O.2   563  GLU563     -0.2867
    112  CB       178.9060  183.0350  199.9940 C.3   563  GLU563      0.0388
    113  CG       179.4720  181.9320  199.1500 C.3   563  GLU563      0.1160
    114  CD       178.8210  181.8760  197.7980 C.2   563  GLU563      0.3649
    115  OE1      177.5860  182.0470  197.7260 O.co2 563  GLU563     -0.2457
    116  OE2      179.5490  181.6870  196.8050 O.co2 563  GLU563     -0.2457
@<TRIPOS>BOND
     1    45    44   ar
     2    19    18    1
     3    19    20    2
     4    59    58    2
     5    28    29    1
     6    58    57    1
     7    18    21    1
     8    18    17    1
     9    21    22    1
    10    44    46   ar
    11    44    43    1
    12    40    41    2
    13    40    39    1
    14    47    48    1
    15    27    25    1
    16    38    39    1
    17    38    30   am
    18    12    11    2
    19    42    39    1
    20    42    43    1
    21    22    23    1
    22    29    30    1
    23    29    32    1
    24    57    56    1
    25    57    60    1
    26    56    49   am
    27    50    49    2
    28    17    11   am
    29    49    48    1
    30    23    24    1
    31    54    53   ar
    32    48    51    1
    33    30    31    2
    34    11    10    1
    35    60    61    1
    36    34    36   ar
    37    34    33   ar
    38    25    24    2
    39    25    26    1
    40    36    37   ar
    41    33    32    1
    42    33    35   ar
    43    37    35   ar
    44    53    55   ar
    45    53    52    1
    46    81    80    2
    47    51    52    1
    48     9    10    1
    49    10    13    1
    50    80    79    1
    51    61    62    1
    52    63    62    2
    53    82    79    1
    54    82    83    1
    55    84    83    1
    56    84    85    1
    57    62    64   am
    58    13    14    1
    59    79    78    1
    60     4     3    2
    61    85    86    2
    62     3     2    1
    63   116   114   ar
    64    87    86    1
    65    78    74   am
    66    86    88    1
    67   111   110    2
    68    14    15    1
    69    14    16    1
    70     1     2    1
    71   115   114   ar
    72   114   113    1
    73     2     5    1
    74    75    74    2
    75   107   105    1
    76    74    73    1
    77   103   104    1
    78   103   102    1
    79   110   109    1
    80   105   104    2
    81   105   106    1
    82    68    67    2
    83    72    73    1
    84    67    66    1
    85   102   101    1
    86   113   112    1
    87    73    76    1
    88   100    99    2
    89     5     6    1
    90    70    69    1
    91   109   112    1
    92   109   108    1
    93    77    76    1
    94     6     7    1
    95    66    65    1
    96    66    69    1
    97    99    98    1
    98   101    98    1
    99    69    71    1
   100    98    97    1
   101     7     8    1
   102    97    91   am
   103    92    91    2
   104    91    90    1
   105    90    89    1
   106    90    93    1
   107    94    93    1
   108    94    96    1
   109    93    95    1
