@<TRIPOS>MOLECULE
tmp/5u8tE00.pdb
 97 91 0 0 0
SMALL
GASTEIGER

@<TRIPOS>ATOM
      1  N        126.1440  204.2010  162.2290 N.3   323  LEU323     -0.1231
      2  CA       125.5060  204.7870  163.4060 C.3   323  LEU323      0.1693
      3  C        124.3060  203.9620  163.8610 C.2   323  LEU323      0.2591
      4  O        123.7200  203.2110  163.0810 O.2   323  LEU323     -0.2718
      5  CB       125.0700  206.2340  163.1350 C.3   323  LEU323      0.0284
      6  CG       124.0660  206.5740  162.0210 C.3   323  LEU323      0.0019
      7  CD1      122.6130  206.3260  162.4080 C.3   323  LEU323      0.0001
      8  CD2      124.2420  208.0180  161.5800 C.3   323  LEU323      0.0001
      9  N        123.9610  204.0990  165.1370 N.am  324  ARG324     -0.1980
     10  CA       122.6940  203.6020  165.6670 C.3   324  ARG324      0.1597
     11  C        121.5710  204.6160  165.4380 C.2   324  ARG324      0.2287
     12  O        121.8180  205.8190  165.4470 O.2   324  ARG324     -0.2864
     13  CB       122.8300  203.2970  167.1540 C.3   324  ARG324      0.0334
     14  CG       123.4410  201.9570  167.4340 C.3   324  ARG324      0.0492
     15  CD       124.3650  202.0370  168.6170 C.3   324  ARG324      0.2205
     16  NE       125.1480  200.8180  168.7200 N.pl3 324  ARG324     -0.0865
     17  CZ       124.9130  199.8560  169.6000 C.cat 324  ARG324      0.5346
     18  NH1      123.9320  199.9780  170.4830 N.pl3 324  ARG324      0.1354
     19  NH2      125.6760  198.7820  169.6080 N.pl3 324  ARG324      0.1354
     20  N        130.2340  195.4600  180.8690 N.3   408  VAL408     -0.1245
     21  CA       130.6140  196.1360  179.6400 C.3   408  VAL408      0.1561
     22  C        131.0190  195.1440  178.5440 C.2   408  VAL408      0.2260
     23  O        131.2030  195.5230  177.3860 O.2   408  VAL408     -0.2867
     24  CB       131.7400  197.1300  179.9210 C.3   408  VAL408      0.0252
     25  CG1      131.7930  198.2130  178.8500 C.3   408  VAL408      0.0019
     26  CG2      131.5040  197.7510  181.2820 C.3   408  VAL408      0.0019
     27  N        128.4220  194.9540  176.5970 N.3   411  HIS411     -0.1241
     28  CA       128.2560  196.3070  176.0710 C.3   411  HIS411      0.1621
     29  C        129.0440  196.5490  174.7800 C.2   411  HIS411      0.2264
     30  O        128.9330  197.6140  174.1690 O.2   411  HIS411     -0.2867
     31  CB       128.6380  197.3470  177.1270 C.3   411  HIS411      0.0745
     32  CG       128.5490  198.7630  176.6420 C.ar  411  HIS411      0.0817
     33  ND1      129.6070  199.4080  176.0390 N.ar  411  HIS411     -0.2268
     34  CD2      127.5260  199.6480  176.6510 C.ar  411  HIS411      0.1154
     35  CE1      129.2400  200.6310  175.7060 C.ar  411  HIS411      0.1986
     36  NE2      127.9840  200.8030  176.0690 N.ar  411  HIS411     -0.2212
     37  N        127.8010  199.3190  171.6970 N.3   415  GLU415     -0.1245
     38  CA       128.3720  200.3980  170.8990 C.3   415  GLU415      0.1567
     39  C        128.7070  199.9150  169.4980 C.2   415  GLU415      0.2260
     40  O        128.0870  200.3340  168.5200 O.2   415  GLU415     -0.2867
     41  CB       129.6160  200.9780  171.5680 C.3   415  GLU415      0.0388
     42  CG       130.1700  202.2030  170.8530 C.3   415  GLU415      0.1160
     43  CD       131.3370  201.8780  169.9480 C.2   415  GLU415      0.3649
     44  OE1      132.0440  200.8870  170.2260 O.co2 415  GLU415     -0.2457
     45  OE2      131.5590  202.6200  168.9680 O.co2 415  GLU415     -0.2457
     46  N        129.2200  204.2680  180.7980 N.3   462  PRO462     -0.2116
     47  CA       129.3920  203.7450  179.4370 C.3   462  PRO462      0.1372
     48  C        128.3300  202.7460  178.9830 C.2   462  PRO462      0.2244
     49  O        127.8620  202.8370  177.8480 O.2   462  PRO462     -0.2868
     50  CB       130.7650  203.0440  179.5010 C.3   462  PRO462      0.0268
     51  CG       131.2880  203.2610  180.8940 C.3   462  PRO462      0.0207
     52  CD       130.5300  204.4110  181.4510 C.3   462  PRO462      0.0892
     53  N        124.3350  204.3530  177.5570 N.3   466  ARG466     -0.1245
     54  CA       124.1320  203.7210  176.2680 C.3   466  ARG466      0.1563
     55  C        122.7220  203.1570  176.0950 C.2   466  ARG466      0.2260
     56  O        122.1870  203.1470  174.9860 O.2   466  ARG466     -0.2867
     57  CB       125.1680  202.6200  176.0730 C.3   466  ARG466      0.0307
     58  CG       125.0880  201.9580  174.7260 C.3   466  ARG466      0.0489
     59  CD       125.1620  202.9830  173.5960 C.3   466  ARG466      0.2205
     60  NE       126.5300  203.4230  173.3290 N.pl3 466  ARG466     -0.0865
     61  CZ       126.9180  204.0310  172.2100 C.cat 466  ARG466      0.5346
     62  NH1      128.1820  204.4040  172.0620 N.pl3 466  ARG466      0.1354
     63  NH2      126.0430  204.2780  171.2430 N.pl3 466  ARG466      0.1354
     64  N        124.2650  212.6970  177.4960 N.3   554  THR554     -0.1203
     65  CA       125.2520  212.2290  176.5440 C.3   554  THR554      0.1994
     66  C        125.0600  212.6940  175.0860 C.2   554  THR554      0.2618
     67  O        123.9380  212.8610  174.6300 O.2   554  THR554     -0.2717
     68  CB       125.2380  210.6980  176.6240 C.3   554  THR554      0.1784
     69  OG1      125.7410  210.2790  177.8990 O.3   554  THR554     -0.2211
     70  CG2      126.0440  210.0920  175.5800 C.3   554  THR554      0.0376
     71  N        126.1580  212.9580  174.3750 N.am  555  VAL555     -0.1965
     72  CA       126.0920  213.2810  172.9440 C.3   555  VAL555      0.1727
     73  C        125.3170  212.2050  172.1840 C.2   555  VAL555      0.2616
     74  O        124.6410  212.4720  171.1890 O.2   555  VAL555     -0.2715
     75  CB       127.4950  213.4200  172.3310 C.3   555  VAL555      0.0290
     76  CG1      127.4070  213.7840  170.8530 C.3   555  VAL555      0.0023
     77  CG2      128.2880  214.4600  173.0920 C.3   555  VAL555      0.0023
     78  N        125.4210  210.9810  172.6800 N.am  556  ARG556     -0.1977
     79  CA       124.6550  209.8670  172.1560 C.3   556  ARG556      0.1597
     80  C        123.1570  210.0940  172.3380 C.2   556  ARG556      0.2287
     81  O        122.3820  209.5900  171.5500 O.2   556  ARG556     -0.2864
     82  CB       125.1000  208.5750  172.8360 C.3   556  ARG556      0.0334
     83  CG       124.1880  207.3850  172.7520 C.3   556  ARG556      0.0492
     84  CD       124.6790  206.3970  173.7770 C.3   556  ARG556      0.2205
     85  NE       126.1410  206.3800  173.7950 N.pl3 556  ARG556     -0.0865
     86  CZ       126.8850  206.2150  174.8860 C.cat 556  ARG556      0.5346
     87  NH1      126.3130  206.0590  176.0680 N.pl3 556  ARG556      0.1354
     88  NH2      128.2080  206.2140  174.7970 N.pl3 556  ARG556      0.1354
     89  N        121.5980  211.2260  169.2390 N.3   559  GLU559     -0.1245
     90  CA       121.4260  210.0740  168.3800 C.3   559  GLU559      0.1567
     91  C        120.2120  209.2700  168.8570 C.2   559  GLU559      0.2260
     92  O        119.4980  208.6610  168.0600 O.2   559  GLU559     -0.2867
     93  CB       122.7100  209.2440  168.3930 C.3   559  GLU559      0.0388
     94  CG       122.6390  207.9210  167.6820 C.3   559  GLU559      0.1160
     95  CD       122.0190  206.8480  168.5430 C.2   559  GLU559      0.3649
     96  OE1      122.4650  206.6790  169.6990 O.co2 559  GLU559     -0.2457
     97  OE2      121.0670  206.1900  168.0770 O.co2 559  GLU559     -0.2457
@<TRIPOS>BOND
     1     8     6    1
     2     6     7    1
     3     6     5    1
     4     1     2    1
     5     4     3    2
     6     5     2    1
     7     2     3    1
     8     3     9   am
     9     9    10    1
    10    11    12    2
    11    11    10    1
    12    10    13    1
    13    13    14    1
    14    14    15    1
    15    94    93    1
    16    94    95    1
    17    92    91    2
    18    97    95   ar
    19    90    93    1
    20    90    91    1
    21    90    89    1
    22    40    39    2
    23    95    96   ar
    24    15    16    1
    25    16    17    2
    26    45    43   ar
    27    39    38    1
    28    17    19    1
    29    17    18    1
    30    43    44   ar
    31    43    42    1
    32    42    41    1
    33    76    75    1
    34    38    41    1
    35    38    37    1
    36    74    73    2
    37    63    61    1
    38    81    80    2
    39    62    61    1
    40    79    80    1
    41    79    78    1
    42    79    82    1
    43    73    78   am
    44    73    72    1
    45    61    60    2
    46    75    72    1
    47    75    77    1
    48    83    82    1
    49    83    84    1
    50    72    71    1
    51    60    59    1
    52    59    58    1
    53    84    85    1
    54    85    86    2
    55    30    29    2
    56    71    66   am
    57    67    66    2
    58    58    57    1
    59    29    28    1
    60    88    86    1
    61    86    87    1
    62    56    55    2
    63    66    65    1
    64    70    68    1
    65    35    33   ar
    66    35    36   ar
    67    33    32   ar
    68    36    34   ar
    69    28    27    1
    70    28    31    1
    71    57    54    1
    72    55    54    1
    73    54    53    1
    74    65    68    1
    75    65    64    1
    76    68    69    1
    77    32    34   ar
    78    32    31    1
    79    23    22    2
    80    49    48    2
    81    22    21    1
    82    25    24    1
    83    48    47    1
    84    47    50    1
    85    47    46    1
    86    50    51    1
    87    21    24    1
    88    21    20    1
    89    24    26    1
    90    46    52    1
    91    51    52    1
