@<TRIPOS>MOLECULE
tmp/5u8tA01.pdb
 102 97 0 0 0
SMALL
GASTEIGER

@<TRIPOS>ATOM
      1  N        170.0370  197.4700  169.8360 N.3   299  HIS299     -0.1241
      2  CA       168.6280  197.8190  169.9840 C.3   299  HIS299      0.1621
      3  C        168.0660  198.6460  168.8320 C.2   299  HIS299      0.2264
      4  O        168.7320  199.5330  168.2980 O.2   299  HIS299     -0.2867
      5  CB       168.4550  198.6230  171.2630 C.3   299  HIS299      0.0745
      6  CG       169.1440  199.9500  171.2090 C.ar  299  HIS299      0.0817
      7  ND1      168.4610  201.1410  171.0860 N.ar  299  HIS299     -0.2268
      8  CD2      170.4600  200.2680  171.1900 C.ar  299  HIS299      0.1154
      9  CE1      169.3260  202.1380  171.0300 C.ar  299  HIS299      0.1986
     10  NE2      170.5450  201.6350  171.0890 N.ar  299  HIS299     -0.2212
     11  N        165.2710  200.4410  169.1090 N.3   301  ILE301     -0.1231
     12  CA       164.3900  201.4310  169.7440 C.3   301  ILE301      0.1692
     13  C        162.9290  201.1940  169.3410 C.2   301  ILE301      0.2591
     14  O        162.4850  200.0470  169.2510 O.2   301  ILE301     -0.2718
     15  CB       164.7820  202.9020  169.4020 C.3   301  ILE301      0.0266
     16  CG1      166.2230  203.0150  168.9000 C.3   301  ILE301      0.0019
     17  CG2      164.6130  203.7980  170.6240 C.3   301  ILE301      0.0020
     18  CD1      166.5110  204.3290  168.1890 C.3   301  ILE301      0.0001
     19  N        162.1830  202.2690  169.0960 N.am  302  ARG302     -0.1980
     20  CA       160.8010  202.1360  168.6430 C.3   302  ARG302      0.1597
     21  C        160.3900  203.2190  167.6460 C.2   302  ARG302      0.2287
     22  O        160.5880  204.4100  167.8860 O.2   302  ARG302     -0.2864
     23  CB       159.8520  202.1530  169.8410 C.3   302  ARG302      0.0334
     24  CG       158.3940  201.9470  169.4770 C.3   302  ARG302      0.0492
     25  CD       157.5220  201.7130  170.7080 C.3   302  ARG302      0.2205
     26  NE       157.4060  202.8900  171.5680 N.pl3 302  ARG302     -0.0865
     27  CZ       158.1590  203.1030  172.6410 C.cat 302  ARG302      0.5346
     28  NH1      157.9890  204.1940  173.3770 N.pl3 302  ARG302      0.1354
     29  NH2      159.0880  202.2220  172.9760 N.pl3 302  ARG302      0.1354
     30  N        152.4010  194.8490  178.0720 N.3   389  HIS389     -0.1226
     31  CA       153.5840  195.6030  178.4640 C.3   389  HIS389      0.1752
     32  C        154.8340  195.0410  177.7960 C.2   389  HIS389      0.2595
     33  O        155.8730  195.7070  177.7200 O.2   389  HIS389     -0.2718
     34  CB       153.7550  195.6020  179.9830 C.3   389  HIS389      0.0759
     35  CG       154.7090  196.6410  180.4790 C.ar  389  HIS389      0.0818
     36  ND1      156.0500  196.6300  180.1630 N.ar  389  HIS389     -0.2268
     37  CD2      154.5180  197.7260  181.2660 C.ar  389  HIS389      0.1154
     38  CE1      156.6450  197.6630  180.7340 C.ar  389  HIS389      0.1986
     39  NE2      155.7360  198.3440  181.4090 N.ar  389  HIS389     -0.2212
     40  N        154.7230  193.8140  177.2970 N.am  390  GLU390     -0.1979
     41  CA       155.8490  193.1780  176.6510 C.3   390  GLU390      0.1602
     42  C        156.0840  193.7410  175.2540 C.2   390  GLU390      0.2287
     43  O        157.1970  194.1620  174.9380 O.2   390  GLU390     -0.2864
     44  CB       155.6120  191.6680  176.5990 C.3   390  GLU390      0.0415
     45  CG       156.8680  190.8260  176.5800 C.3   390  GLU390      0.1163
     46  CD       157.9660  191.3670  177.4760 C.2   390  GLU390      0.3649
     47  OE1      157.7020  191.6610  178.6630 O.co2 390  GLU390     -0.2457
     48  OE2      159.1050  191.4970  176.9850 O.co2 390  GLU390     -0.2457
     49  N        157.8740  196.9010  174.1910 N.3   393  GLU393     -0.1245
     50  CA       159.2740  196.9780  174.6460 C.3   393  GLU393      0.1567
     51  C        160.3010  196.2460  173.7550 C.2   393  GLU393      0.2260
     52  O        161.3230  196.8190  173.3740 O.2   393  GLU393     -0.2867
     53  CB       159.3910  196.4790  176.0890 C.3   393  GLU393      0.0388
     54  CG       160.8210  196.3540  176.5890 C.3   393  GLU393      0.1160
     55  CD       161.4680  197.7010  176.8440 C.2   393  GLU393      0.3649
     56  OE1      160.8280  198.5570  177.4900 O.co2 393  GLU393     -0.2457
     57  OE2      162.6170  197.9040  176.3980 O.co2 393  GLU393     -0.2457
     58  N        154.4560  203.6910  179.2870 N.3   444  ARG444     -0.1245
     59  CA       154.7430  202.8740  178.1220 C.3   444  ARG444      0.1563
     60  C        154.1040  203.4520  176.8660 C.2   444  ARG444      0.2260
     61  O        154.6520  203.3400  175.7690 O.2   444  ARG444     -0.2867
     62  CB       154.2570  201.4470  178.3540 C.3   444  ARG444      0.0307
     63  CG       155.2680  200.6120  179.0900 C.3   444  ARG444      0.0489
     64  CD       156.5390  200.5720  178.2770 C.3   444  ARG444      0.2205
     65  NE       157.6540  200.0130  179.0190 N.pl3 444  ARG444     -0.0865
     66  CZ       158.3930  200.7110  179.8690 C.cat 444  ARG444      0.5346
     67  NH1      158.1220  201.9910  180.0830 N.pl3 444  ARG444      0.1354
     68  NH2      159.3980  200.1310  180.5060 N.pl3 444  ARG444      0.1354
     69  N        158.9120  209.7510  181.0330 N.3   525  THR525     -0.1203
     70  CA       160.0760  208.8740  181.1030 C.3   525  THR525      0.1994
     71  C        161.1450  209.4390  180.1590 C.2   525  THR525      0.2618
     72  O        160.9510  210.4930  179.5540 O.2   525  THR525     -0.2717
     73  CB       159.7260  207.4210  180.7220 C.3   525  THR525      0.1784
     74  OG1      158.3820  207.1320  181.1180 O.3   525  THR525     -0.2211
     75  CG2      160.6420  206.4520  181.4210 C.3   525  THR525      0.0376
     76  N        162.2780  208.7610  180.0520 N.am  526  VAL526     -0.1965
     77  CA       163.2640  209.0910  179.0370 C.3   526  VAL526      0.1727
     78  C        162.7590  208.5280  177.7090 C.2   526  VAL526      0.2616
     79  O        163.1120  209.0010  176.6270 O.2   526  VAL526     -0.2715
     80  CB       164.6260  208.5200  179.4130 C.3   526  VAL526      0.0290
     81  CG1      165.3950  209.5120  180.2580 C.3   526  VAL526      0.0023
     82  CG2      164.4160  207.2450  180.1940 C.3   526  VAL526      0.0023
     83  N        161.9110  207.5110  177.8200 N.am  527  ARG527     -0.1977
     84  CA       161.1270  207.0070  176.6990 C.3   527  ARG527      0.1597
     85  C        160.1620  208.0650  176.1970 C.2   527  ARG527      0.2287
     86  O        159.8850  208.1540  174.9990 O.2   527  ARG527     -0.2864
     87  CB       160.3320  205.7760  177.1070 C.3   527  ARG527      0.0334
     88  CG       160.7950  204.5030  176.4600 C.3   527  ARG527      0.0492
     89  CD       160.2390  203.3160  177.2070 C.3   527  ARG527      0.2205
     90  NE       158.9680  202.8650  176.6610 N.pl3 527  ARG527     -0.0865
     91  CZ       158.8380  201.7830  175.9040 C.cat 527  ARG527      0.5346
     92  NH1      157.6510  201.4330  175.4310 N.pl3 527  ARG527      0.1354
     93  NH2      159.9040  201.0510  175.6130 N.pl3 527  ARG527      0.1354
     94  N        162.1260  210.0720  174.0890 N.3   530  GLU530     -0.1245
     95  CA       162.4360  209.2810  172.9040 C.3   530  GLU530      0.1567
     96  C        161.2950  209.3450  171.8870 C.2   530  GLU530      0.2260
     97  O        161.5270  209.4050  170.6770 O.2   530  GLU530     -0.2867
     98  CB       162.7140  207.8290  173.2950 C.3   530  GLU530      0.0388
     99  CG       163.0880  206.9150  172.1390 C.3   530  GLU530      0.1160
    100  CD       161.8800  206.4330  171.3600 C.2   530  GLU530      0.3649
    101  OE1      160.8350  206.1690  171.9920 O.co2 530  GLU530     -0.2457
    102  OE2      161.9710  206.3390  170.1180 O.co2 530  GLU530     -0.2457
@<TRIPOS>BOND
     1    21    22    2
     2    21    20    1
     3    18    16    1
     4     4     3    2
     5    20    19    1
     6    20    23    1
     7     3     2    1
     8    16    15    1
     9    19    13   am
    10    11    12    1
    11    14    13    2
    12    13    12    1
    13    15    12    1
    14    15    17    1
    15    24    23    1
    16    24    25    1
    17     1     2    1
    18     2     5    1
    19   102   100   ar
    20    97    96    2
    21    25    26    1
    22     9     7   ar
    23     9    10   ar
    24     7     6   ar
    25    10     8   ar
    26     8     6   ar
    27     6     5    1
    28   100   101   ar
    29   100    99    1
    30    26    27    2
    31    96    95    1
    32    99    98    1
    33    27    29    1
    34    27    28    1
    35    95    98    1
    36    95    94    1
    37    52    51    2
    38    51    50    1
    39    49    50    1
    40    50    53    1
    41    43    42    2
    42    86    85    2
    43    42    41    1
    44    92    91    1
    45    93    91    1
    46    61    60    2
    47    91    90    2
    48    53    54    1
    49    85    84    1
    50    57    55   ar
    51    88    87    1
    52    88    89    1
    53    45    44    1
    54    45    46    1
    55    54    55    1
    56    44    41    1
    57    79    78    2
    58    41    40    1
    59    90    89    1
    60    84    87    1
    61    84    83    1
    62    55    56   ar
    63    60    59    1
    64    48    46   ar
    65    40    32   am
    66    46    47   ar
    67    78    83   am
    68    78    77    1
    69    33    32    2
    70    32    31    1
    71    30    31    1
    72    59    62    1
    73    59    58    1
    74    64    65    1
    75    64    63    1
    76    62    63    1
    77    31    34    1
    78    65    66    2
    79    77    80    1
    80    77    76    1
    81    80    82    1
    82    80    81    1
    83    72    71    2
    84    66    67    1
    85    66    68    1
    86    34    35    1
    87    76    71   am
    88    71    70    1
    89    36    35   ar
    90    36    38   ar
    91    35    37   ar
    92    73    70    1
    93    73    74    1
    94    73    75    1
    95    38    39   ar
    96    69    70    1
    97    37    39   ar
