@<TRIPOS>MOLECULE
tmp/5u8tB00.pdb
 132 127 0 0 0
SMALL
GASTEIGER

@<TRIPOS>ATOM
      1  N        182.4640  171.4130  205.0750 N.3   301  SER301     -0.1202
      2  CA       182.3440  172.8640  205.0820 C.3   301  SER301      0.2020
      3  C        181.4240  173.3690  206.1910 C.2   301  SER301      0.2619
      4  O        181.7210  174.3640  206.8490 O.2   301  SER301     -0.2717
      5  CB       181.8330  173.3620  203.7320 C.3   301  SER301      0.2103
      6  OG       180.4270  173.2220  203.6490 O.3   301  SER301     -0.2182
      7  N        180.3060  172.6730  206.3860 N.am  302  ILE302     -0.1965
      8  CA       179.2020  173.1930  207.1910 C.3   302  ILE302      0.1727
      9  C        179.5360  173.3550  208.6750 C.2   302  ILE302      0.2616
     10  O        180.2300  172.5290  209.2680 O.2   302  ILE302     -0.2715
     11  CB       177.9510  172.2980  207.0490 C.3   302  ILE302      0.0290
     12  CG1      177.6380  172.0660  205.5700 C.3   302  ILE302      0.0022
     13  CG2      176.7460  172.9020  207.7630 C.3   302  ILE302      0.0023
     14  CD1      176.4570  171.1610  205.3260 C.3   302  ILE302      0.0001
     15  N        179.0340  174.4420  209.2580 N.am  303  TYR303     -0.1974
     16  CA       179.2110  174.7290  210.6750 C.3   303  TYR303      0.1639
     17  C        178.2790  173.9310  211.5570 C.2   303  TYR303      0.2290
     18  O        177.0600  174.0380  211.4230 O.2   303  TYR303     -0.2864
     19  CB       178.9550  176.2010  210.9680 C.3   303  TYR303      0.0560
     20  CG       179.9900  177.1400  210.4400 C.ar  303  TYR303     -0.0198
     21  CD1      181.2370  177.2320  211.0390 C.ar  303  TYR303     -0.0009
     22  CD2      179.7130  177.9570  209.3570 C.ar  303  TYR303     -0.0009
     23  CE1      182.1820  178.1030  210.5650 C.ar  303  TYR303      0.0417
     24  CE2      180.6500  178.8270  208.8720 C.ar  303  TYR303      0.0417
     25  CZ       181.8830  178.8970  209.4760 C.ar  303  TYR303      0.1957
     26  OH       182.8150  179.7780  208.9870 O.3   303  TYR303     -0.2866
     27  N        175.7220  172.2180  213.6880 N.3   305  HIS305     -0.1241
     28  CA       174.4390  171.5590  213.4650 C.3   305  HIS305      0.1621
     29  C        174.6090  170.0660  213.7100 C.2   305  HIS305      0.2264
     30  O        173.9720  169.2370  213.0620 O.2   305  HIS305     -0.2867
     31  CB       173.9070  171.8270  212.0500 C.3   305  HIS305      0.0745
     32  CG       173.5690  173.2640  211.7850 C.ar  305  HIS305      0.0817
     33  ND1      174.2210  174.0200  210.8350 N.ar  305  HIS305     -0.2268
     34  CD2      172.6400  174.0780  212.3400 C.ar  305  HIS305      0.1154
     35  CE1      173.7120  175.2390  210.8180 C.ar  305  HIS305      0.1986
     36  NE2      172.7530  175.3010  211.7240 N.ar  305  HIS305     -0.2212
     37  N        166.2750  180.9040  204.3600 N.3   342  PRO342     -0.2102
     38  CA       167.1510  180.5220  203.2530 C.3   342  PRO342      0.1504
     39  C        168.6020  180.6610  203.6460 C.2   342  PRO342      0.2576
     40  O        168.9030  181.3780  204.6010 O.2   342  PRO342     -0.2718
     41  CB       166.7850  181.5100  202.1420 C.3   342  PRO342      0.0282
     42  CG       166.1390  182.6450  202.8360 C.3   342  PRO342      0.0208
     43  CD       165.4170  182.0440  203.9980 C.3   342  PRO342      0.0893
     44  N        169.4780  179.9780  202.9180 N.am  343  SER343     -0.1938
     45  CA       170.8960  179.9240  203.2410 C.3   343  SER343      0.2055
     46  C        171.1000  179.3090  204.6220 C.2   343  SER343      0.2644
     47  O        171.8000  179.8630  205.4660 O.2   343  SER343     -0.2714
     48  CB       171.5300  181.3100  203.1860 C.3   343  SER343      0.2130
     49  OG       171.0670  182.0990  204.2620 O.3   343  SER343     -0.2179
     50  N        170.4450  178.1780  204.8510 N.am  344  THR344     -0.1936
     51  CA       170.6720  177.3630  206.0360 C.3   344  THR344      0.2028
     52  C        171.6300  176.2130  205.6890 C.2   344  THR344      0.2642
     53  O        172.0800  175.4590  206.5590 O.2   344  THR344     -0.2714
     54  CB       169.3290  176.8300  206.5730 C.3   344  THR344      0.1808
     55  OG1      168.4880  177.9330  206.9390 O.3   344  THR344     -0.2208
     56  CG2      169.5230  175.9490  207.7670 C.3   344  THR344      0.0379
     57  N        171.9810  176.1510  204.4050 N.am  345  ALA345     -0.1963
     58  CA       172.6540  175.0160  203.7600 C.3   345  ALA345      0.1728
     59  C        171.7750  173.7810  203.7210 C.2   345  ALA345      0.2616
     60  O        172.2930  172.6810  203.6200 O.2   345  ALA345     -0.2715
     61  CB       173.9830  174.6810  204.4420 C.3   345  ALA345      0.0334
     62  N        170.4560  173.9540  203.7590 N.am  346  LYS346     -0.1963
     63  CA       169.5730  172.7920  203.8260 C.3   346  LYS346      0.1728
     64  C        169.6470  171.9500  202.5440 C.2   346  LYS346      0.2617
     65  O        169.8280  170.7320  202.6170 O.2   346  LYS346     -0.2715
     66  CB       168.1270  173.2210  204.1390 C.3   346  LYS346      0.0311
     67  CG       167.4220  174.0530  203.0980 C.3   346  LYS346      0.0038
     68  CD       166.3140  174.8930  203.7260 C.3   346  LYS346      0.0206
     69  CE       166.8790  176.1990  204.2400 C.3   346  LYS346      0.1093
     70  NZ       165.8570  177.2150  204.5650 N.3   346  LYS346     -0.1314
     71  N        169.5550  172.5910  201.3810 N.am  347  SER347     -0.1936
     72  CA       169.6290  171.8790  200.1040 C.3   347  SER347      0.2055
     73  C        171.0090  171.2670  199.8900 C.2   347  SER347      0.2642
     74  O        171.1530  170.0820  199.5500 O.2   347  SER347     -0.2714
     75  CB       169.2860  172.8200  198.9460 C.3   347  SER347      0.2130
     76  OG       167.9950  173.3780  199.1160 O.3   347  SER347     -0.2179
     77  N        172.0270  172.0920  200.0960 N.am  348  GLN348     -0.1976
     78  CA       173.4030  171.6420  200.0010 C.3   348  GLN348      0.1601
     79  C        173.6690  170.5300  201.0130 C.2   348  GLN348      0.2287
     80  O        174.4080  169.5910  200.7260 O.2   348  GLN348     -0.2864
     81  CB       174.3630  172.8120  200.2200 C.3   348  GLN348      0.0394
     82  CG       175.8270  172.4490  200.0810 C.3   348  GLN348      0.0908
     83  CD       176.4030  172.8090  198.7220 C.2   348  GLN348      0.2608
     84  OE1      176.5580  173.9860  198.3960 O.2   348  GLN348     -0.2717
     85  NE2      176.7230  171.7970  197.9220 N.am  348  GLN348     -0.0878
     86  N        164.0140  168.8980  198.2660 N.3   404  ASP404     -0.1225
     87  CA       164.0240  170.3440  198.1780 C.3   404  ASP404      0.1805
     88  C        162.5830  170.8010  198.0670 C.2   404  ASP404      0.2597
     89  O        161.8530  170.3460  197.1890 O.2   404  ASP404     -0.2718
     90  CB       164.8200  170.8240  196.9600 C.3   404  ASP404      0.1424
     91  CG       166.0930  171.5390  197.3380 C.2   404  ASP404      0.3668
     92  OD1      166.6150  171.2660  198.4360 O.co2 404  ASP404     -0.2456
     93  OD2      166.5720  172.3690  196.5340 O.co2 404  ASP404     -0.2456
     94  N        162.1830  171.7040  198.9580 N.am  405  GLU405     -0.1979
     95  CA       160.8650  172.3280  198.9180 C.3   405  GLU405      0.1602
     96  C        159.7060  171.3380  198.9950 C.2   405  GLU405      0.2287
     97  O        158.8400  171.3040  198.1200 O.2   405  GLU405     -0.2864
     98  CB       160.7390  173.1820  197.6610 C.3   405  GLU405      0.0415
     99  CG       162.0200  173.9180  197.3370 C.3   405  GLU405      0.1163
    100  CD       162.4310  174.8950  198.4130 C.2   405  GLU405      0.3649
    101  OE1      161.5580  175.3360  199.1910 O.co2 405  GLU405     -0.2457
    102  OE2      163.6320  175.2240  198.4790 O.co2 405  GLU405     -0.2457
    103  N        160.9810  175.6760  203.6170 N.3   448  ASN448     -0.1240
    104  CA       161.2850  177.0300  204.0540 C.3   448  ASN448      0.1653
    105  C        160.1290  177.6250  204.8540 C.2   448  ASN448      0.2266
    106  O        159.0190  177.0920  204.8030 O.2   448  ASN448     -0.2867
    107  CB       161.6350  177.8830  202.8440 C.3   448  ASN448      0.1155
    108  CG       162.9640  177.4990  202.2510 C.2   448  ASN448      0.2627
    109  OD1      163.9380  177.2780  202.9740 O.2   448  ASN448     -0.2716
    110  ND2      163.0120  177.3830  200.9320 N.am  448  ASN448     -0.0877
    111  N        181.7240  182.2910  211.2780 N.3   492  ILE492     -0.1245
    112  CA       180.9330  182.0390  210.0790 C.3   492  ILE492      0.1561
    113  C        181.7400  182.4100  208.8570 C.2   492  ILE492      0.2260
    114  O        181.7280  181.7160  207.8480 O.2   492  ILE492     -0.2867
    115  CB       179.6030  182.8400  210.0820 C.3   492  ILE492      0.0252
    116  CG1      178.6490  182.3200  211.1630 C.3   492  ILE492      0.0019
    117  CG2      178.9220  182.7750  208.7170 C.3   492  ILE492      0.0019
    118  CD1      178.1770  180.8980  210.9340 C.3   492  ILE492      0.0001
    119  N        184.2450  179.7140  206.0430 N.3   496  VAL496     -0.1245
    120  CA       183.6240  179.9000  204.7300 C.3   496  VAL496      0.1561
    121  C        184.6400  180.4130  203.7060 C.2   496  VAL496      0.2260
    122  O        184.5560  180.1180  202.5150 O.2   496  VAL496     -0.2867
    123  CB       182.4190  180.8730  204.8220 C.3   496  VAL496      0.0252
    124  CG1      182.2320  181.6860  203.5430 C.3   496  VAL496      0.0019
    125  CG2      181.1480  180.1120  205.1760 C.3   496  VAL496      0.0019
    126  N        187.1260  177.8220  203.0140 N.3   499  THR499     -0.1218
    127  CA       186.3980  176.8590  202.1920 C.3   499  THR499      0.1862
    128  C        186.9310  176.8310  200.7600 C.2   499  THR499      0.2287
    129  O        187.5690  175.8600  200.3570 O.2   499  THR499     -0.2866
    130  CB       184.8930  177.1700  202.1560 C.3   499  THR499      0.1770
    131  OG1      184.3460  177.0400  203.4730 O.3   499  THR499     -0.2211
    132  CG2      184.1640  176.2340  201.2120 C.3   499  THR499      0.0375
@<TRIPOS>BOND
     1    93    91   ar
     2    90    91    1
     3    90    87    1
     4    89    88    2
     5    99    98    1
     6    99   100    1
     7    91    92   ar
     8    98    95    1
     9    85    83   am
    10    88    87    1
    11    88    94   am
    12    97    96    2
    13    87    86    1
    14    84    83    2
    15   100   102   ar
    16   100   101   ar
    17    83    82    1
    18    95    94    1
    19    95    96    1
    20    75    76    1
    21    75    72    1
    22    74    73    2
    23    73    77   am
    24    73    72    1
    25    78    77    1
    26    78    81    1
    27    78    79    1
    28    82    81    1
    29    72    71    1
    30   129   128    2
    31    80    79    2
    32   128   127    1
    33   110   108   am
    34   132   130    1
    35    71    64   am
    36    41    42    1
    37    41    38    1
    38   130   127    1
    39   130   131    1
    40   127   126    1
    41   108   107    1
    42   108   109    2
    43   122   121    2
    44    64    65    2
    45    64    63    1
    46    42    43    1
    47   107   104    1
    48    44    45    1
    49    44    39   am
    50    67    68    1
    51    67    66    1
    52    48    45    1
    53    48    49    1
    54    45    46    1
    55    38    39    1
    56    38    37    1
    57   124   123    1
    58   103   104    1
    59    60    59    2
    60    39    40    2
    61     6     5    1
    62   121   120    1
    63    59    62   am
    64    59    58    1
    65    68    69    1
    66     5     2    1
    67    62    63    1
    68    58    57    1
    69    58    61    1
    70    63    66    1
    71    43    37    1
    72   104   105    1
    73    69    70    1
    74    57    52   am
    75    46    50   am
    76    46    47    2
    77   120   123    1
    78   120   119    1
    79   106   105    2
    80   123   125    1
    81    50    51    1
    82     1     2    1
    83     2     3    1
    84    14    12    1
    85    12    11    1
    86    52    51    1
    87    52    53    2
    88    51    54    1
    89     3     7   am
    90     3     4    2
    91     7     8    1
    92    54    55    1
    93    54    56    1
    94    11     8    1
    95    11    13    1
    96     8     9    1
    97   114   113    2
    98     9    15   am
    99     9    10    2
   100   117   115    1
   101   113   112    1
   102    24    22   ar
   103    24    25   ar
   104    26    25    1
   105    15    16    1
   106    22    20   ar
   107    25    23   ar
   108   112   115    1
   109   112   111    1
   110   115   116    1
   111    20    19    1
   112    20    21   ar
   113    23    21   ar
   114    16    19    1
   115    16    17    1
   116    35    33   ar
   117    35    36   ar
   118    33    32   ar
   119   118   116    1
   120    18    17    2
   121    36    34   ar
   122    32    31    1
   123    32    34   ar
   124    31    28    1
   125    30    29    2
   126    28    27    1
   127    28    29    1
