@<TRIPOS>MOLECULE
tmp/5u8tD01.pdb
 134 128 0 0 0
SMALL
GASTEIGER

@<TRIPOS>ATOM
      1  N        174.4230  202.1620  173.5960 N.3   289  SER289     -0.1202
      2  CA       173.0690  202.6550  173.7740 C.3   289  SER289      0.2020
      3  C        172.9210  203.4880  175.0400 C.2   289  SER289      0.2619
      4  O        172.5380  204.6580  174.9880 O.2   289  SER289     -0.2717
      5  CB       172.0940  201.4830  173.8280 C.3   289  SER289      0.2103
      6  OG       170.7570  201.9370  173.8950 O.3   289  SER289     -0.2182
      7  N        173.2400  202.8760  176.1790 N.am  290  ILE290     -0.1965
      8  CA       172.9320  203.4790  177.4690 C.3   290  ILE290      0.1727
      9  C        174.0690  204.3380  177.9930 C.2   290  ILE290      0.2616
     10  O        175.1510  203.8480  178.3150 O.2   290  ILE290     -0.2715
     11  CB       172.5840  202.4100  178.5390 C.3   290  ILE290      0.0290
     12  CG1      171.3260  201.6210  178.1450 C.3   290  ILE290      0.0022
     13  CG2      172.4660  203.0460  179.9290 C.3   290  ILE290      0.0023
     14  CD1      171.5910  200.3610  177.3090 C.3   290  ILE290      0.0001
     15  N        173.8000  205.6360  178.0730 N.am  291  PHE291     -0.1974
     16  CA       174.7060  206.5780  178.7040 C.3   291  PHE291      0.1639
     17  C        174.2620  206.7460  180.1490 C.2   291  PHE291      0.2290
     18  O        173.1390  207.1750  180.4190 O.2   291  PHE291     -0.2864
     19  CB       174.7080  207.9080  177.9400 C.3   291  PHE291      0.0560
     20  CG       175.2820  209.0710  178.7060 C.ar  291  PHE291     -0.0200
     21  CD1      176.6180  209.4100  178.5830 C.ar  291  PHE291     -0.0042
     22  CD2      174.4720  209.8510  179.5160 C.ar  291  PHE291     -0.0042
     23  CE1      177.1410  210.4900  179.2750 C.ar  291  PHE291     -0.0003
     24  CE2      174.9850  210.9280  180.2100 C.ar  291  PHE291     -0.0003
     25  CZ       176.3210  211.2500  180.0900 C.ar  291  PHE291     -0.0000
     26  N        173.9670  205.0830  184.2770 N.3   293  ASN293     -0.1240
     27  CA       173.6950  203.8600  185.0270 C.3   293  ASN293      0.1653
     28  C        174.9490  203.0120  185.1690 C.2   293  ASN293      0.2266
     29  O        174.8890  201.7860  185.1160 O.2   293  ASN293     -0.2867
     30  CB       172.5820  203.0450  184.3630 C.3   293  ASN293      0.1155
     31  CG       171.3510  202.9210  185.2390 C.2   293  ASN293      0.2627
     32  OD1      171.4030  203.1740  186.4430 O.2   293  ASN293     -0.2716
     33  ND2      170.2340  202.5260  184.6380 N.am  293  ASN293     -0.0877
     34  N        160.2140  201.8090  185.1140 N.3   330  PRO330     -0.2102
     35  CA       160.3430  201.8250  183.6540 C.3   330  PRO330      0.1504
     36  C        161.0710  203.0850  183.2200 C.2   330  PRO330      0.2576
     37  O        160.7750  204.1530  183.7540 O.2   330  PRO330     -0.2718
     38  CB       158.8890  201.8180  183.1730 C.3   330  PRO330      0.0282
     39  CG       158.0920  202.2680  184.3480 C.3   330  PRO330      0.0208
     40  CD       158.8090  201.7210  185.5330 C.3   330  PRO330      0.0893
     41  N        161.9960  202.9660  182.2750 N.am  331  GLY331     -0.1943
     42  CA       162.9280  204.0440  181.9920 C.3   331  GLY331      0.2014
     43  C        164.3120  203.6900  182.4850 C.2   331  GLY331      0.2640
     44  O        165.2450  204.4920  182.4280 O.2   331  GLY331     -0.2714
     45  N        164.4210  202.4790  183.0120 N.am  332  THR332     -0.1936
     46  CA       165.6720  201.9720  183.5510 C.3   332  THR332      0.2028
     47  C        166.6780  201.6100  182.4550 C.2   332  THR332      0.2642
     48  O        167.8890  201.6030  182.7010 O.2   332  THR332     -0.2714
     49  CB       165.4070  200.7360  184.4260 C.3   332  THR332      0.1808
     50  OG1      164.4400  201.0610  185.4320 O.3   332  THR332     -0.2208
     51  CG2      166.6810  200.2660  185.0930 C.3   332  THR332      0.0379
     52  N        166.1480  201.3240  181.2610 N.am  333  ALA333     -0.1963
     53  CA       166.8820  200.8250  180.0840 C.3   333  ALA333      0.1728
     54  C        167.1730  199.3370  180.2130 C.2   333  ALA333      0.2616
     55  O        167.7200  198.7150  179.3080 O.2   333  ALA333     -0.2715
     56  CB       168.1650  201.6150  179.8410 C.3   333  ALA333      0.0334
     57  N        166.7680  198.7770  181.3430 N.am  334  LYS334     -0.1963
     58  CA       167.0560  197.3980  181.6960 C.3   334  LYS334      0.1728
     59  C        166.5770  196.3330  180.6960 C.2   334  LYS334      0.2617
     60  O        167.1630  195.2580  180.6390 O.2   334  LYS334     -0.2715
     61  CB       166.4540  197.1080  183.0620 C.3   334  LYS334      0.0311
     62  CG       164.9550  197.1360  183.0580 C.3   334  LYS334      0.0038
     63  CD       164.4060  196.7000  184.3860 C.3   334  LYS334      0.0206
     64  CE       162.9030  196.8070  184.3730 C.3   334  LYS334      0.1093
     65  NZ       162.4620  198.0720  183.7220 N.3   334  LYS334     -0.1314
     66  N        165.5130  196.5870  179.9330 N.am  335  SER335     -0.1936
     67  CA       165.1580  195.6340  178.8740 C.3   335  SER335      0.2055
     68  C        166.0260  195.8610  177.6580 C.2   335  SER335      0.2642
     69  O        166.4670  194.9110  177.0170 O.2   335  SER335     -0.2714
     70  CB       163.6860  195.7270  178.4780 C.3   335  SER335      0.2130
     71  OG       162.8650  194.9970  179.3760 O.3   335  SER335     -0.2179
     72  N        166.2490  197.1270  177.3320 N.am  336  GLN336     -0.1976
     73  CA       167.1960  197.4770  176.2910 C.3   336  GLN336      0.1601
     74  C        168.5700  196.9570  176.7030 C.2   336  GLN336      0.2287
     75  O        169.2960  196.3600  175.8980 O.2   336  GLN336     -0.2864
     76  CB       167.2040  198.9920  176.0560 C.3   336  GLN336      0.0394
     77  CG       167.9950  199.4270  174.8380 C.3   336  GLN336      0.0908
     78  CD       167.5480  200.7760  174.2970 C.2   336  GLN336      0.2608
     79  OE1      166.3600  201.0080  174.0760 O.2   336  GLN336     -0.2717
     80  NE2      168.5050  201.6660  174.0670 N.am  336  GLN336     -0.0878
     81  N        162.6440  188.7190  181.9530 N.3   392  ASP392     -0.1239
     82  CA       161.7180  189.8300  182.1820 C.3   392  ASP392      0.1674
     83  C        160.5040  189.2870  182.9000 C.2   392  ASP392      0.2266
     84  O        160.4140  188.0800  183.1230 O.2   392  ASP392     -0.2867
     85  CB       161.2780  190.5000  180.8810 C.3   392  ASP392      0.1410
     86  CG       162.2950  191.4750  180.3530 C.2   392  ASP392      0.3668
     87  OD1      163.0170  192.0860  181.1660 O.co2 392  ASP392     -0.2456
     88  OD2      162.3660  191.6330  179.1180 O.co2 392  ASP392     -0.2456
     89  N        165.4120  190.9460  185.6910 N.3   434  ALA434     -0.1245
     90  CA       165.0290  192.2580  185.1690 C.3   434  ALA434      0.1562
     91  C        163.6030  192.7400  185.4850 C.2   434  ALA434      0.2260
     92  O        163.1890  193.7680  184.9500 O.2   434  ALA434     -0.2867
     93  CB       165.2520  192.2970  183.6690 C.3   434  ALA434      0.0290
     94  N        159.9390  194.2010  186.6430 N.3   436  ASN436     -0.1240
     95  CA       159.4780  195.4790  187.1530 C.3   436  ASN436      0.1653
     96  C        158.8310  195.3450  188.5280 C.2   436  ASN436      0.2266
     97  O        157.9030  194.5550  188.7070 O.2   436  ASN436     -0.2867
     98  CB       158.5030  196.1090  186.1650 C.3   436  ASN436      0.1155
     99  CG       159.1420  196.3740  184.8210 C.2   436  ASN436      0.2627
    100  OD1      159.8330  197.3750  184.6420 O.2   436  ASN436     -0.2716
    101  ND2      158.9290  195.4710  183.8700 N.am  436  ASN436     -0.0877
    102  N        172.1510  213.2950  178.8370 N.3   480  ILE480     -0.1245
    103  CA       171.7260  212.0250  178.2110 C.3   480  ILE480      0.1561
    104  C        170.5930  212.2780  177.2120 C.2   480  ILE480      0.2260
    105  O        170.4250  211.5590  176.2360 O.2   480  ILE480     -0.2867
    106  CB       171.2990  210.9350  179.2670 C.3   480  ILE480      0.0252
    107  CG1      170.6110  209.7370  178.6120 C.3   480  ILE480      0.0019
    108  CG2      170.3100  211.4680  180.2510 C.3   480  ILE480      0.0019
    109  CD1      171.4470  208.9480  177.6480 C.3   480  ILE480      0.0001
    110  N        170.5980  211.5660  173.3750 N.3   484  VAL484     -0.1245
    111  CA       169.4710  210.9490  172.6680 C.3   484  VAL484      0.1561
    112  C        169.4250  211.2340  171.1720 C.2   484  VAL484      0.2260
    113  O        169.5540  210.3250  170.3350 O.2   484  VAL484     -0.2867
    114  CB       168.1140  211.4140  173.2820 C.3   484  VAL484      0.0252
    115  CG1      166.9320  211.0540  172.3810 C.3   484  VAL484      0.0019
    116  CG2      167.9190  210.8300  174.6670 C.3   484  VAL484      0.0019
    117  N        171.9630  209.7620  169.3810 N.3   487  ILE487     -0.1231
    118  CA       171.7740  208.3150  169.2350 C.3   487  ILE487      0.1692
    119  C        170.9060  207.9830  168.0330 C.2   487  ILE487      0.2592
    120  O        171.1690  207.0110  167.3260 O.2   487  ILE487     -0.2718
    121  CB       171.1060  207.6630  170.4660 C.3   487  ILE487      0.0266
    122  CG1      171.9180  207.8620  171.7330 C.3   487  ILE487      0.0019
    123  CG2      170.9230  206.1710  170.2540 C.3   487  ILE487      0.0020
    124  CD1      171.0850  207.6110  172.9530 C.3   487  ILE487      0.0001
    125  N        169.8030  208.7090  167.8440 N.am  488  HIS488     -0.1976
    126  CA       168.8850  208.3740  166.7430 C.3   488  HIS488      0.1656
    127  C        169.2250  208.5760  165.2490 C.2   488  HIS488      0.2291
    128  O        169.0890  207.6230  164.4790 O.2   488  HIS488     -0.2864
    129  CB       167.5140  209.0070  167.0190 C.3   488  HIS488      0.0771
    130  CG       166.6310  208.1760  167.8960 C.ar  488  HIS488      0.0820
    131  ND1      165.5810  207.4310  167.4040 N.ar  488  HIS488     -0.2267
    132  CD2      166.6400  207.9730  169.2350 C.ar  488  HIS488      0.1154
    133  CE1      164.9830  206.8040  168.4010 C.ar  488  HIS488      0.1986
    134  NE2      165.6060  207.1160  169.5230 N.ar  488  HIS488     -0.2212
@<TRIPOS>BOND
     1   128   127    2
     2   127   126    1
     3   126   129    1
     4   126   125    1
     5   129   130    1
     6   120   119    2
     7   131   130   ar
     8   131   133   ar
     9   125   119   am
    10   130   132   ar
    11   119   118    1
    12   133   134   ar
    13   132   134   ar
    14   118   117    1
    15   118   121    1
    16   123   121    1
    17   113   112    2
    18   121   122    1
    19   112   111    1
    20   122   124    1
    21   115   114    1
    22   111   114    1
    23   111   110    1
    24   114   116    1
    25     1     2    1
    26     2     5    1
    27     2     3    1
    28     5     6    1
    29    80    78   am
    30    79    78    2
    31    78    77    1
    32    77    76    1
    33     4     3    2
    34     3     7   am
    35    75    74    2
    36    76    73    1
    37     7     8    1
    38   105   104    2
    39    73    74    1
    40    73    72    1
    41    69    68    2
    42   104   103    1
    43    14    12    1
    44    72    68   am
    45     8     9    1
    46     8    11    1
    47   109   107    1
    48    68    67    1
    49    19    16    1
    50    19    20    1
    51     9    15   am
    52     9    10    2
    53    15    16    1
    54    12    11    1
    55   103   102    1
    56   103   106    1
    57    70    67    1
    58    70    71    1
    59    11    13    1
    60    21    20   ar
    61    21    23   ar
    62   107   106    1
    63    16    17    1
    64    20    22   ar
    65    67    66    1
    66    88    86   ar
    67   106   108    1
    68    23    25   ar
    69    55    54    2
    70    22    24   ar
    71    56    53    1
    72    66    59   am
    73    53    54    1
    74    53    52    1
    75    25    24   ar
    76    17    18    2
    77    54    57   am
    78    86    85    1
    79    86    87   ar
    80    60    59    2
    81    59    58    1
    82    85    82    1
    83    52    47   am
    84    57    58    1
    85    58    61    1
    86    81    82    1
    87    42    41    1
    88    42    43    1
    89    82    83    1
    90    41    36   am
    91    44    43    2
    92    47    48    2
    93    47    46    1
    94    43    45   am
    95    83    84    2
    96    45    46    1
    97    62    61    1
    98    62    63    1
    99    38    35    1
   100    38    39    1
   101    36    35    1
   102    36    37    2
   103    46    49    1
   104    35    34    1
   105    93    90    1
   106    65    64    1
   107   101    99   am
   108    26    27    1
   109    39    40    1
   110    30    27    1
   111    30    31    1
   112    64    63    1
   113    49    51    1
   114    49    50    1
   115    33    31   am
   116   100    99    2
   117    99    98    1
   118    92    91    2
   119    27    28    1
   120    34    40    1
   121    29    28    2
   122    90    91    1
   123    90    89    1
   124    31    32    2
   125    98    95    1
   126    94    95    1
   127    95    96    1
   128    96    97    2
