@<TRIPOS>MOLECULE
tmp/5u8tA00.pdb
 134 128 0 0 0
SMALL
GASTEIGER

@<TRIPOS>ATOM
      1  N        132.7610  211.2530  159.7180 N.3   272  SER272     -0.1202
      2  CA       131.4090  211.3150  160.2500 C.3   272  SER272      0.2020
      3  C        131.4240  211.7280  161.7140 C.2   272  SER272      0.2618
      4  O        130.3820  212.0130  162.3000 O.2   272  SER272     -0.2717
      5  CB       130.7060  209.9650  160.0860 C.3   272  SER272      0.2103
      6  OG       129.3350  210.0610  160.4320 O.3   272  SER272     -0.2182
      7  N        132.6150  211.7590  162.3000 N.am  273  ILE273     -0.1979
      8  CA       132.7490  211.9950  163.7330 C.3   273  ILE273      0.1595
      9  C        132.6410  213.4590  164.1460 C.2   273  ILE273      0.2287
     10  O        131.9300  213.7830  165.0970 O.2   273  ILE273     -0.2864
     11  CB       134.0930  211.4590  164.2650 C.3   273  ILE273      0.0276
     12  CG1      134.2580  209.9710  163.9380 C.3   273  ILE273      0.0022
     13  CG2      134.2310  211.7330  165.7600 C.3   273  ILE273      0.0022
     14  CD1      135.5510  209.3590  164.4540 C.3   273  ILE273      0.0001
     15  N        133.8610  215.9280  166.3260 N.3   275  GLY275     -0.1210
     16  CA       134.5380  215.8380  167.6040 C.3   275  GLY275      0.1956
     17  C        135.6900  216.8100  167.6900 C.2   275  GLY275      0.2611
     18  O        135.5130  218.0090  167.4750 O.2   275  GLY275     -0.2717
     19  N        136.8710  216.2980  168.0130 N.am  276  HIS276     -0.1975
     20  CA       138.0130  217.1650  168.2490 C.3   276  HIS276      0.1656
     21  C        139.1680  216.9250  167.2910 C.2   276  HIS276      0.2291
     22  O        139.7040  215.8220  167.1950 O.2   276  HIS276     -0.2864
     23  CB       138.4930  217.0070  169.6900 C.3   276  HIS276      0.0771
     24  CG       137.4860  217.4530  170.7020 C.ar  276  HIS276      0.0820
     25  ND1      136.4450  216.6510  171.1160 N.ar  276  HIS276     -0.2267
     26  CD2      137.3430  218.6270  171.3600 C.ar  276  HIS276      0.1154
     27  CE1      135.7130  217.3070  171.9990 C.ar  276  HIS276      0.1986
     28  NE2      136.2360  218.5080  172.1640 N.ar  276  HIS276     -0.2212
     29  N        132.2650  209.0950  179.3890 N.3   313  PRO313     -0.2102
     30  CA       130.9900  208.6020  178.8670 C.3   313  PRO313      0.1504
     31  C        130.4340  209.5430  177.8230 C.2   313  PRO313      0.2576
     32  O        130.5440  210.7580  177.9700 O.2   313  PRO313     -0.2718
     33  CB       130.0850  208.5620  180.1000 C.3   313  PRO313      0.0282
     34  CG       131.0100  208.5110  181.2530 C.3   313  PRO313      0.0208
     35  CD       132.2180  209.2980  180.8460 C.3   313  PRO313      0.0893
     36  N        129.8800  208.9820  176.7590 N.am  314  GLY314     -0.1943
     37  CA       129.2200  209.7780  175.7510 C.3   314  GLY314      0.2014
     38  C        130.1140  210.5810  174.8460 C.2   314  GLY314      0.2640
     39  O        129.6480  211.2230  173.9050 O.2   314  GLY314     -0.2714
     40  N        131.4020  210.5570  175.1470 N.am  315  THR315     -0.1936
     41  CA       132.4120  211.1150  174.2700 C.3   315  THR315      0.2028
     42  C        132.4450  210.2520  173.0200 C.2   315  THR315      0.2642
     43  O        132.0030  209.1200  173.0600 O.2   315  THR315     -0.2714
     44  CB       133.7810  211.1420  174.9720 C.3   315  THR315      0.1808
     45  OG1      133.6620  211.8960  176.1800 O.3   315  THR315     -0.2208
     46  CG2      134.8620  211.7700  174.1010 C.3   315  THR315      0.0379
     47  N        132.9730  210.7660  171.9180 N.am  316  ALA316     -0.1963
     48  CA       133.0660  209.9880  170.6880 C.3   316  ALA316      0.1728
     49  C        133.9630  208.7470  170.8090 C.2   316  ALA316      0.2616
     50  O        134.0780  207.9830  169.8560 O.2   316  ALA316     -0.2715
     51  CB       133.5690  210.8790  169.5500 C.3   316  ALA316      0.0334
     52  N        134.6060  208.5680  171.9650 N.am  317  LYS317     -0.1963
     53  CA       135.7720  207.6880  172.0890 C.3   317  LYS317      0.1728
     54  C        135.6300  206.3170  171.4290 C.2   317  LYS317      0.2617
     55  O        136.3960  206.0060  170.5170 O.2   317  LYS317     -0.2715
     56  CB       136.1660  207.5120  173.5630 C.3   317  LYS317      0.0311
     57  CG       135.1030  207.0070  174.5120 C.3   317  LYS317      0.0038
     58  CD       135.7190  205.9600  175.4220 C.3   317  LYS317      0.0206
     59  CE       134.9760  205.8420  176.7270 C.3   317  LYS317      0.1093
     60  NZ       135.0220  204.4330  177.1930 N.3   317  LYS317     -0.1314
     61  N        134.6810  205.5000  171.8660 N.am  318  SER318     -0.1936
     62  CA       134.5310  204.1690  171.2870 C.3   318  SER318      0.2055
     63  C        134.2420  204.2020  169.7890 C.2   318  SER318      0.2642
     64  O        134.4670  203.2160  169.0910 O.2   318  SER318     -0.2714
     65  CB       133.4330  203.3910  172.0040 C.3   318  SER318      0.2130
     66  OG       133.9550  202.7220  173.1360 O.3   318  SER318     -0.2179
     67  N        133.7480  205.3320  169.2970 N.am  319  GLN319     -0.1976
     68  CA       133.4510  205.4630  167.8770 C.3   319  GLN319      0.1601
     69  C        134.6850  205.7760  167.0350 C.2   319  GLN319      0.2287
     70  O        134.7220  205.4660  165.8470 O.2   319  GLN319     -0.2864
     71  CB       132.3870  206.5380  167.6550 C.3   319  GLN319      0.0394
     72  CG       131.8690  206.6380  166.2240 C.3   319  GLN319      0.0908
     73  CD       131.0270  205.4410  165.8090 C.2   319  GLN319      0.2608
     74  OE1      131.4420  204.2940  165.9560 O.2   319  GLN319     -0.2717
     75  NE2      129.8310  205.7090  165.2920 N.am  319  GLN319     -0.0878
     76  N        139.8550  198.8060  173.6770 N.3   375  ASP375     -0.1225
     77  CA       139.0780  199.7790  174.4620 C.3   375  ASP375      0.1805
     78  C        138.6610  199.2180  175.8190 C.2   375  ASP375      0.2597
     79  O        138.6240  198.0170  175.9930 O.2   375  ASP375     -0.2718
     80  CB       137.8350  200.2710  173.7070 C.3   375  ASP375      0.1424
     81  CG       136.8940  199.1560  173.3110 C.2   375  ASP375      0.3668
     82  OD1      137.2540  197.9840  173.5080 O.co2 375  ASP375     -0.2456
     83  OD2      135.7940  199.4500  172.7940 O.co2 375  ASP375     -0.2456
     84  N        138.3170  200.0930  176.7620 N.am  376  GLU376     -0.1979
     85  CA       137.8700  199.6640  178.0910 C.3   376  GLU376      0.1602
     86  C        138.9090  198.8970  178.9190 C.2   376  GLU376      0.2287
     87  O        138.8170  197.6780  179.0640 O.2   376  GLU376     -0.2864
     88  CB       136.6140  198.8000  177.9620 C.3   376  GLU376      0.0415
     89  CG       135.3720  199.5500  177.5510 C.3   376  GLU376      0.1163
     90  CD       134.9430  199.2180  176.1400 C.2   376  GLU376      0.3649
     91  OE1      135.3420  198.1490  175.6330 O.co2 376  GLU376     -0.2457
     92  OE2      134.2070  200.0270  175.5380 O.co2 376  GLU376     -0.2457
     93  N        138.1770  196.8500  182.1600 N.3   379  LYS379     -0.1245
     94  CA       137.5880  195.5320  181.9680 C.3   379  LYS379      0.1561
     95  C        138.6420  194.4530  181.7250 C.2   379  LYS379      0.2260
     96  O        138.3130  193.2720  181.5960 O.2   379  LYS379     -0.2867
     97  CB       136.5850  195.5710  180.8070 C.3   379  LYS379      0.0271
     98  CG       135.3540  196.4620  181.0620 C.3   379  LYS379      0.0035
     99  CD       135.7000  197.9530  181.0170 C.3   379  LYS379      0.0206
    100  CE       134.6350  198.8490  181.6030 C.3   379  LYS379      0.1093
    101  NZ       134.9180  200.2820  181.3310 N.3   379  LYS379     -0.1314
    102  N        137.8550  203.8500  179.6130 N.3   419  ASN419     -0.1240
    103  CA       136.9210  204.7540  180.2670 C.3   419  ASN419      0.1653
    104  C        137.4480  205.1520  181.6520 C.2   419  ASN419      0.2266
    105  O        138.0820  204.3360  182.3230 O.2   419  ASN419     -0.2867
    106  CB       135.5390  204.0910  180.3340 C.3   419  ASN419      0.1155
    107  CG       134.9820  204.0270  181.7340 C.2   419  ASN419      0.2627
    108  OD1      134.3480  204.9680  182.2040 O.2   419  ASN419     -0.2716
    109  ND2      135.1940  202.9050  182.4030 N.am  419  ASN419     -0.0877
    110  N        128.8370  220.7660  167.2070 N.3   463  LEU463     -0.1245
    111  CA       128.9770  219.3510  166.9080 C.3   463  LEU463      0.1561
    112  C        127.6510  218.6910  166.5560 C.2   463  LEU463      0.2260
    113  O        127.5850  217.8900  165.6360 O.2   463  LEU463     -0.2867
    114  CB       129.5940  218.6190  168.0880 C.3   463  LEU463      0.0270
    115  CG       130.0210  217.1770  167.8370 C.3   463  LEU463      0.0019
    116  CD1      131.3670  217.0050  168.4690 C.3   463  LEU463      0.0001
    117  CD2      129.0320  216.1730  168.4140 C.3   463  LEU463      0.0001
    118  N        125.7630  217.0140  163.6870 N.3   467  VAL467     -0.1245
    119  CA       125.4170  215.6060  163.9030 C.3   467  VAL467      0.1561
    120  C        124.1050  215.2430  163.2400 C.2   467  VAL467      0.2260
    121  O        124.0090  214.2570  162.5040 O.2   467  VAL467     -0.2867
    122  CB       125.3330  215.2600  165.4220 C.3   467  VAL467      0.0252
    123  CG1      124.4590  214.0250  165.6600 C.3   467  VAL467      0.0019
    124  CG2      126.7120  215.0340  165.9930 C.3   467  VAL467      0.0019
    125  N        123.6170  212.5060  160.2240 N.3   471  HIS471     -0.1241
    126  CA       122.6100  211.4570  160.0840 C.3   471  HIS471      0.1621
    127  C        121.7080  211.6300  158.8620 C.2   471  HIS471      0.2264
    128  O        120.9830  210.7060  158.4990 O.2   471  HIS471     -0.2867
    129  CB       121.7300  211.3920  161.3340 C.3   471  HIS471      0.0745
    130  CG       122.4370  210.8990  162.5580 C.ar  471  HIS471      0.0817
    131  ND1      123.6700  211.3720  162.9510 N.ar  471  HIS471     -0.2268
    132  CD2      122.0710  209.9860  163.4890 C.ar  471  HIS471      0.1154
    133  CE1      124.0380  210.7660  164.0660 C.ar  471  HIS471      0.1986
    134  NE2      123.0840  209.9210  164.4140 N.ar  471  HIS471     -0.2212
@<TRIPOS>BOND
     1   128   127    2
     2   127   126    1
     3     1     2    1
     4   126   125    1
     5   126   129    1
     6     5     2    1
     7     5     6    1
     8     2     3    1
     9   129   130    1
    10     3     4    2
    11     3     7   am
    12     7     8    1
    13   121   120    2
    14   130   131   ar
    15   130   132   ar
    16   131   133   ar
    17   120   119    1
    18   132   134   ar
    19   118   119    1
    20     8     9    1
    21     8    11    1
    22   119   122    1
    23    12    11    1
    24    12    14    1
    25   133   134   ar
    26     9    10    2
    27    11    13    1
    28    75    73   am
    29   122   123    1
    30   122   124    1
    31   113   112    2
    32    73    74    2
    33    73    72    1
    34    70    69    2
    35    72    71    1
    36    15    16    1
    37   112   111    1
    38   111   110    1
    39   111   114    1
    40    69    68    1
    41    22    21    2
    42    21    20    1
    43    18    17    2
    44    16    17    1
    45    71    68    1
    46    17    19   am
    47   115   114    1
    48   115   117    1
    49   115   116    1
    50    68    67    1
    51    19    20    1
    52    20    23    1
    53    64    63    2
    54    67    63   am
    55    51    48    1
    56    23    24    1
    57    63    62    1
    58    50    49    2
    59    55    54    2
    60    48    49    1
    61    48    47    1
    62    24    25   ar
    63    24    26   ar
    64    49    52   am
    65    25    27   ar
    66    62    61    1
    67    62    65    1
    68    26    28   ar
    69    54    61   am
    70    54    53    1
    71    47    42   am
    72    52    53    1
    73    27    28   ar
    74    65    66    1
    75    53    56    1
    76    83    81   ar
    77    42    43    2
    78    42    41    1
    79    81    82   ar
    80    81    80    1
    81    56    57    1
    82    76    77    1
    83    80    77    1
    84    39    38    2
    85    46    44    1
    86    41    44    1
    87    41    40    1
    88    77    78    1
    89    57    58    1
    90    38    40   am
    91    38    37    1
    92    44    45    1
    93    58    59    1
    94    92    90   ar
    95    91    90   ar
    96    37    36    1
    97    78    79    2
    98    78    84   am
    99    90    89    1
   100    59    60    1
   101    36    31   am
   102    84    85    1
   103    89    88    1
   104    31    32    2
   105    31    30    1
   106    88    85    1
   107    85    86    1
   108    30    29    1
   109    30    33    1
   110    86    87    2
   111    29    35    1
   112   102   103    1
   113    33    34    1
   114   103   106    1
   115   103   104    1
   116   106   107    1
   117    97    98    1
   118    97    94    1
   119    35    34    1
   120    99    98    1
   121    99   100    1
   122   101   100    1
   123    96    95    2
   124   104   105    2
   125    95    94    1
   126   107   108    2
   127   107   109   am
   128    94    93    1
