@<TRIPOS>MOLECULE
tmp/5u8vA01.pdb
 135 130 0 0 0
SMALL
GASTEIGER

@<TRIPOS>ATOM
      1  N          8.0790   22.0310   37.7240 N.3   156  ILE156     -0.1245
      2  CA         8.6370   23.3840   37.6810 C.3   156  ILE156      0.1561
      3  C          8.2600   24.1770   38.9320 C.2   156  ILE156      0.2260
      4  O          7.1070   24.1080   39.3810 O.2   156  ILE156     -0.2867
      5  CB         8.2460   24.1170   36.3870 C.3   156  ILE156      0.0252
      6  CG1        6.7290   24.1170   36.1980 C.3   156  ILE156      0.0019
      7  CG2        8.9520   23.4860   35.2040 C.3   156  ILE156      0.0019
      8  CD1        6.2580   25.0270   35.0810 C.3   156  ILE156      0.0001
      9  N          7.5140   27.2670   39.5190 N.3   158  PRO158     -0.2116
     10  CA         6.3640   28.1850   39.4070 C.3   158  PRO158      0.1372
     11  C          5.0070   27.5170   39.5410 C.2   158  PRO158      0.2244
     12  O          4.0090   28.2230   39.7310 O.2   158  PRO158     -0.2868
     13  CB         6.5390   28.8080   38.0180 C.3   158  PRO158      0.0268
     14  CG         7.9820   28.7020   37.7350 C.3   158  PRO158      0.0207
     15  CD         8.4300   27.4180   38.3740 C.3   158  PRO158      0.0892
     16  N         -0.4700   24.1510   31.4500 N.3   185  ILE185     -0.1231
     17  CA         0.8610   24.6620   31.1420 C.3   185  ILE185      0.1692
     18  C          1.5320   23.6560   30.2190 C.2   185  ILE185      0.2593
     19  O          1.8160   22.5220   30.6220 O.2   185  ILE185     -0.2718
     20  CB         1.7010   24.8910   32.4050 C.3   185  ILE185      0.0266
     21  CG1        0.9280   25.7360   33.4200 C.3   185  ILE185      0.0019
     22  CG2        3.0150   25.5700   32.0250 C.3   185  ILE185      0.0020
     23  CD1        1.6690   25.9740   34.7240 C.3   185  ILE185      0.0001
     24  N          1.7880   24.0720   28.9810 N.am  186  GLY186     -0.1942
     25  CA         2.4090   23.2110   27.9960 C.3   186  GLY186      0.2014
     26  C          1.4350   22.7840   26.9170 C.2   186  GLY186      0.2639
     27  O          0.4360   22.1150   27.2010 O.2   186  GLY186     -0.2714
     28  N          1.7160   23.1710   25.6730 N.am  187  ALA187     -0.1963
     29  CA         0.9000   22.7860   24.5230 C.3   187  ALA187      0.1728
     30  C          1.5390   21.6530   23.7340 C.2   187  ALA187      0.2617
     31  O          1.4580   21.6150   22.5020 O.2   187  ALA187     -0.2715
     32  CB         0.6340   23.9890   23.6250 C.3   187  ALA187      0.0334
     33  N          2.1720   20.7120   24.4260 N.am  188  GLY188     -0.1940
     34  CA         2.6240   19.4870   23.8100 C.3   188  GLY188      0.2014
     35  C          1.4960   18.4750   23.7210 C.2   188  GLY188      0.2639
     36  O          0.3240   18.7730   23.9530 O.2   188  GLY188     -0.2714
     37  N          1.8720   17.2470   23.3670 N.am  189  VAL189     -0.1963
     38  CA         0.8790   16.2000   23.1320 C.3   189  VAL189      0.1727
     39  C          0.0030   15.9960   24.3630 C.2   189  VAL189      0.2616
     40  O         -1.2260   15.9000   24.2620 O.2   189  VAL189     -0.2715
     41  CB         1.5710   14.8990   22.6900 C.3   189  VAL189      0.0290
     42  CG1        0.5570   13.7630   22.5560 C.3   189  VAL189      0.0023
     43  CG2        2.3070   15.1290   21.3800 C.3   189  VAL189      0.0023
     44  N          0.6190   15.9030   25.5410 N.am  190  ILE190     -0.1963
     45  CA        -0.1440   15.6090   26.7520 C.3   190  ILE190      0.1727
     46  C         -1.0770   16.7640   27.0870 C.2   190  ILE190      0.2616
     47  O         -2.2550   16.5620   27.4020 O.2   190  ILE190     -0.2715
     48  CB         0.8070   15.2730   27.9140 C.3   190  ILE190      0.0290
     49  CG1        1.4800   13.9280   27.6410 C.3   190  ILE190      0.0022
     50  CG2        0.0460   15.2510   29.2440 C.3   190  ILE190      0.0023
     51  CD1        2.5620   13.5630   28.6210 C.3   190  ILE190      0.0001
     52  N         -0.5650   17.9930   27.0280 N.am  191  GLY191     -0.1955
     53  CA        -1.4050   19.1410   27.3240 C.3   191  GLY191      0.1869
     54  C         -2.5810   19.2540   26.3750 C.2   191  GLY191      0.2309
     55  O         -3.6970   19.5770   26.7900 O.2   191  GLY191     -0.2863
     56  N         -1.2370   27.5060   28.1330 N.3   208  LEU208     -0.1231
     57  CA        -0.1420   28.4660   28.1180 C.3   208  LEU208      0.1693
     58  C          1.1310   27.7460   27.6950 C.2   208  LEU208      0.2592
     59  O          1.5760   26.8130   28.3740 O.2   208  LEU208     -0.2718
     60  CB         0.0380   29.0930   29.5010 C.3   208  LEU208      0.0284
     61  CG        -1.2000   29.7850   30.0780 C.3   208  LEU208      0.0019
     62  CD1       -0.9720   30.1670   31.5320 C.3   208  LEU208      0.0001
     63  CD2       -1.5630   31.0100   29.2530 C.3   208  LEU208      0.0001
     64  N          1.7100   28.1770   26.5750 N.am  209  GLU209     -0.1966
     65  CA         2.8720   27.5250   25.9830 C.3   209  GLU209      0.1733
     66  C          3.9730   28.5560   25.7950 C.2   209  GLU209      0.2616
     67  O          3.7610   29.5830   25.1430 O.2   209  GLU209     -0.2715
     68  CB         2.4970   26.8910   24.6380 C.3   209  GLU209      0.0429
     69  CG         3.6770   26.5060   23.7510 C.3   209  GLU209      0.1163
     70  CD         4.6160   25.5150   24.4070 C.2   209  GLU209      0.3649
     71  OE1        4.1360   24.6000   25.1060 O.co2 209  GLU209     -0.2457
     72  OE2        5.8430   25.6510   24.2240 O.co2 209  GLU209     -0.2457
     73  N          5.1530   28.2690   26.3490 N.am  210  ALA210     -0.1963
     74  CA         6.2340   29.2480   26.3510 C.3   210  ALA210      0.1728
     75  C          6.8050   29.4800   24.9550 C.2   210  ALA210      0.2616
     76  O          7.2350   30.5980   24.6460 O.2   210  ALA210     -0.2715
     77  CB         7.3350   28.8170   27.3200 C.3   210  ALA210      0.0334
     78  N          6.8350   28.4520   24.1090 N.am  211  LEU211     -0.1977
     79  CA         7.4430   28.5820   22.7920 C.3   211  LEU211      0.1596
     80  C          6.5330   29.3400   21.8320 C.2   211  LEU211      0.2287
     81  O          5.3030   29.2980   21.9360 O.2   211  LEU211     -0.2864
     82  CB         7.7440   27.2040   22.1990 C.3   211  LEU211      0.0297
     83  CG         8.8240   26.3670   22.8850 C.3   211  LEU211      0.0022
     84  CD1        8.8930   24.9840   22.2530 C.3   211  LEU211      0.0001
     85  CD2       10.1770   27.0570   22.7960 C.3   211  LEU211      0.0001
     86  N          3.8430   32.3320   25.8260 N.3   241  ALA241     -0.1231
     87  CA         3.2900   32.6700   27.1330 C.3   241  ALA241      0.1694
     88  C          3.9820   31.7870   28.1590 C.2   241  ALA241      0.2592
     89  O          3.7260   30.5790   28.2190 O.2   241  ALA241     -0.2718
     90  CB         1.7790   32.4460   27.1540 C.3   241  ALA241      0.0304
     91  N          4.8540   32.3860   28.9650 N.am  242  ARG242     -0.1966
     92  CA         5.6650   31.6540   29.9270 C.3   242  ARG242      0.1729
     93  C          5.1300   31.8840   31.3320 C.2   242  ARG242      0.2616
     94  O          5.1370   33.0170   31.8260 O.2   242  ARG242     -0.2715
     95  CB         7.1220   32.1060   29.8660 C.3   242  ARG242      0.0348
     96  CG         7.9640   31.5000   30.9760 C.3   242  ARG242      0.0492
     97  CD         9.4460   31.6830   30.7440 C.3   242  ARG242      0.2205
     98  NE         9.9300   30.8260   29.6700 N.pl3 242  ARG242     -0.0865
     99  CZ        10.1930   29.5300   29.8080 C.cat 242  ARG242      0.5346
    100  NH1       10.0100   28.9280   30.9760 N.pl3 242  ARG242      0.1354
    101  NH2       10.6310   28.8320   28.7710 N.pl3 242  ARG242      0.1354
    102  N          4.6880   30.8050   31.9760 N.am  243  VAL243     -0.1977
    103  CA         4.2550   30.8810   33.3640 C.3   243  VAL243      0.1596
    104  C          5.4730   31.0870   34.2530 C.2   243  VAL243      0.2287
    105  O          6.4710   30.3610   34.1480 O.2   243  VAL243     -0.2864
    106  CB         3.4860   29.6090   33.7510 C.3   243  VAL243      0.0276
    107  CG1        3.2240   29.5750   35.2530 C.3   243  VAL243      0.0022
    108  CG2        2.1760   29.5290   32.9780 C.3   243  VAL243      0.0022
    109  N          1.8250   20.2780   32.3570 N.3   274  ALA274     -0.1231
    110  CA         2.1660   19.3120   31.3090 C.3   274  ALA274      0.1694
    111  C          3.3850   19.8210   30.5380 C.2   274  ALA274      0.2592
    112  O          3.3340   20.1180   29.3430 O.2   274  ALA274     -0.2718
    113  CB         0.9860   19.0560   30.3700 C.3   274  ALA274      0.0304
    114  N          4.5040   19.9250   31.2490 N.am  275  VAL275     -0.1966
    115  CA         5.6970   20.5800   30.7230 C.3   275  VAL275      0.1727
    116  C          6.7960   19.5780   30.3850 C.2   275  VAL275      0.2617
    117  O          7.9820   19.9240   30.4010 O.2   275  VAL275     -0.2715
    118  CB         6.1940   21.6750   31.6850 C.3   275  VAL275      0.0290
    119  CG1        5.1470   22.7720   31.8080 C.3   275  VAL275      0.0023
    120  CG2        6.5180   21.0910   33.0530 C.3   275  VAL275      0.0023
    121  N          6.4220   18.3410   30.0780 N.am  276  GLY276     -0.1940
    122  CA         7.3590   17.3620   29.5640 C.3   276  GLY276      0.2014
    123  C          7.5420   16.1690   30.4840 C.2   276  GLY276      0.2638
    124  O          6.8960   16.0330   31.5230 O.2   276  GLY276     -0.2714
    125  N          8.4710   15.3030   30.0760 N.am  277  ARG277     -0.1977
    126  CA         8.7410   14.0450   30.7500 C.3   277  ARG277      0.1597
    127  C         10.2460   13.9060   30.9380 C.2   277  ARG277      0.2287
    128  O         11.0320   14.3800   30.1110 O.2   277  ARG277     -0.2864
    129  CB         8.2930   12.8910   29.8390 C.3   277  ARG277      0.0334
    130  CG         6.8220   12.9430   29.4070 C.3   277  ARG277      0.0492
    131  CD         5.8810   12.4740   30.4900 C.3   277  ARG277      0.2205
    132  NE         6.1930   11.1190   30.9300 N.pl3 277  ARG277     -0.0865
    133  CZ         5.6730   10.5490   32.0120 C.cat 277  ARG277      0.5346
    134  NH1        4.8200   11.2210   32.7750 N.pl3 277  ARG277      0.1354
    135  NH2        6.0190    9.3130   32.3420 N.pl3 277  ARG277      0.1354
@<TRIPOS>BOND
     1    43    41    1
     2    80    81    2
     3    80    79    1
     4    82    79    1
     5    82    83    1
     6    84    83    1
     7    31    30    2
     8    42    41    1
     9    41    38    1
    10    79    78    1
    11    85    83    1
    12    38    37    1
    13    38    39    1
    14    37    35   am
    15    32    29    1
    16    35    34    1
    17    35    36    2
    18    30    33   am
    19    30    29    1
    20    69    70    1
    21    69    68    1
    22    34    33    1
    23    78    75   am
    24    72    70   ar
    25    40    39    2
    26    39    44   am
    27    70    71   ar
    28    29    28    1
    29    68    65    1
    30    76    75    2
    31    75    74    1
    32    67    66    2
    33    44    45    1
    34    28    26   am
    35    66    65    1
    36    66    73   am
    37    86    87    1
    38    65    64    1
    39    73    74    1
    40    74    77    1
    41    54    55    2
    42    54    53    1
    43    64    58   am
    44    45    46    1
    45    45    48    1
    46    26    27    2
    47    26    25    1
    48    52    46   am
    49    52    53    1
    50    46    47    2
    51    87    90    1
    52    87    88    1
    53    49    48    1
    54    49    51    1
    55    58    57    1
    56    58    59    2
    57    48    50    1
    58    25    24    1
    59    57    56    1
    60    57    60    1
    61    88    89    2
    62    88    91   am
    63   101    99    1
    64    91    92    1
    65    24    18   am
    66    63    61    1
    67   112   111    2
    68   130   129    1
    69   130   131    1
    70    60    61    1
    71   122   121    1
    72   122   123    1
    73    98    99    2
    74    98    97    1
    75    99   100    1
    76   129   126    1
    77    95    92    1
    78    95    96    1
    79    92    93    1
    80   125   123   am
    81   125   126    1
    82   121   116   am
    83    61    62    1
    84   128   127    2
    85    18    19    2
    86    18    17    1
    87   113   110    1
    88   116   117    2
    89   116   115    1
    90   123   124    2
    91   131   132    1
    92   111   114   am
    93   111   110    1
    94   115   114    1
    95   115   118    1
    96    97    96    1
    97   126   127    1
    98   132   133    2
    99    17    16    1
   100    17    20    1
   101   110   109    1
   102    93    94    2
   103    93   102   am
   104   118   119    1
   105   118   120    1
   106   102   103    1
   107   133   135    1
   108   133   134    1
   109    22    20    1
   110    20    21    1
   111   108   106    1
   112   103   106    1
   113   103   104    1
   114    21    23    1
   115   106   107    1
   116   105   104    2
   117     8     6    1
   118     7     5    1
   119     6     5    1
   120     5     2    1
   121     2     1    1
   122     2     3    1
   123    14    13    1
   124    14    15    1
   125    13    10    1
   126    15     9    1
   127     3     4    2
   128    10     9    1
   129    10    11    1
   130    11    12    2
