@<TRIPOS>MOLECULE
tmp/5u90C00.pdb
 181 180 0 0 0
SMALL
GASTEIGER

@<TRIPOS>ATOM
      1  N        -28.4270   36.5160    7.5620 N.3    65  TRP65      -0.1227
      2  CA       -28.2360   36.1580    8.9750 C.3    65  TRP65       0.1737
      3  C        -26.7580   36.2330    9.3980 C.2    65  TRP65       0.2595
      4  O        -26.4360   36.8110   10.4430 O.2    65  TRP65      -0.2718
      5  CB       -28.8370   34.7570    9.2090 C.3    65  TRP65       0.0564
      6  CG       -28.7590   34.2230   10.5860 C.ar   65  TRP65       0.0003
      7  CD1      -29.1220   34.8470   11.7740 C.ar   65  TRP65       0.0946
      8  CD2      -28.2910   32.9340   10.9490 C.ar   65  TRP65       0.0152
      9  NE1      -28.9080   33.9970   12.8440 N.ar   65  TRP65      -0.2442
     10  CE2      -28.4010   32.8190   12.3670 C.ar   65  TRP65       0.0810
     11  CE3      -27.8050   31.8410   10.2270 C.ar   65  TRP65       0.0012
     12  CZ2      -28.0280   31.6640   13.0430 C.ar   65  TRP65       0.0191
     13  CZ3      -27.4170   30.7000   10.9090 C.ar   65  TRP65       0.0001
     14  CH2      -27.5380   30.6240   12.3130 C.ar   65  TRP65       0.0015
     15  N        -25.8610   35.7410    8.5350 N.am   66  PHE66      -0.1976
     16  CA       -24.4270   35.7470    8.8100 C.3    66  PHE66       0.1639
     17  C        -23.8120   37.1350    8.9730 C.2    66  PHE66       0.2290
     18  O        -22.6650   37.2320    9.4130 O.2    66  PHE66      -0.2864
     19  CB       -23.5850   35.0030    7.7420 C.3    66  PHE66       0.0560
     20  CG       -23.8770   33.5300    7.5960 C.ar   66  PHE66      -0.0200
     21  CD1      -24.6460   32.7910    8.5080 C.ar   66  PHE66      -0.0042
     22  CD2      -23.3650   32.8640    6.4980 C.ar   66  PHE66      -0.0042
     23  CE1      -24.8840   31.4400    8.2940 C.ar   66  PHE66      -0.0003
     24  CE2      -23.6040   31.5210    6.2640 C.ar   66  PHE66      -0.0003
     25  CZ       -24.3510   30.8010    7.1790 C.ar   66  PHE66      -0.0000
     26  N        -22.6860   41.7920    3.2100 N.3   108  TYR108     -0.1241
     27  CA       -21.7990   40.7670    3.7230 C.3   108  TYR108      0.1605
     28  C        -20.5070   40.7120    2.9200 C.2   108  TYR108      0.2264
     29  O        -20.5320   40.4400    1.7030 O.2   108  TYR108     -0.2867
     30  CB       -22.5120   39.3900    3.6840 C.3   108  TYR108      0.0534
     31  CG       -21.6560   38.2940    4.2630 C.ar  108  TYR108     -0.0201
     32  CD1      -21.4880   38.1570    5.6600 C.ar  108  TYR108     -0.0009
     33  CD2      -20.9690   37.4180    3.4450 C.ar  108  TYR108     -0.0009
     34  CE1      -20.6580   37.1600    6.1850 C.ar  108  TYR108      0.0417
     35  CE2      -20.1480   36.4290    3.9810 C.ar  108  TYR108      0.0417
     36  CZ       -19.9970   36.2880    5.3340 C.ar  108  TYR108      0.1957
     37  OH       -19.1600   35.3080    5.7990 O.3   108  TYR108     -0.2866
     38  N        -19.4880   34.2260   14.8970 N.3   126  THR126     -0.1218
     39  CA       -19.5640   32.8530   14.4120 C.3   126  THR126      0.1862
     40  C        -19.1340   31.7970   15.4070 C.2   126  THR126      0.2287
     41  O        -19.7950   30.7560   15.4960 O.2   126  THR126     -0.2866
     42  CB       -18.7510   32.7010   13.0960 C.3   126  THR126      0.1770
     43  OG1      -19.2220   33.6760   12.1490 O.3   126  THR126     -0.2211
     44  CG2      -18.9240   31.3090   12.5260 C.3   126  THR126      0.0375
     45  N        -14.5280   35.2830   13.5220 N.3   139  LYS139     -0.1231
     46  CA       -15.2060   35.5890   12.2940 C.3   139  LYS139      0.1693
     47  C        -14.2190   35.4760   11.1350 C.2   139  LYS139      0.2591
     48  O        -13.1870   36.1380   11.1470 O.2   139  LYS139     -0.2718
     49  CB       -15.8150   36.9780   12.3880 C.3   139  LYS139      0.0285
     50  CG       -16.5310   37.4880   11.1640 C.3   139  LYS139      0.0035
     51  CD       -17.7450   36.7180   10.8870 C.3   139  LYS139      0.0206
     52  CE       -18.4400   37.2840    9.6720 C.3   139  LYS139      0.1093
     53  NZ       -19.8480   36.8110    9.7810 N.3   139  LYS139     -0.1314
     54  N        -14.5300   34.6150   10.1590 N.am  140  GLU140     -0.1979
     55  CA       -13.5260   34.1080    9.2040 C.3   140  GLU140      0.1602
     56  C        -12.9360   35.1410    8.2290 C.2   140  GLU140      0.2287
     57  O        -11.9940   34.8060    7.5050 O.2   140  GLU140     -0.2864
     58  CB       -14.0760   32.9010    8.4470 C.3   140  GLU140      0.0415
     59  CG       -15.2020   33.2130    7.4590 C.3   140  GLU140      0.1163
     60  CD       -16.0330   31.9800    7.1400 C.2   140  GLU140      0.3649
     61  OE1      -16.5440   31.3040    8.1050 O.co2 140  GLU140     -0.2457
     62  OE2      -16.2170   31.6950    5.9130 O.co2 140  GLU140     -0.2457
     63  N        -14.8700   29.3940   -0.3860 N.3   221  MET221     -0.1245
     64  CA       -15.1090   29.5030    1.0520 C.3   221  MET221      0.1570
     65  C        -14.6420   28.2190    1.7640 C.2   221  MET221      0.2261
     66  O        -15.1250   27.1090    1.4720 O.2   221  MET221     -0.2867
     67  CB       -16.5830   29.7520    1.3350 C.3   221  MET221      0.0387
     68  CG       -16.9400   29.7570    2.8160 C.3   221  MET221      0.0595
     69  SD       -18.6900   29.6760    3.1680 S.3   221  MET221     -0.1393
     70  CE       -19.1630   31.3660    2.9070 C.3   221  MET221      0.0692
     71  N        -14.9040   27.1380    5.2910 N.3   223  HIS223     -0.1241
     72  CA       -15.5100   27.4820    6.5590 C.3   223  HIS223      0.1621
     73  C        -14.9590   26.6870    7.7190 C.2   223  HIS223      0.2264
     74  O        -14.8090   27.2150    8.8260 O.2   223  HIS223     -0.2867
     75  CB       -17.0100   27.2700    6.4900 C.3   223  HIS223      0.0745
     76  CG       -17.6890   27.6250    7.7500 C.ar  223  HIS223      0.0817
     77  ND1      -17.6470   28.9130    8.2360 N.ar  223  HIS223     -0.2268
     78  CD2      -18.3020   26.8670    8.6950 C.ar  223  HIS223      0.1154
     79  CE1      -18.2650   28.9490    9.3940 C.ar  223  HIS223      0.1986
     80  NE2      -18.6680   27.7270    9.6880 N.ar  223  HIS223     -0.2212
     81  N        -15.9040   24.7910    0.0290 N.3   237  ILE237     -0.1245
     82  CA       -17.2810   24.9100   -0.3940 C.3   237  ILE237      0.1561
     83  C        -17.2530   25.5990   -1.7650 C.2   237  ILE237      0.2260
     84  O        -16.5430   26.6120   -1.9160 O.2   237  ILE237     -0.2867
     85  CB       -18.0990   25.7630    0.5800 C.3   237  ILE237      0.0252
     86  CG1      -18.1920   25.0720    1.9570 C.3   237  ILE237      0.0019
     87  CG2      -19.4880   26.0310    0.0450 C.3   237  ILE237      0.0019
     88  CD1      -18.6660   25.9940    3.0570 C.3   237  ILE237      0.0001
     89  N        -21.5510   20.3940   -1.0450 N.3   285  PHE285     -0.1227
     90  CA       -21.3540   21.4000    0.0060 C.3   285  PHE285      0.1736
     91  C        -20.5480   20.8050    1.1420 C.2   285  PHE285      0.2595
     92  O        -20.9670   19.8020    1.7200 O.2   285  PHE285     -0.2718
     93  CB       -22.7150   21.8880    0.5100 C.3   285  PHE285      0.0547
     94  CG       -22.6180   23.0940    1.4160 C.ar  285  PHE285     -0.0202
     95  CD1      -22.6200   24.3800    0.9030 C.ar  285  PHE285     -0.0042
     96  CD2      -22.4910   22.9280    2.8040 C.ar  285  PHE285     -0.0042
     97  CE1      -22.5310   25.4790    1.7450 C.ar  285  PHE285     -0.0003
     98  CE2      -22.3880   24.0230    3.6290 C.ar  285  PHE285     -0.0003
     99  CZ       -22.3750   25.2840    3.1020 C.ar  285  PHE285     -0.0000
    100  N        -19.4140   21.4330    1.4540 N.am  286  ALA286     -0.1966
    101  CA       -18.5840   21.0210    2.5900 C.3   286  ALA286      0.1728
    102  C        -19.1580   21.5890    3.8920 C.2   286  ALA286      0.2617
    103  O        -18.9560   22.7750    4.2110 O.2   286  ALA286     -0.2715
    104  CB       -17.1480   21.4950    2.4150 C.3   286  ALA286      0.0334
    105  N        -19.9020   20.7570    4.6090 N.am  287  GLY287     -0.1940
    106  CA       -20.4850   21.1490    5.9050 C.3   287  GLY287      0.2014
    107  C        -19.5030   20.9200    7.0370 C.2   287  GLY287      0.2638
    108  O        -18.3370   20.6300    6.8140 O.2   287  GLY287     -0.2714
    109  N        -19.9790   21.0320    8.2790 N.am  288  HIS288     -0.1973
    110  CA       -19.0760   20.9610    9.4150 C.3   288  HIS288      0.1656
    111  C        -18.3840   19.6310    9.5890 C.2   288  HIS288      0.2291
    112  O        -18.9740   18.5460    9.3730 O.2   288  HIS288     -0.2864
    113  CB       -19.8010   21.3340   10.7060 C.3   288  HIS288      0.0771
    114  CG       -20.0800   22.7920   10.7960 C.ar  288  HIS288      0.0820
    115  ND1      -21.3320   23.3190   10.6200 N.ar  288  HIS288     -0.2267
    116  CD2      -19.2490   23.8490   11.0040 C.ar  288  HIS288      0.1154
    117  CE1      -21.2670   24.6360   10.6890 C.ar  288  HIS288      0.1986
    118  NE2      -20.0180   24.9730   10.9570 N.ar  288  HIS288     -0.2212
    119  N        -26.2910   24.6150    0.2750 N.3   311  VAL311     -0.1231
    120  CA       -26.9610   24.8800    1.5500 C.3   311  VAL311      0.1692
    121  C        -27.2110   26.3730    1.7350 C.2   311  VAL311      0.2592
    122  O        -28.2370   26.7590    2.2910 O.2   311  VAL311     -0.2718
    123  CB       -26.1220   24.2640    2.7440 C.3   311  VAL311      0.0266
    124  CG1      -26.6170   24.7400    4.1180 C.3   311  VAL311      0.0020
    125  CG2      -26.1490   22.7440    2.6100 C.3   311  VAL311      0.0020
    126  N        -26.2830   27.2030    1.2800 N.am  312  PHE312     -0.1976
    127  CA       -26.4330   28.6630    1.3990 C.3   312  PHE312      0.1639
    128  C        -27.1190   29.1970    0.1240 C.2   312  PHE312      0.2290
    129  O        -26.5490   29.9510   -0.6720 O.2   312  PHE312     -0.2864
    130  CB       -25.0830   29.3660    1.6540 C.3   312  PHE312      0.0560
    131  CG       -24.3230   28.8850    2.8680 C.ar  312  PHE312     -0.0200
    132  CD1      -24.9180   28.1450    3.9050 C.ar  312  PHE312     -0.0042
    133  CD2      -22.9790   29.2500    3.0140 C.ar  312  PHE312     -0.0042
    134  CE1      -24.1820   27.7760    5.0280 C.ar  312  PHE312     -0.0003
    135  CE2      -22.2280   28.8380    4.1030 C.ar  312  PHE312     -0.0003
    136  CZ       -22.8380   28.1070    5.1280 C.ar  312  PHE312     -0.0000
    137  N        -26.4660   18.1330   10.8370 N.3   358  GLU358     -0.1231
    138  CA       -25.3870   19.1370   10.8370 C.3   358  GLU358      0.1699
    139  C        -24.9340   19.3890   12.2800 C.2   358  GLU358      0.2592
    140  O        -25.4520   18.7450   13.2340 O.2   358  GLU358     -0.2718
    141  CB       -25.8490   20.4720   10.1620 C.3   358  GLU358      0.0402
    142  CG       -25.2060   20.7560    8.8160 C.3   358  GLU358      0.1161
    143  CD       -23.7380   21.2510    8.8790 C.2   358  GLU358      0.3649
    144  OE1      -23.1700   21.3750    9.9950 O.co2 358  GLU358     -0.2457
    145  OE2      -23.1510   21.5410    7.8080 O.co2 358  GLU358     -0.2457
    146  N        -23.9690   20.2920   12.4260 N.am  359  PHE359     -0.1976
    147  CA       -23.4490   20.7450   13.7230 C.3   359  PHE359      0.1639
    148  C        -23.0100   19.5730   14.6230 C.2   359  PHE359      0.2290
    149  O        -23.4740   19.4380   15.7500 O.2   359  PHE359     -0.2864
    150  CB       -24.4680   21.6610   14.4160 C.3   359  PHE359      0.0560
    151  CG       -25.1460   22.6230   13.4690 C.ar  359  PHE359     -0.0200
    152  CD1      -24.4060   23.5120   12.7350 C.ar  359  PHE359     -0.0042
    153  CD2      -26.5230   22.6350   13.3020 C.ar  359  PHE359     -0.0042
    154  CE1      -25.0220   24.3810   11.8470 C.ar  359  PHE359     -0.0003
    155  CE2      -27.1370   23.4700   12.4210 C.ar  359  PHE359     -0.0003
    156  CZ       -26.3930   24.3570   11.6990 C.ar  359  PHE359     -0.0000
    157  N        -30.8970   27.9200    9.6490 N.3   400  PRO400     -0.2116
    158  CA       -31.2330   26.5110    9.4700 C.3   400  PRO400      0.1372
    159  C        -32.1240   25.9830   10.5710 C.2   400  PRO400      0.2244
    160  O        -32.1090   26.5290   11.6720 O.2   400  PRO400     -0.2868
    161  CB       -29.8740   25.8220    9.5560 C.3   400  PRO400      0.0268
    162  CG       -29.0930   26.6890   10.5170 C.3   400  PRO400      0.0207
    163  CD       -29.5120   28.0970   10.1300 C.3   400  PRO400      0.0892
    164  N        -24.9770   30.6930   16.2200 N.3   484  LEU484     -0.1231
    165  CA       -23.9970   29.8640   15.5510 C.3   484  LEU484      0.1693
    166  C        -23.3540   28.9980   16.6210 C.2   484  LEU484      0.2592
    167  O        -24.0630   28.2350   17.2820 O.2   484  LEU484     -0.2718
    168  CB       -23.0780   30.7220   14.6980 C.3   484  LEU484      0.0284
    169  CG       -23.7940   31.2820   13.4510 C.3   484  LEU484      0.0019
    170  CD1      -23.0450   32.4310   12.7970 C.3   484  LEU484      0.0001
    171  CD2      -24.0700   30.1650   12.4400 C.3   484  LEU484      0.0001
    172  N        -22.0500   29.0750   16.8130 N.am  485  HIS485     -0.1976
    173  CA       -21.3470   28.0400   17.5730 C.3   485  HIS485      0.1656
    174  C        -21.2340   28.3930   19.0440 C.2   485  HIS485      0.2291
    175  O        -21.4330   29.5530   19.4380 O.2   485  HIS485     -0.2864
    176  CB       -19.9760   27.7850   16.9600 C.3   485  HIS485      0.0771
    177  CG       -20.0730   27.2050   15.6000 C.ar  485  HIS485      0.0820
    178  ND1      -20.5190   25.9250   15.3880 N.ar  485  HIS485     -0.2267
    179  CD2      -19.8730   27.7510   14.3780 C.ar  485  HIS485      0.1154
    180  CE1      -20.5550   25.6940   14.0890 C.ar  485  HIS485      0.1986
    181  NE2      -20.1770   26.7890   13.4670 N.ar  485  HIS485     -0.2212
@<TRIPOS>BOND
     1    84    83    2
     2    83    82    1
     3    89    90    1
     4   129   128    2
     5    82    81    1
     6    82    85    1
     7    63    64    1
     8    90    93    1
     9    90    91    1
    10    87    85    1
    11   128   127    1
    12   119   120    1
    13    93    94    1
    14    85    86    1
    15    95    94   ar
    16    95    97   ar
    17    64    67    1
    18    64    65    1
    19    91   100   am
    20    91    92    2
    21   126   127    1
    22   126   121   am
    23    67    68    1
    24   127   130    1
    25    94    96   ar
    26   100   101    1
    27    66    65    2
    28   120   121    1
    29   120   123    1
    30   130   131    1
    31    29    28    2
    32   121   122    2
    33    97    99   ar
    34    86    88    1
    35   104   101    1
    36   101   102    1
    37   125   123    1
    38   123   124    1
    39    96    98   ar
    40    68    69    1
    41   131   133   ar
    42   131   132   ar
    43    70    69    1
    44    28    27    1
    45   133   135   ar
    46    99    98   ar
    47    26    27    1
    48    33    35   ar
    49    33    31   ar
    50    30    27    1
    51    30    31    1
    52   102   103    2
    53   102   105   am
    54   132   134   ar
    55    35    36   ar
    56   135   136   ar
    57    31    32   ar
    58   105   106    1
    59   134   136   ar
    60    71    72    1
    61    36    37    1
    62    36    34   ar
    63    32    34   ar
    64   106   107    1
    65    62    60   ar
    66    24    22   ar
    67    24    25   ar
    68    75    72    1
    69    75    76    1
    70    22    20   ar
    71    72    73    1
    72   108   107    2
    73   107   109   am
    74    60    59    1
    75    60    61   ar
    76    25    23   ar
    77    59    58    1
    78    57    56    2
    79     1     2    1
    80    20    19    1
    81    20    21   ar
    82    73    74    2
    83    19    16    1
    84    76    77   ar
    85    76    78   ar
    86   145   143   ar
    87    56    55    1
    88    77    79   ar
    89   109   110    1
    90    23    21   ar
    91    58    55    1
    92    15    16    1
    93    15     3   am
    94    78    80   ar
    95    16    17    1
    96   142   143    1
    97   142   141    1
    98   143   144   ar
    99    17    18    2
   100     2     5    1
   101     2     3    1
   102    55    54    1
   103     5     6    1
   104   112   111    2
   105    79    80   ar
   106     3     4    2
   107   110   111    1
   108   110   113    1
   109   158   161    1
   110   158   157    1
   111   158   159    1
   112   161   162    1
   113   157   163    1
   114    52    53    1
   115    52    51    1
   116   163   162    1
   117    54    47   am
   118   141   138    1
   119    11    13   ar
   120    11     8   ar
   121   159   160    2
   122     6     8   ar
   123     6     7   ar
   124   115   117   ar
   125   115   114   ar
   126   117   118   ar
   127   113   114    1
   128   114   116   ar
   129   137   138    1
   130   138   139    1
   131    51    50    1
   132    13    14   ar
   133     8    10   ar
   134   118   116   ar
   135    47    48    2
   136    47    46    1
   137    50    49    1
   138   156   154   ar
   139   156   155   ar
   140     7     9   ar
   141   154   152   ar
   142    43    42    1
   143   139   146   am
   144   139   140    2
   145    46    49    1
   146    46    45    1
   147    14    12   ar
   148    10     9   ar
   149    10    12   ar
   150   155   153   ar
   151   146   147    1
   152   171   169    1
   153    44    42    1
   154   152   151   ar
   155   170   169    1
   156    42    39    1
   157   153   151   ar
   158   169   168    1
   159   181   180   ar
   160   181   179   ar
   161   151   150    1
   162   147   150    1
   163   147   148    1
   164   180   178   ar
   165   179   177   ar
   166    39    38    1
   167    39    40    1
   168   148   149    2
   169   168   165    1
   170   178   177   ar
   171    40    41    2
   172   165   164    1
   173   165   166    1
   174   177   176    1
   175   166   172   am
   176   166   167    2
   177   172   173    1
   178   176   173    1
   179   173   174    1
   180   174   175    2
