@<TRIPOS>MOLECULE
tmp/5u94A00.pdb
 195 182 0 0 0
SMALL
GASTEIGER

@<TRIPOS>ATOM
      1  N        -22.1240  -17.1730    9.1490 N.3    15  LEU15      -0.1231
      2  CA       -23.5650  -17.1970    8.9300 C.3    15  LEU15       0.1693
      3  C        -24.0090  -18.3330    8.0210 C.2    15  LEU15       0.2593
      4  O        -25.1240  -18.8410    8.1810 O.2    15  LEU15      -0.2718
      5  CB       -24.0310  -15.8650    8.3250 C.3    15  LEU15       0.0284
      6  CG       -23.7700  -14.6070    9.1550 C.3    15  LEU15       0.0019
      7  CD1      -24.1770  -13.3650    8.3730 C.3    15  LEU15       0.0001
      8  CD2      -24.5090  -14.6660   10.4840 C.3    15  LEU15       0.0001
      9  N        -23.1680  -18.7410    7.0800 N.am   16  GLY16      -0.1942
     10  CA       -23.5040  -19.8260    6.1740 C.3    16  GLY16       0.2014
     11  C        -22.3190  -20.1190    5.2810 C.2    16  GLY16       0.2639
     12  O        -21.3600  -19.3440    5.2070 O.2    16  GLY16      -0.2714
     13  N        -22.3910  -21.2630    4.6050 N.am   17  PHE17      -0.1959
     14  CA       -21.3210  -21.6490    3.6980 C.3    17  PHE17       0.1771
     15  C        -21.8600  -22.6260    2.6650 C.2    17  PHE17       0.2620
     16  O        -22.8400  -23.3330    2.9100 O.2    17  PHE17      -0.2715
     17  CB       -20.1360  -22.2680    4.4510 C.3    17  PHE17       0.0574
     18  CG       -20.4570  -23.5680    5.1330 C.ar   17  PHE17      -0.0200
     19  CD1      -20.2200  -24.7750    4.4960 C.ar   17  PHE17      -0.0042
     20  CD2      -20.9850  -23.5840    6.4130 C.ar   17  PHE17      -0.0042
     21  CE1      -20.5090  -25.9740    5.1210 C.ar   17  PHE17      -0.0003
     22  CE2      -21.2770  -24.7800    7.0420 C.ar   17  PHE17      -0.0003
     23  CZ       -21.0390  -25.9760    6.3950 C.ar   17  PHE17      -0.0000
     24  N        -21.2060  -22.6440    1.5060 N.am   18  GLY18      -0.1954
     25  CA       -21.5160  -23.5920    0.4550 C.3    18  GLY18       0.1869
     26  C        -20.2810  -24.3580    0.0180 C.2    18  GLY18       0.2309
     27  O        -19.3750  -24.5780    0.8260 O.2    18  GLY18      -0.2863
     28  N        -19.9370  -17.1160    4.1950 N.3    23  VAL23      -0.1245
     29  CA       -20.4500  -15.7900    4.5230 C.3    23  VAL23       0.1561
     30  C        -20.3050  -15.5760    6.0230 C.2    23  VAL23       0.2260
     31  O        -20.8710  -16.3330    6.8190 O.2    23  VAL23      -0.2867
     32  CB       -21.9160  -15.6170    4.0870 C.3    23  VAL23       0.0252
     33  CG1      -22.4470  -14.2490    4.4880 C.3    23  VAL23       0.0019
     34  CG2      -22.0430  -15.8020    2.5810 C.3    23  VAL23       0.0019
     35  N        -22.1220   -8.1410    6.2000 N.3    36  ALA36      -0.1245
     36  CA       -21.8630   -9.5310    5.8620 C.3    36  ALA36       0.1562
     37  C        -20.7990   -9.5770    4.7750 C.2    36  ALA36       0.2260
     38  O        -20.7870   -8.7340    3.8720 O.2    36  ALA36      -0.2867
     39  CB       -23.1360  -10.2390    5.3900 C.3    36  ALA36       0.0290
     40  N        -18.9730  -12.1460    2.0060 N.3    38  LYS38      -0.1245
     41  CA       -18.9160  -13.4000    1.2680 C.3    38  LYS38       0.1561
     42  C        -17.4930  -13.6100    0.7710 C.2    38  LYS38       0.2260
     43  O        -16.9370  -12.7450    0.0850 O.2    38  LYS38      -0.2867
     44  CB       -19.8950  -13.3890    0.0940 C.3    38  LYS38       0.0271
     45  CG       -20.1760  -14.7640   -0.4880 C.3    38  LYS38       0.0035
     46  CD       -21.2750  -14.6950   -1.5260 C.3    38  LYS38       0.0206
     47  CE       -21.8080  -16.0690   -1.8530 C.3    38  LYS38       0.1093
     48  NZ       -22.8930  -16.0370   -2.8730 N.3    38  LYS38      -0.1314
     49  N        -20.3980  -12.2340   -9.8980 N.3    57  GLU57      -0.1245
     50  CA       -21.4610  -12.1470   -8.9010 C.3    57  GLU57       0.1567
     51  C        -21.4790  -10.7720   -8.2440 C.2    57  GLU57       0.2260
     52  O        -22.5380  -10.1520   -8.0930 O.2    57  GLU57      -0.2867
     53  CB       -21.2770  -13.2410   -7.8480 C.3    57  GLU57       0.0388
     54  CG       -22.2270  -13.1340   -6.6570 C.3    57  GLU57       0.1160
     55  CD       -22.0280  -14.2460   -5.6440 C.2    57  GLU57       0.3649
     56  OE1      -21.1630  -15.1200   -5.8680 O.co2  57  GLU57      -0.2457
     57  OE2      -22.7410  -14.2430   -4.6190 O.co2  57  GLU57      -0.2457
     58  N        -24.7170   -8.1880   -8.6970 N.3    61  ALA61      -0.1245
     59  CA       -25.4540   -7.7680   -7.5120 C.3    61  ALA61       0.1562
     60  C        -25.3320   -6.2660   -7.2920 C.2    61  ALA61       0.2260
     61  O        -26.3060   -5.6080   -6.9060 O.2    61  ALA61      -0.2867
     62  CB       -24.9520   -8.5330   -6.2880 C.3    61  ALA61       0.0290
     63  N        -30.4330   -7.8210   -1.4650 N.3    70  VAL70      -0.1245
     64  CA       -29.2690   -7.5580   -0.6300 C.3    70  VAL70       0.1561
     65  C        -28.3150   -6.6450   -1.3810 C.2    70  VAL70       0.2260
     66  O        -27.9780   -6.8940   -2.5440 O.2    70  VAL70      -0.2867
     67  CB       -28.5960   -8.8850   -0.2240 C.3    70  VAL70       0.0252
     68  CG1      -27.3170   -8.6350    0.5690 C.3    70  VAL70       0.0019
     69  CG2      -29.5600   -9.7390    0.5950 C.3    70  VAL70       0.0019
     70  N        -24.7810   -4.6720   -2.2270 N.3    72  VAL72      -0.1245
     71  CA       -23.3310   -4.8360   -2.2080 C.3    72  VAL72       0.1561
     72  C        -22.7000   -3.4870   -1.9060 C.2    72  VAL72       0.2260
     73  O        -23.0240   -2.4820   -2.5520 O.2    72  VAL72      -0.2867
     74  CB       -22.8150   -5.3960   -3.5450 C.3    72  VAL72       0.0252
     75  CG1      -21.2860   -5.4410   -3.5630 C.3    72  VAL72       0.0019
     76  CG2      -23.3810   -6.7830   -3.7900 C.3    72  VAL72       0.0019
     77  N        -16.6010  -10.2420   -0.9040 N.3    88  ILE88      -0.1245
     78  CA       -17.6540   -9.2830   -1.2180 C.3    88  ILE88       0.1561
     79  C        -18.2630   -8.8060    0.0930 C.2    88  ILE88       0.2260
     80  O        -18.6860   -9.6240    0.9170 O.2    88  ILE88      -0.2867
     81  CB       -18.7370   -9.9050   -2.1200 C.3    88  ILE88       0.0252
     82  CG1      -18.1290  -10.3760   -3.4430 C.3    88  ILE88       0.0019
     83  CG2      -19.8610   -8.9060   -2.3780 C.3    88  ILE88       0.0019
     84  CD1      -19.0560  -11.2480   -4.2720 C.3    88  ILE88       0.0001
     85  N        -21.3180   -6.7860    1.9030 N.3    90  MET90      -0.1230
     86  CA       -22.7120   -6.5600    1.5570 C.3    90  MET90       0.1702
     87  C        -23.5260   -6.2330    2.8000 C.2    90  MET90       0.2592
     88  O        -23.0440   -6.2970    3.9350 O.2    90  MET90      -0.2718
     89  CB       -23.3100   -7.7820    0.8520 C.3    90  MET90       0.0401
     90  CG       -23.3060   -9.0370    1.6980 C.3    90  MET90       0.0596
     91  SD       -23.4580  -10.5290    0.7060 S.3    90  MET90      -0.1393
     92  CE       -23.1750  -11.7880    1.9470 C.3    90  MET90       0.0692
     93  N        -24.7810   -5.8670    2.5520 N.am   91  GLU91      -0.1966
     94  CA       -25.7360   -5.5890    3.6130 C.3    91  GLU91       0.1733
     95  C        -25.9350   -6.8160    4.4960 C.2    91  GLU91       0.2616
     96  O        -26.0850   -7.9380    4.0010 O.2    91  GLU91      -0.2715
     97  CB       -27.0620   -5.1520    2.9810 C.3    91  GLU91       0.0429
     98  CG       -28.2930   -5.2120    3.8750 C.3    91  GLU91       0.1163
     99  CD       -29.5720   -4.9440    3.1020 C.2    91  GLU91       0.3649
    100  OE1      -29.5410   -5.0080    1.8550 O.co2  91  GLU91      -0.2457
    101  OE2      -30.6080   -4.6700    3.7400 O.co2  91  GLU91      -0.2457
    102  N        -25.9430   -6.5960    5.8090 N.am   92  TYR92      -0.1960
    103  CA       -26.2370   -7.6430    6.7770 C.3    92  TYR92       0.1771
    104  C        -27.7410   -7.7000    7.0220 C.2    92  TYR92       0.2619
    105  O        -28.3520   -6.7040    7.4230 O.2    92  TYR92      -0.2715
    106  CB       -25.4880   -7.3960    8.0870 C.3    92  TYR92       0.0574
    107  CG       -25.9160   -8.3070    9.2220 C.ar   92  TYR92      -0.0198
    108  CD1      -26.2650   -7.7850   10.4600 C.ar   92  TYR92      -0.0009
    109  CD2      -25.9820   -9.6860    9.0510 C.ar   92  TYR92      -0.0009
    110  CE1      -26.6610   -8.6080   11.5000 C.ar   92  TYR92       0.0417
    111  CE2      -26.3790  -10.5200   10.0880 C.ar   92  TYR92       0.0417
    112  CZ       -26.7160   -9.9710   11.3090 C.ar   92  TYR92       0.1957
    113  OH       -27.1100  -10.7830   12.3450 O.3    92  TYR92      -0.2866
    114  N        -28.3320   -8.8630    6.7750 N.am   93  VAL93      -0.1977
    115  CA       -29.7380   -9.1210    7.0570 C.3    93  VAL93       0.1596
    116  C        -29.7820  -10.0150    8.2870 C.2    93  VAL93       0.2287
    117  O        -29.3440  -11.1720    8.2420 O.2    93  VAL93      -0.2864
    118  CB       -30.4510   -9.7760    5.8650 C.3    93  VAL93       0.0276
    119  CG1      -31.9300   -9.9670    6.1720 C.3    93  VAL93       0.0022
    120  CG2      -30.2730   -8.9370    4.6060 C.3    93  VAL93       0.0022
    121  N        -33.9740  -17.6510    6.4460 N.3    97  THR97      -0.1218
    122  CA       -34.4610  -17.9640    5.1130 C.3    97  THR97       0.1862
    123  C        -35.8240  -18.6420    5.1900 C.2    97  THR97       0.2287
    124  O        -36.2390  -19.1460    6.2360 O.2    97  THR97      -0.2866
    125  CB       -33.4810  -18.8800    4.3780 C.3    97  THR97       0.1770
    126  OG1      -33.4530  -20.1590    5.0210 O.3    97  THR97      -0.2211
    127  CG2      -32.0790  -18.2940    4.3740 C.3    97  THR97       0.0375
    128  N        -36.3450  -21.4000    3.7980 N.3    99  ARG99      -0.1245
    129  CA       -36.0010  -22.7900    4.0720 C.3    99  ARG99       0.1563
    130  C        -36.0470  -23.0770    5.5680 C.2    99  ARG99       0.2260
    131  O        -36.6420  -24.0690    6.0050 O.2    99  ARG99      -0.2867
    132  CB       -34.6170  -23.1000    3.5010 C.3    99  ARG99       0.0307
    133  CG       -34.1660  -24.5370    3.6910 C.3    99  ARG99       0.0489
    134  CD       -32.8130  -24.7710    3.0460 C.3    99  ARG99       0.2205
    135  NE       -32.3880  -26.1650    3.1520 N.pl3  99  ARG99      -0.0865
    136  CZ       -31.6850  -26.6700    4.1630 C.cat  99  ARG99       0.5346
    137  NH1      -31.3530  -27.9530    4.1570 N.pl3  99  ARG99       0.1354
    138  NH2      -31.3090  -25.9030    5.1790 N.pl3  99  ARG99       0.1354
    139  N        -34.8820  -19.9480   -4.8460 N.3   138  LYS138     -0.1245
    140  CA       -35.2440  -21.0900   -4.0190 C.3   138  LYS138      0.1561
    141  C        -35.4190  -20.6050   -2.5870 C.2   138  LYS138      0.2260
    142  O        -34.9840  -19.4990   -2.2460 O.2   138  LYS138     -0.2867
    143  CB       -34.1800  -22.1970   -4.0940 C.3   138  LYS138      0.0271
    144  CG       -32.7910  -21.7650   -3.6520 C.3   138  LYS138      0.0035
    145  CD       -31.8010  -22.9160   -3.7620 C.3   138  LYS138      0.0206
    146  CE       -30.4160  -22.5060   -3.2800 C.3   138  LYS138      0.1093
    147  NZ       -29.4310  -23.6190   -3.3930 N.3   138  LYS138     -0.1314
    148  N        -33.9240  -21.0780    0.0990 N.3   140  ALA140     -0.1231
    149  CA       -32.7140  -20.7340    0.8330 C.3   140  ALA140      0.1694
    150  C        -32.1240  -19.3950    0.4130 C.2   140  ALA140      0.2592
    151  O        -31.2540  -18.8730    1.1190 O.2   140  ALA140     -0.2718
    152  CB       -31.6580  -21.8290    0.6550 C.3   140  ALA140      0.0304
    153  N        -32.5730  -18.8260   -0.7050 N.am  141  ASN141     -0.1974
    154  CA       -32.0410  -17.5660   -1.2050 C.3   141  ASN141      0.1688
    155  C        -32.9660  -16.3820   -0.9570 C.2   141  ASN141      0.2292
    156  O        -32.6730  -15.2770   -1.4270 O.2   141  ASN141     -0.2864
    157  CB       -31.7410  -17.6860   -2.7020 C.3   141  ASN141      0.1181
    158  CG       -30.5680  -18.5950   -2.9830 C.2   141  ASN141      0.2629
    159  OD1      -29.7970  -18.9250   -2.0830 O.2   141  ASN141     -0.2716
    160  ND2      -30.4200  -18.9990   -4.2370 N.am  141  ASN141     -0.0877
    161  N        -34.6580  -14.2360    2.2020 N.3   143  MET143     -0.1245
    162  CA       -34.5780  -14.0160    3.6370 C.3   143  MET143      0.1570
    163  C        -35.7030  -13.1050    4.1090 C.2   143  MET143      0.2261
    164  O        -36.2640  -12.3170    3.3430 O.2   143  MET143     -0.2867
    165  CB       -33.2290  -13.4000    4.0250 C.3   143  MET143      0.0387
    166  CG       -32.0470  -14.3350    3.8620 C.3   143  MET143      0.0595
    167  SD       -30.5590  -13.7110    4.6760 S.3   143  MET143     -0.1393
    168  CE       -31.0180  -13.8750    6.4020 C.3   143  MET143      0.0692
    169  N        -31.1600  -12.8680   -2.2600 N.3   153  MET153     -0.1230
    170  CA       -29.7070  -12.8810   -2.1490 C.3   153  MET153      0.1702
    171  C        -29.1440  -13.9770   -3.0510 C.2   153  MET153      0.2592
    172  O        -29.8730  -14.6280   -3.8060 O.2   153  MET153     -0.2718
    173  CB       -29.2910  -13.0890   -0.6880 C.3   153  MET153      0.0401
    174  CG       -29.5880  -14.4860   -0.1790 C.3   153  MET153      0.0596
    175  SD       -29.3600  -14.6390    1.5970 S.3   153  MET153     -0.1393
    176  CE       -29.6900  -16.3850    1.8240 C.3   153  MET153      0.0692
    177  N        -27.8280  -14.1760   -2.9540 N.am  154  ASP154     -0.1960
    178  CA       -27.0890  -15.1870   -3.7050 C.3   154  ASP154      0.1840
    179  C        -27.3360  -15.0930   -5.2070 C.2   154  ASP154      0.2622
    180  O        -28.0540  -15.9160   -5.7830 O.2   154  ASP154     -0.2715
    181  CB       -27.4290  -16.5950   -3.2090 C.3   154  ASP154      0.1450
    182  CG       -26.3470  -17.6030   -3.5580 C.2   154  ASP154      0.3671
    183  OD1      -25.4680  -17.2640   -4.3810 O.co2 154  ASP154     -0.2456
    184  OD2      -26.3670  -18.7270   -3.0100 O.co2 154  ASP154     -0.2456
    185  N        -26.7270  -14.0930   -5.8490 N.am  155  PHE155     -0.1974
    186  CA       -26.7010  -13.9890   -7.3030 C.3   155  PHE155      0.1639
    187  C        -25.6410  -14.8510   -7.9840 C.2   155  PHE155      0.2290
    188  O        -25.3540  -14.6620   -9.1740 O.2   155  PHE155     -0.2864
    189  CB       -26.6820  -12.5160   -7.7210 C.3   155  PHE155      0.0560
    190  CG       -27.9970  -11.8180   -7.5360 C.ar  155  PHE155     -0.0200
    191  CD1      -28.4770  -11.5420   -6.2670 C.ar  155  PHE155     -0.0042
    192  CD2      -28.7540  -11.4360   -8.6320 C.ar  155  PHE155     -0.0042
    193  CE1      -29.6890  -10.9060   -6.0900 C.ar  155  PHE155     -0.0003
    194  CE2      -29.9690  -10.7950   -8.4640 C.ar  155  PHE155     -0.0003
    195  CZ       -30.4360  -10.5300   -7.1910 C.ar  155  PHE155     -0.0000
@<TRIPOS>BOND
     1    49    50    1
     2   188   187    2
     3    50    51    1
     4    50    53    1
     5    58    59    1
     6   192   194   ar
     7   192   190   ar
     8   194   195   ar
     9    51    52    2
    10   187   186    1
    11    53    54    1
    12   189   190    1
    13   189   186    1
    14   190   191   ar
    15    59    60    1
    16    59    62    1
    17   186   185    1
    18    60    61    2
    19   195   193   ar
    20    54    55    1
    21   191   193   ar
    22    56    55   ar
    23   185   179   am
    24   180   179    2
    25    55    57   ar
    26   179   178    1
    27   139   140    1
    28   183   182   ar
    29    84    82    1
    30   160   158   am
    31   143   140    1
    32   143   144    1
    33   140   141    1
    34   172   171    2
    35    76    74    1
    36   145   144    1
    37   145   146    1
    38   178   181    1
    39   178   177    1
    40    75    74    1
    41   182   181    1
    42   182   184   ar
    43    74    71    1
    44    82    81    1
    45   147   146    1
    46   171   177   am
    47   171   170    1
    48   158   157    1
    49   158   159    2
    50    48    47    1
    51   157   154    1
    52   141   142    2
    53    73    72    2
    54    66    65    2
    55    83    81    1
    56   169   170    1
    57    70    71    1
    58    71    72    1
    59   170   173    1
    60    81    78    1
    61    47    46    1
    62    46    45    1
    63    63    64    1
    64   156   155    2
    65    65    64    1
    66    78    77    1
    67    78    79    1
    68   154   155    1
    69   154   153    1
    70   153   150   am
    71   173   174    1
    72    64    67    1
    73    45    44    1
    74    67    68    1
    75    67    69    1
    76   174   175    1
    77    26    25    1
    78    26    27    2
    79    43    42    2
    80    79    80    2
    81    44    41    1
    82   148   149    1
    83   150   149    1
    84   150   151    2
    85    25    24    1
    86   152   149    1
    87    91    90    1
    88    91    92    1
    89    42    41    1
    90    89    86    1
    91    89    90    1
    92    41    40    1
    93    24    15   am
    94    86    85    1
    95    86    87    1
    96   175   176    1
    97   100    99   ar
    98   161   162    1
    99    93    87   am
   100    93    94    1
   101    34    32    1
   102    15    16    2
   103    15    14    1
   104    87    88    2
   105    97    94    1
   106    97    98    1
   107   134   135    1
   108   134   133    1
   109    99   101   ar
   110    99    98    1
   111   135   136    2
   112   164   163    2
   113   132   133    1
   114   132   129    1
   115    94    95    1
   116   162   165    1
   117   162   163    1
   118    14    17    1
   119    14    13    1
   120   128   129    1
   121   166   165    1
   122   166   167    1
   123    38    37    2
   124    96    95    2
   125   129   130    1
   126    32    33    1
   127    32    29    1
   128   137   136    1
   129   136   138    1
   130    28    29    1
   131   127   125    1
   132   125   126    1
   133   125   122    1
   134    17    18    1
   135    19    21   ar
   136    19    18   ar
   137    95   102   am
   138    29    30    1
   139    13    11   am
   140   120   118    1
   141   167   168    1
   142    37    36    1
   143   122   123    1
   144   122   121    1
   145    21    23   ar
   146    18    20   ar
   147   123   124    2
   148    12    11    2
   149    11    10    1
   150    39    36    1
   151   130   131    2
   152   102   103    1
   153    36    35    1
   154   118   119    1
   155   118   115    1
   156    30    31    2
   157    10     9    1
   158    23    22   ar
   159    20    22   ar
   160   114   104   am
   161   114   115    1
   162   103   104    1
   163   103   106    1
   164   104   105    2
   165   115   116    1
   166     9     3   am
   167     3     4    2
   168     3     2    1
   169   106   107    1
   170   117   116    2
   171     5     2    1
   172     5     6    1
   173     7     6    1
   174     2     1    1
   175   109   107   ar
   176   109   111   ar
   177     6     8    1
   178   107   108   ar
   179   111   112   ar
   180   108   110   ar
   181   112   110   ar
   182   112   113    1
