@<TRIPOS>MOLECULE
tmp/5u97A02.pdb
 85 78 0 0 0
SMALL
GASTEIGER

@<TRIPOS>ATOM
      1  N        -11.0090   66.8560   31.4950 N.3    86  ARG86      -0.1245
      2  CA       -10.7940   66.0430   30.3000 C.3    86  ARG86       0.1563
      3  C        -10.9990   66.8740   29.0410 C.2    86  ARG86       0.2260
      4  O        -11.9660   66.6930   28.3120 O.2    86  ARG86      -0.2867
      5  CB       -11.7130   64.8270   30.2550 C.3    86  ARG86       0.0307
      6  CG       -11.0640   63.5100   30.6450 C.3    86  ARG86       0.0489
      7  CD       -10.5340   63.5520   32.0040 C.3    86  ARG86       0.2205
      8  NE        -9.7440   62.3560   32.3580 N.pl3  86  ARG86      -0.0865
      9  CZ        -9.1430   62.2460   33.5490 C.cat  86  ARG86       0.5346
     10  NH1       -9.2090   63.2520   34.4240 N.pl3  86  ARG86       0.1354
     11  NH2       -8.4580   61.1640   33.8600 N.pl3  86  ARG86       0.1354
     12  N         -9.8470   68.1720   25.2080 N.3    88  GLU88      -0.1245
     13  CA        -9.3590   67.4770   24.0370 C.3    88  GLU88       0.1567
     14  C         -7.8330   67.2630   24.1370 C.2    88  GLU88       0.2260
     15  O         -7.3150   66.1990   23.8370 O.2    88  GLU88      -0.2867
     16  CB        -9.7440   68.2440   22.7410 C.3    88  GLU88       0.0388
     17  CG        -9.2210   67.5850   21.4600 C.3    88  GLU88       0.1160
     18  CD        -9.5600   68.3440   20.1890 C.2    88  GLU88       0.3649
     19  OE1      -10.4960   69.1720   20.1690 O.co2  88  GLU88      -0.2457
     20  OE2       -8.8540   68.1120   19.2090 O.co2  88  GLU88      -0.2457
     21  N         -6.9080   64.4810   26.8060 N.3    91  VAL91      -0.1231
     22  CA        -7.2510   63.1530   26.3220 C.3    91  VAL91       0.1692
     23  C         -6.3410   62.6620   25.2040 C.2    91  VAL91       0.2591
     24  O         -5.8300   61.5350   25.2580 O.2    91  VAL91      -0.2718
     25  CB        -8.7480   63.0890   25.9140 C.3    91  VAL91       0.0266
     26  CG1       -9.0860   61.7690   25.1860 C.3    91  VAL91       0.0020
     27  CG2       -9.5850   63.2380   27.2030 C.3    91  VAL91       0.0020
     28  N         -6.0830   63.5090   24.2100 N.am   92  ARG92      -0.1980
     29  CA        -5.2010   63.1000   23.1090 C.3    92  ARG92       0.1597
     30  C         -3.7940   62.8760   23.5330 C.2    92  ARG92       0.2287
     31  O         -3.1350   61.8970   23.1420 O.2    92  ARG92      -0.2864
     32  CB        -5.3400   64.0600   21.9310 C.3    92  ARG92       0.0334
     33  CG        -6.7490   63.9730   21.3680 C.3    92  ARG92       0.0492
     34  CD        -6.9520   64.9890   20.2490 C.3    92  ARG92       0.2205
     35  NE        -6.3010   64.5740   19.0090 N.pl3  92  ARG92      -0.0865
     36  CZ        -6.3250   65.2660   17.8560 C.cat  92  ARG92       0.5346
     37  NH1       -6.9480   66.4330   17.7650 N.pl3  92  ARG92       0.1354
     38  NH2       -5.6940   64.7910   16.8120 N.pl3  92  ARG92       0.1354
     39  N         -3.6530   59.5630   25.5150 N.3    95  GLU95      -0.1245
     40  CA        -3.6260   58.4450   24.5700 C.3    95  GLU95       0.1567
     41  C         -2.2430   58.2620   23.9490 C.2    95  GLU95       0.2260
     42  O         -1.7820   57.1620   23.7940 O.2    95  GLU95      -0.2867
     43  CB        -4.6910   58.6400   23.4600 C.3    95  GLU95       0.0388
     44  CG        -4.8010   57.5670   22.3950 C.3    95  GLU95       0.1160
     45  CD        -5.6700   56.3620   22.7610 C.2    95  GLU95       0.3649
     46  OE1       -6.1370   56.2390   23.9420 O.co2  95  GLU95      -0.2457
     47  OE2       -5.8830   55.5330   21.8270 O.co2  95  GLU95      -0.2457
     48  N        -10.3280   71.9470   19.7500 N.3   116  ILE116     -0.1245
     49  CA       -10.3740   72.8120   20.9430 C.3   116  ILE116      0.1561
     50  C         -8.9930   72.7320   21.5830 C.2   116  ILE116      0.2260
     51  O         -8.4870   71.6260   21.8500 O.2   116  ILE116     -0.2867
     52  CB       -11.4310   72.3150   21.9350 C.3   116  ILE116      0.0252
     53  CG1      -12.8480   72.2940   21.2960 C.3   116  ILE116      0.0019
     54  CG2      -11.4500   73.1520   23.1880 C.3   116  ILE116      0.0019
     55  CD1      -13.4950   73.6280   21.0940 C.3   116  ILE116      0.0001
     56  N        -15.5710   73.9980   29.7140 N.3   141  TYR141     -0.1241
     57  CA       -15.7870   72.5520   29.8620 C.3   141  TYR141      0.1605
     58  C        -16.6860   72.3490   31.0850 C.2   141  TYR141      0.2264
     59  O        -16.4440   72.9470   32.1560 O.2   141  TYR141     -0.2867
     60  CB       -14.4770   71.8000   30.0160 C.3   141  TYR141      0.0534
     61  CG       -13.8960   71.3370   28.7050 C.ar  141  TYR141     -0.0201
     62  CD1      -13.0920   72.1850   27.9610 C.ar  141  TYR141     -0.0009
     63  CD2      -14.1540   70.0750   28.2100 C.ar  141  TYR141     -0.0009
     64  CE1      -12.5430   71.7850   26.7520 C.ar  141  TYR141      0.0417
     65  CE2      -13.5940   69.6560   27.0040 C.ar  141  TYR141      0.0417
     66  CZ       -12.7820   70.5330   26.2710 C.ar  141  TYR141      0.1957
     67  OH       -12.2140   70.1660   25.0970 O.3   141  TYR141     -0.2866
     68  N        -15.7330   65.1130   33.9470 N.3   150  THR150     -0.1218
     69  CA       -15.9100   66.0520   32.8740 C.3   150  THR150      0.1862
     70  C        -17.0450   65.5760   31.9400 C.2   150  THR150      0.2287
     71  O        -16.9610   64.4760   31.4140 O.2   150  THR150     -0.2866
     72  CB       -14.6180   66.1530   32.0590 C.3   150  THR150      0.1770
     73  OG1      -13.5490   66.6390   32.8820 O.3   150  THR150     -0.2211
     74  CG2      -14.8270   67.1560   30.8660 C.3   150  THR150      0.0375
     75  N        -17.9490   67.5100   29.1220 N.3   152  GLY152     -0.1210
     76  CA       -17.4220   67.8740   27.8130 C.3   152  GLY152      0.1956
     77  C        -17.5210   69.3540   27.5660 C.2   152  GLY152      0.2611
     78  O        -17.9210   70.1180   28.4410 O.2   152  GLY152     -0.2717
     79  N        -17.2080   69.7490   26.3400 N.am  153  VAL153     -0.1979
     80  CA       -17.3620   71.1410   25.9300 C.3   153  VAL153      0.1595
     81  C        -18.8000   71.5610   26.1210 C.2   153  VAL153      0.2287
     82  O        -19.7090   70.8200   25.7790 O.2   153  VAL153     -0.2864
     83  CB       -17.0210   71.2970   24.4270 C.3   153  VAL153      0.0276
     84  CG1      -17.4060   72.6940   23.9080 C.3   153  VAL153      0.0022
     85  CG2      -15.5460   71.0750   24.2400 C.3   153  VAL153      0.0022
@<TRIPOS>BOND
     1    38    36    1
     2    37    36    1
     3    36    35    2
     4    35    34    1
     5    20    18   ar
     6    48    49    1
     7    19    18   ar
     8    18    17    1
     9    34    33    1
    10    49    50    1
    11    49    52    1
    12    55    53    1
    13    53    52    1
    14    33    32    1
    15    17    16    1
    16    50    51    2
    17    47    45   ar
    18    32    29    1
    19    52    54    1
    20    44    45    1
    21    44    43    1
    22    16    13    1
    23    45    46   ar
    24    29    30    1
    25    29    28    1
    26    31    30    2
    27    43    40    1
    28    42    41    2
    29    15    14    2
    30    84    83    1
    31    41    40    1
    32    13    14    1
    33    13    12    1
    34    28    23   am
    35    85    83    1
    36    83    80    1
    37    40    39    1
    38    67    66    1
    39    26    25    1
    40    23    24    2
    41    23    22    1
    42    82    81    2
    43    25    22    1
    44    25    27    1
    45    80    81    1
    46    80    79    1
    47    66    64   ar
    48    66    65   ar
    49    22    21    1
    50    79    77   am
    51    64    62   ar
    52    65    63   ar
    53    77    76    1
    54    77    78    2
    55    76    75    1
    56    62    61   ar
    57    63    61   ar
    58     4     3    2
    59    61    60    1
    60     3     2    1
    61    56    57    1
    62    57    60    1
    63    57    58    1
    64     5     2    1
    65     5     6    1
    66     2     1    1
    67     6     7    1
    68    74    72    1
    69    58    59    2
    70    71    70    2
    71    70    69    1
    72     7     8    1
    73    72    69    1
    74    72    73    1
    75     8     9    2
    76    69    68    1
    77     9    11    1
    78     9    10    1
