@<TRIPOS>MOLECULE
tmp/5u97A01.pdb
 147 150 0 0 0
SMALL
GASTEIGER

@<TRIPOS>ATOM
      1  N         13.1380   75.9570   35.0770 N.3    11  GLU11      -0.1231
      2  CA        12.6610   76.6990   36.2460 C.3    11  GLU11       0.1699
      3  C         11.1300   76.6370   36.4550 C.2    11  GLU11       0.2592
      4  O         10.6630   76.5560   37.6020 O.2    11  GLU11      -0.2718
      5  CB        13.1230   78.1680   36.1190 C.3    11  GLU11       0.0402
      6  CG        14.4110   78.4300   36.8940 C.3    11  GLU11       0.1161
      7  CD        14.0870   78.8370   38.3490 C.2    11  GLU11       0.3649
      8  OE1       13.8030   80.0620   38.5790 O.co2  11  GLU11      -0.2457
      9  OE2       14.1500   77.9830   39.2900 O.co2  11  GLU11      -0.2457
     10  N         10.3680   76.6620   35.3680 N.am   12  ASN12      -0.1974
     11  CA         8.9070   76.6460   35.4900 C.3    12  ASN12       0.1688
     12  C          8.2830   75.3620   36.0210 C.2    12  ASN12       0.2292
     13  O          7.0890   75.3600   36.3020 O.2    12  ASN12      -0.2864
     14  CB         8.2590   77.0250   34.1300 C.3    12  ASN12       0.1181
     15  CG         8.4140   78.5160   33.8260 C.2    12  ASN12       0.2629
     16  OD1        9.0390   79.2720   34.6100 O.2    12  ASN12      -0.2716
     17  ND2        7.8000   78.9560   32.7310 N.am   12  ASN12      -0.0877
     18  N          3.5290   79.1470   32.4850 N.3    61  TRP61      -0.1227
     19  CA         2.6020   78.5980   33.4820 C.3    61  TRP61       0.1737
     20  C          1.1780   78.5410   32.9760 C.2    61  TRP61       0.2595
     21  O          0.5030   77.5210   33.1960 O.2    61  TRP61      -0.2718
     22  CB         2.7130   79.4640   34.7360 C.3    61  TRP61       0.0564
     23  CG         1.8740   79.1030   35.8960 C.ar   61  TRP61       0.0003
     24  CD1        1.7730   77.8980   36.5170 C.ar   61  TRP61       0.0946
     25  CD2        1.1110   80.0360   36.6590 C.ar   61  TRP61       0.0152
     26  NE1        0.9310   78.0190   37.6160 N.ar   61  TRP61      -0.2442
     27  CE2        0.4900   79.3210   37.7070 C.ar   61  TRP61       0.0810
     28  CE3        0.8670   81.4230   36.5340 C.ar   61  TRP61       0.0012
     29  CZ2       -0.3370   79.9320   38.6250 C.ar   61  TRP61       0.0191
     30  CZ3       -0.0140   82.0230   37.4420 C.ar   61  TRP61       0.0001
     31  CH2       -0.5840   81.2690   38.4900 C.ar   61  TRP61       0.0015
     32  N          0.7490   79.5570   32.2210 N.am   62  PHE62      -0.1976
     33  CA        -0.6180   79.6000   31.6830 C.3    62  PHE62       0.1639
     34  C         -0.9420   78.4870   30.6990 C.2    62  PHE62       0.2290
     35  O         -2.1110   78.3300   30.3490 O.2    62  PHE62      -0.2864
     36  CB        -0.9920   80.9380   30.9900 C.3    62  PHE62       0.0560
     37  CG        -0.8540   82.1860   31.8300 C.ar   62  PHE62      -0.0200
     38  CD1       -0.8520   82.1560   33.2350 C.ar   62  PHE62      -0.0042
     39  CD2       -0.7730   83.4270   31.1960 C.ar   62  PHE62      -0.0042
     40  CE1       -0.6880   83.3210   33.9560 C.ar   62  PHE62      -0.0003
     41  CE2       -0.5750   84.6030   31.9030 C.ar   62  PHE62      -0.0003
     42  CZ        -0.5550   84.5620   33.2760 C.ar   62  PHE62      -0.0000
     43  N          3.2460   93.2120   33.1310 N.3   307  VAL307     -0.1231
     44  CA         3.3100   92.1750   34.1520 C.3   307  VAL307      0.1692
     45  C          3.6830   90.8340   33.5290 C.2   307  VAL307      0.2592
     46  O          4.3980   90.0420   34.1610 O.2   307  VAL307     -0.2718
     47  CB         1.9500   92.0910   34.9040 C.3   307  VAL307      0.0266
     48  CG1        1.9050   90.9020   35.8660 C.3   307  VAL307      0.0020
     49  CG2        1.6840   93.4250   35.6380 C.3   307  VAL307      0.0020
     50  N          3.2450   90.5870   32.2900 N.am  308  PHE308     -0.1962
     51  CA         3.6020   89.3710   31.5740 C.3   308  PHE308      0.1771
     52  C          4.8840   89.6020   30.7520 C.2   308  PHE308      0.2620
     53  O          4.8940   89.5890   29.5060 O.2   308  PHE308     -0.2715
     54  CB         2.4220   88.8620   30.7050 C.3   308  PHE308      0.0574
     55  CG         1.1260   88.6160   31.4480 C.ar  308  PHE308     -0.0200
     56  CD1        1.0860   88.4860   32.8190 C.ar  308  PHE308     -0.0042
     57  CD2       -0.0410   88.4960   30.7460 C.ar  308  PHE308     -0.0042
     58  CE1       -0.1310   88.2670   33.4770 C.ar  308  PHE308     -0.0003
     59  CE2       -1.2760   88.2860   31.3820 C.ar  308  PHE308     -0.0003
     60  CZ        -1.3150   88.1540   32.7540 C.ar  308  PHE308     -0.0000
     61  N          5.9610   89.7610   31.4990 N.am  309  PHE309     -0.1960
     62  CA         7.2820   90.1870   30.9940 C.3   309  PHE309      0.1771
     63  C          7.9640   89.2200   30.0230 C.2   309  PHE309      0.2619
     64  O          8.8650   89.6200   29.2910 O.2   309  PHE309     -0.2715
     65  CB         8.2390   90.4770   32.1730 C.3   309  PHE309      0.0574
     66  CG         8.4810   89.2940   33.0640 C.ar  309  PHE309     -0.0200
     67  CD1        9.4280   88.3250   32.7170 C.ar  309  PHE309     -0.0042
     68  CD2        7.7770   89.1460   34.2420 C.ar  309  PHE309     -0.0042
     69  CE1        9.6200   87.2000   33.5070 C.ar  309  PHE309     -0.0003
     70  CE2        7.9650   88.0330   35.0540 C.ar  309  PHE309     -0.0003
     71  CZ         8.8850   87.0550   34.6860 C.ar  309  PHE309     -0.0000
     72  N          7.5480   87.9660   30.0260 N.am  310  TRP310     -0.1974
     73  CA         8.0050   86.9500   29.0740 C.3   310  TRP310      0.1640
     74  C          7.4210   87.1660   27.6760 C.2   310  TRP310      0.2290
     75  O          7.8400   86.5090   26.7390 O.2   310  TRP310     -0.2864
     76  CB         7.6860   85.5080   29.5850 C.3   310  TRP310      0.0576
     77  CG         6.2260   85.2830   29.8470 C.ar  310  TRP310      0.0006
     78  CD1        5.2970   84.7950   28.9690 C.ar  310  TRP310      0.0946
     79  CD2        5.5000   85.5920   31.0550 C.ar  310  TRP310      0.0152
     80  NE1        4.0530   84.7450   29.5740 N.ar  310  TRP310     -0.2442
     81  CE2        4.1500   85.2590   30.8310 C.ar  310  TRP310      0.0810
     82  CE3        5.8760   86.0800   32.3150 C.ar  310  TRP310      0.0012
     83  CZ2        3.1770   85.4070   31.8090 C.ar  310  TRP310      0.0191
     84  CZ3        4.9140   86.2310   33.2720 C.ar  310  TRP310      0.0001
     85  CH2        3.5660   85.9040   33.0120 C.ar  310  TRP310      0.0015
     86  N         11.8800   89.8980   35.9390 N.3   321  PRO321     -0.2102
     87  CA        11.0410   89.1920   36.9050 C.3   321  PRO321      0.1504
     88  C         11.0240   89.9200   38.2410 C.2   321  PRO321      0.2576
     89  O         12.0610   90.3820   38.6730 O.2   321  PRO321     -0.2718
     90  CB        11.7090   87.8210   37.0430 C.3   321  PRO321      0.0282
     91  CG        12.4490   87.6500   35.7640 C.3   321  PRO321      0.0208
     92  CD        12.8450   88.9950   35.2880 C.3   321  PRO321      0.0893
     93  N          9.8480   90.0650   38.8460 N.am  322  GLY322     -0.1957
     94  CA         9.7320   90.6900   40.1800 C.3   322  GLY322      0.1869
     95  C          9.7680   92.2200   40.2260 C.2   322  GLY322      0.2309
     96  O          9.7000   92.7860   41.2910 O.2   322  GLY322     -0.2863
     97  N         -5.3590   89.9920   42.6270 N.3   355  PHE355     -0.1241
     98  CA        -6.3600   88.9660   42.9600 C.3   355  PHE355      0.1605
     99  C         -7.4090   89.4460   43.9650 C.2   355  PHE355      0.2264
    100  O         -7.6280   88.8090   45.0070 O.2   355  PHE355     -0.2867
    101  CB        -5.6580   87.6770   43.4250 C.3   355  PHE355      0.0534
    102  CG        -4.5070   87.2930   42.5650 C.ar  355  PHE355     -0.0203
    103  CD1       -3.2280   87.3150   43.0680 C.ar  355  PHE355     -0.0042
    104  CD2       -4.7010   86.9820   41.2240 C.ar  355  PHE355     -0.0042
    105  CE1       -2.1560   87.0010   42.2850 C.ar  355  PHE355     -0.0003
    106  CE2       -3.6260   86.6750   40.4200 C.ar  355  PHE355     -0.0003
    107  CZ        -2.3580   86.6830   40.9610 C.ar  355  PHE355     -0.0000
    108  N         13.2860   81.3230   47.7030 N.3   388  MET388     -0.1245
    109  CA        13.5610   81.3680   46.2510 C.3   388  MET388      0.1570
    110  C         14.2420   80.1210   45.6500 C.2   388  MET388      0.2261
    111  O         13.8080   79.6550   44.6240 O.2   388  MET388     -0.2867
    112  CB        14.3170   82.6580   45.8540 C.3   388  MET388      0.0387
    113  CG        13.5810   83.9520   46.1330 C.3   388  MET388      0.0595
    114  SD        11.8580   83.9820   45.5710 S.3   388  MET388     -0.1393
    115  CE        12.0790   84.1540   43.7920 C.3   388  MET388      0.0692
    116  N         10.9310   77.6010   42.3360 N.3   392  GLY392     -0.1210
    117  CA        10.7810   77.5200   40.8860 C.3   392  GLY392      0.1956
    118  C         10.3330   78.8630   40.3480 C.2   392  GLY392      0.2612
    119  O         10.3790   79.8430   41.0500 O.2   392  GLY392     -0.2717
    120  N          9.8980   78.9030   39.1040 N.am  393  GLY393     -0.1942
    121  CA         9.5260   80.1650   38.4730 C.3   393  GLY393      0.2014
    122  C          8.2350   80.0880   37.7110 C.2   393  GLY393      0.2639
    123  O          7.6310   79.0170   37.5870 O.2   393  GLY393     -0.2714
    124  N          7.8010   81.2480   37.2470 N.am  394  GLY394     -0.1939
    125  CA         6.7010   81.3370   36.2690 C.3   394  GLY394      0.2014
    126  C          5.3330   81.7220   36.8060 C.2   394  GLY394      0.2639
    127  O          4.4410   81.9280   36.0250 O.2   394  GLY394     -0.2714
    128  N          5.2250   81.8460   38.1350 N.am  395  ALA395     -0.1963
    129  CA         3.9950   82.2660   38.8100 C.3   395  ALA395      0.1713
    130  C          4.2240   83.4880   39.7210 C.2   395  ALA395      0.2458
    131  O          5.3070   83.6900   40.2400 O.2   395  ALA395     -0.2730
    132  CB         3.4120   81.0970   39.6020 C.3   395  ALA395      0.0333
    133  N          3.1730   84.2770   39.9670 N.am  396  PRO396     -0.2716
    134  CA         3.2760   85.4550   40.8240 C.3   396  PRO396      0.1536
    135  C          3.3770   85.0590   42.2840 C.2   396  PRO396      0.2598
    136  O          2.9370   83.9940   42.6360 O.2   396  PRO396     -0.2715
    137  CB         1.9800   86.1920   40.5760 C.3   396  PRO396      0.0310
    138  CG         1.0310   85.1270   40.2410 C.3   396  PRO396      0.0237
    139  CD         1.8050   84.1000   39.4860 C.3   396  PRO396      0.0939
    140  N          4.0160   85.8950   43.0960 N.am  397  MET397     -0.1978
    141  CA         4.1650   85.6690   44.5080 C.3   397  MET397      0.1605
    142  C          3.3080   86.6310   45.3470 C.2   397  MET397      0.2287
    143  O          3.1780   87.8610   45.0370 O.2   397  MET397     -0.2864
    144  CB         5.6190   85.8160   44.9070 C.3   397  MET397      0.0413
    145  CG         6.4870   84.7350   44.2760 C.3   397  MET397      0.0598
    146  SD         8.0980   84.6200   45.0790 S.3   397  MET397     -0.1393
    147  CE         8.4740   82.9690   44.4430 C.3   397  MET397      0.0692
@<TRIPOS>BOND
     1    75    74    2
     2    74    73    1
     3    78    80   ar
     4    78    77   ar
     5    73    76    1
     6    73    72    1
     7    64    63    2
     8    53    52    2
     9    80    81   ar
    10    76    77    1
    11    77    79   ar
    12    63    72   am
    13    63    62    1
    14    35    34    2
    15    34    33    1
    16    54    55    1
    17    54    51    1
    18    57    59   ar
    19    57    55   ar
    20    52    61   am
    21    52    51    1
    22    81    79   ar
    23    81    83   ar
    24    36    33    1
    25    36    37    1
    26    62    61    1
    27    62    65    1
    28    79    82   ar
    29    39    37   ar
    30    39    41   ar
    31    59    60   ar
    32    55    56   ar
    33    51    50    1
    34    33    32    1
    35    83    85   ar
    36    37    38   ar
    37    41    42   ar
    38    65    66    1
    39    32    20   am
    40    50    45   am
    41    82    84   ar
    42    18    19    1
    43    67    66   ar
    44    67    69   ar
    45    17    15   am
    46    60    58   ar
    47    56    58   ar
    48    20    21    2
    49    20    19    1
    50    85    84   ar
    51    66    68   ar
    52    43    44    1
    53    38    40   ar
    54    42    40   ar
    55    19    22    1
    56    69    71   ar
    57    45    44    1
    58    45    46    2
    59    15    14    1
    60    15    16    2
    61    14    11    1
    62    44    47    1
    63    68    70   ar
    64    71    70   ar
    65    22    23    1
    66    47    49    1
    67    47    48    1
    68     1     2    1
    69    92    91    1
    70    92    86    1
    71    10    11    1
    72    10     3   am
    73    11    12    1
    74    91    90    1
    75    23    24   ar
    76    23    25   ar
    77    86    87    1
    78    12    13    2
    79   127   126    2
    80     5     2    1
    81     5     6    1
    82     2     3    1
    83   125   126    1
    84   125   124    1
    85     3     4    2
    86    24    26   ar
    87    28    25   ar
    88    28    30   ar
    89    25    27   ar
    90   126   128   am
    91     6     7    1
    92    87    90    1
    93    87    88    1
    94   124   122   am
    95    30    31   ar
    96   123   122    2
    97    26    27   ar
    98    27    29   ar
    99   122   121    1
   100   128   129    1
   101    88    89    2
   102    88    93   am
   103     7     8   ar
   104     7     9   ar
   105   121   120    1
   106    31    29   ar
   107   129   132    1
   108   129   130    1
   109    93    94    1
   110   120   118   am
   111   139   133    1
   112   139   138    1
   113   130   133   am
   114   130   131    2
   115   133   134    1
   116    94    95    1
   117    95    96    2
   118   138   137    1
   119   118   117    1
   120   118   119    2
   121   106   107   ar
   122   106   104   ar
   123   137   134    1
   124   134   135    1
   125   117   116    1
   126   107   105   ar
   127   104   102   ar
   128   135   136    2
   129   135   140   am
   130   105   103   ar
   131   102   103   ar
   132   102   101    1
   133    97    98    1
   134    98   101    1
   135    98    99    1
   136   140   141    1
   137   115   114    1
   138    99   100    2
   139   145   144    1
   140   145   146    1
   141   147   146    1
   142   141   144    1
   143   141   142    1
   144   111   110    2
   145   143   142    2
   146   114   113    1
   147   110   109    1
   148   112   113    1
   149   112   109    1
   150   109   108    1
