@<TRIPOS>MOLECULE
tmp/5u99A00.pdb
 126 118 0 0 0
SMALL
GASTEIGER

@<TRIPOS>ATOM
      1  N        -19.4650   -5.4820  -49.6630 N.3    11  LYS11      -0.1231
      2  CA       -18.7480   -4.6250  -50.5950 C.3    11  LYS11       0.1693
      3  C        -18.9530   -3.1750  -50.1280 C.2    11  LYS11       0.2593
      4  O        -19.8410   -2.8960  -49.3050 O.2    11  LYS11      -0.2718
      5  CB       -19.4080   -4.8540  -51.9620 C.3    11  LYS11       0.0285
      6  CG       -18.7600   -4.2660  -53.1740 C.3    11  LYS11       0.0035
      7  CD       -19.5790   -4.5640  -54.4170 C.3    11  LYS11       0.0206
      8  CE       -20.9170   -3.8490  -54.4290 C.3    11  LYS11       0.1093
      9  NZ       -21.5240   -3.7980  -55.7870 N.3    11  LYS11      -0.1314
     10  N        -18.1590   -2.2530  -50.6590 N.am   12  GLY12      -0.1942
     11  CA       -18.3580   -0.8270  -50.4010 C.3    12  GLY12       0.2014
     12  C        -17.7470   -0.3880  -49.0910 C.2    12  GLY12       0.2639
     13  O        -17.0650   -1.1590  -48.4190 O.2    12  GLY12      -0.2714
     14  N        -18.0380    0.8510  -48.7090 N.am   13  ALA13      -0.1963
     15  CA       -17.3390    1.5290  -47.6210 C.3    13  ALA13       0.1728
     16  C        -17.6660    1.0300  -46.2060 C.2    13  ALA13       0.2616
     17  O        -16.9480    1.3670  -45.2730 O.2    13  ALA13      -0.2715
     18  CB       -17.5740    3.0400  -47.7070 C.3    13  ALA13       0.0334
     19  N        -18.7270    0.2450  -46.0400 N.am   14  LEU14      -0.1977
     20  CA       -19.0390   -0.3390  -44.7360 C.3    14  LEU14       0.1596
     21  C        -18.5090   -1.7660  -44.5820 C.2    14  LEU14       0.2287
     22  O        -18.6710   -2.3590  -43.5250 O.2    14  LEU14      -0.2864
     23  CB       -20.5540   -0.2950  -44.4680 C.3    14  LEU14       0.0297
     24  CG       -21.1120    0.9380  -43.7660 C.3    14  LEU14       0.0022
     25  CD1      -20.4850    2.2250  -44.2710 C.3    14  LEU14       0.0001
     26  CD2      -22.6310    0.9820  -43.8710 C.3    14  LEU14       0.0001
     27  N        -25.8710   -6.9070  -49.4590 N.3    51  ARG51      -0.1231
     28  CA       -25.9870   -5.5000  -49.7570 C.3    51  ARG51       0.1679
     29  C        -26.6100   -4.8610  -48.5300 C.2    51  ARG51       0.2434
     30  O        -27.5340   -5.3930  -47.9470 O.2    51  ARG51      -0.2733
     31  CB       -26.8470   -5.2880  -50.9900 C.3    51  ARG51       0.0321
     32  CG       -26.2670   -5.9140  -52.2390 C.3    51  ARG51       0.0489
     33  CD       -25.3670   -4.9560  -52.9900 C.3    51  ARG51       0.2205
     34  NE       -24.3030   -4.4320  -52.1570 N.pl3  51  ARG51      -0.0865
     35  CZ       -23.7390   -3.2560  -52.3420 C.cat  51  ARG51       0.5346
     36  NH1      -24.1430   -2.4830  -53.3200 N.pl3  51  ARG51       0.1354
     37  NH2      -22.7810   -2.8540  -51.5400 N.pl3  51  ARG51       0.1354
     38  N        -26.1740   -3.6620  -48.2030 N.am   52  PRO52      -0.2718
     39  CA       -26.6180   -3.0000  -46.9850 C.3    52  PRO52       0.1535
     40  C        -28.1150   -2.7940  -46.8690 C.2    52  PRO52       0.2598
     41  O        -28.6320   -2.9270  -45.7860 O.2    52  PRO52      -0.2715
     42  CB       -25.9190   -1.6530  -47.0740 C.3    52  PRO52       0.0310
     43  CG       -24.6870   -1.9190  -47.8550 C.3    52  PRO52       0.0237
     44  CD       -24.8400   -3.2100  -48.5970 C.3    52  PRO52       0.0939
     45  N        -28.7970   -2.4570  -47.9430 N.am   53  LYS53      -0.1978
     46  CA       -30.2660   -2.2450  -47.8590 C.3    53  LYS53       0.1596
     47  C        -30.9980   -3.5260  -47.4420 C.2    53  LYS53       0.2287
     48  O        -31.8960   -3.4890  -46.6130 O.2    53  LYS53      -0.2864
     49  CB       -30.8460   -1.7360  -49.1850 C.3    53  LYS53       0.0298
     50  CG       -30.4810   -0.2910  -49.4760 C.3    53  LYS53       0.0038
     51  CD       -31.2210    0.2870  -50.6840 C.3    53  LYS53       0.0206
     52  CE       -30.8460   -0.4460  -51.9640 C.3    53  LYS53       0.1093
     53  NZ       -30.9840    0.4160  -53.1640 N.3    53  LYS53      -0.1314
     54  N        -25.8370    0.8540  -42.1800 N.3    70  GLY70      -0.1225
     55  CA       -25.8040    2.2860  -41.8930 C.3    70  GLY70       0.1811
     56  C        -27.0840    2.7020  -41.1950 C.2    70  GLY70       0.2280
     57  O        -28.1510    2.1650  -41.5150 O.2    70  GLY70      -0.2866
     58  N        -28.6740    5.5580  -41.3610 N.3    72  ASP72      -0.1225
     59  CA       -29.5510    6.1990  -42.3230 C.3    72  ASP72       0.1805
     60  C        -30.3540    5.1800  -43.1210 C.2    72  ASP72       0.2597
     61  O        -31.5470    5.3730  -43.3450 O.2    72  ASP72      -0.2718
     62  CB       -28.7960    7.1830  -43.2210 C.3    72  ASP72       0.1424
     63  CG       -27.5700    6.5700  -43.9090 C.2    72  ASP72       0.3668
     64  OD1      -27.2300    5.3830  -43.6320 O.co2  72  ASP72      -0.2456
     65  OD2      -26.9590    7.3030  -44.7240 O.co2  72  ASP72      -0.2456
     66  N        -29.7260    4.0720  -43.4950 N.am   73  LEU73      -0.1979
     67  CA       -30.4500    3.0080  -44.1830 C.3    73  LEU73       0.1596
     68  C        -31.5480    2.4070  -43.3370 C.2    73  LEU73       0.2287
     69  O        -32.6210    2.1100  -43.8480 O.2    73  LEU73      -0.2864
     70  CB       -29.5000    1.9070  -44.6550 C.3    73  LEU73       0.0297
     71  CG       -28.5370    2.3490  -45.7520 C.3    73  LEU73       0.0022
     72  CD1      -27.4830    1.2720  -45.9390 C.3    73  LEU73       0.0001
     73  CD2      -29.2910    2.6330  -47.0550 C.3    73  LEU73       0.0001
     74  N        -18.0560    4.9420  -40.8250 N.3    90  GLY90      -0.1210
     75  CA       -19.0560    5.1200  -41.8650 C.3    90  GLY90       0.1956
     76  C        -19.9440    6.3140  -41.5970 C.2    90  GLY90       0.2613
     77  O        -21.0490    6.4250  -42.1570 O.2    90  GLY90      -0.2717
     78  N        -19.4480    7.2180  -40.7550 N.am   91  SER91      -0.1938
     79  CA       -20.2580    8.2990  -40.2700 C.3    91  SER91       0.2055
     80  C        -20.5390    9.2830  -41.3890 C.2    91  SER91       0.2643
     81  O        -19.7230    9.4760  -42.2870 O.2    91  SER91      -0.2714
     82  CB       -19.5980    9.0270  -39.1010 C.3    91  SER91       0.2130
     83  OG       -18.7540   10.0300  -39.6060 O.3    91  SER91      -0.2179
     84  N        -21.7060    9.8940  -41.3220 N.am   92  SER92      -0.1949
     85  CA       -22.1270   10.8530  -42.3230 C.3    92  SER92       0.1924
     86  C        -23.2750   11.6760  -41.7750 C.2    92  SER92       0.2314
     87  O        -23.8170   11.3920  -40.7110 O.2    92  SER92      -0.2863
     88  CB       -22.5630   10.1400  -43.6090 C.3    92  SER92       0.2116
     89  OG       -23.6620    9.2720  -43.3910 O.3    92  SER92      -0.2180
     90  N        -33.3270    8.2590  -50.3140 N.3   118  TYR118     -0.1241
     91  CA       -33.8970    7.8350  -49.0490 C.3   118  TYR118      0.1605
     92  C        -35.3180    8.4310  -48.9160 C.2   118  TYR118      0.2264
     93  O        -35.5570    9.2960  -48.0590 O.2   118  TYR118     -0.2867
     94  CB       -32.9840    8.3190  -47.9150 C.3   118  TYR118      0.0534
     95  CG       -31.5990    7.7110  -47.9020 C.ar  118  TYR118     -0.0201
     96  CD1      -30.6300    8.0700  -48.8440 C.ar  118  TYR118     -0.0009
     97  CD2      -31.2460    6.7830  -46.9400 C.ar  118  TYR118     -0.0009
     98  CE1      -29.3620    7.4980  -48.8290 C.ar  118  TYR118      0.0417
     99  CE2      -29.9830    6.2140  -46.9150 C.ar  118  TYR118      0.0417
    100  CZ       -29.0520    6.5680  -47.8540 C.ar  118  TYR118      0.1957
    101  OH       -27.8200    5.9830  -47.7950 O.3   118  TYR118     -0.2866
    102  N        -31.3420    6.4510  -57.3780 N.3   139  ASP139     -0.1239
    103  CA       -30.5700    5.3380  -56.8450 C.3   139  ASP139      0.1674
    104  C        -29.2510    5.8460  -56.2130 C.2   139  ASP139      0.2266
    105  O        -28.6270    5.1400  -55.4130 O.2   139  ASP139     -0.2867
    106  CB       -30.3160    4.3250  -57.9580 C.3   139  ASP139      0.1410
    107  CG       -29.5850    3.0940  -57.4690 C.2   139  ASP139      0.3668
    108  OD1      -30.1140    2.4330  -56.5650 O.co2 139  ASP139     -0.2456
    109  OD2      -28.4870    2.7980  -57.9750 O.co2 139  ASP139     -0.2456
    110  N        -26.8320   12.2280  -48.3760 N.3   157  VAL157     -0.1245
    111  CA       -25.7260   11.8680  -47.5270 C.3   157  VAL157      0.1561
    112  C        -24.6120   12.8720  -47.8060 C.2   157  VAL157      0.2260
    113  O        -24.2970   13.1340  -48.9440 O.2   157  VAL157     -0.2867
    114  CB       -25.2970   10.4040  -47.8450 C.3   157  VAL157      0.0252
    115  CG1      -24.0180   10.0190  -47.1320 C.3   157  VAL157      0.0019
    116  CG2      -26.4220    9.4360  -47.4910 C.3   157  VAL157      0.0019
    117  N        -20.6060   13.8930  -46.4880 N.3   159  GLY159     -0.1225
    118  CA       -19.4030   13.5530  -45.7280 C.3   159  GLY159      0.1811
    119  C        -18.6240   14.8300  -45.4910 C.2   159  GLY159      0.2280
    120  O        -18.9320   15.5780  -44.5800 O.2   159  GLY159     -0.2866
    121  N        -25.5540    9.7360  -39.2700 N.3   179  SER179     -0.1217
    122  CA       -25.4190    8.3260  -39.5060 C.3   179  SER179      0.1889
    123  C        -24.0310    7.8280  -39.1360 C.2   179  SER179      0.2288
    124  O        -23.0540    8.5570  -39.2280 O.2   179  SER179     -0.2866
    125  CB       -25.7340    8.0040  -40.9600 C.3   179  SER179      0.2089
    126  OG       -25.9040    6.6110  -41.1100 O.3   179  SER179     -0.2183
@<TRIPOS>BOND
     1   109   107   ar
     2   106   107    1
     3   106   103    1
     4   107   108   ar
     5   102   103    1
     6   103   104    1
     7   104   105    2
     8     9     8    1
     9     8     7    1
    10     7     6    1
    11    36    35    1
    12     6     5    1
    13    53    52    1
    14    33    32    1
    15    33    34    1
    16    35    34    2
    17    35    37    1
    18    32    31    1
    19    52    51    1
    20     5     2    1
    21    31    28    1
    22    51    50    1
    23    10    11    1
    24    10     3   am
    25     2     3    1
    26     2     1    1
    27    11    12    1
    28    90    91    1
    29     3     4    2
    30    28    27    1
    31    28    29    1
    32    50    49    1
    33    49    46    1
    34    12    14   am
    35    12    13    2
    36    91    92    1
    37    91    94    1
    38   113   112    2
    39    92    93    2
    40    96    98   ar
    41    96    95   ar
    42    98   100   ar
    43    14    15    1
    44    44    38    1
    45    44    43    1
    46    29    38   am
    47    29    30    2
    48   110   111    1
    49    38    39    1
    50    45    46    1
    51    45    40   am
    52    94    95    1
    53    95    97   ar
    54    46    47    1
    55    43    42    1
    56   100   101    1
    57   100    99   ar
    58   114   111    1
    59   114   116    1
    60   114   115    1
    61   112   111    1
    62    18    15    1
    63    15    16    1
    64    47    48    2
    65    42    39    1
    66    73    71    1
    67    39    40    1
    68    97    99   ar
    69    40    41    2
    70   117   118    1
    71    16    19   am
    72    16    17    2
    73    19    20    1
    74    72    71    1
    75    71    70    1
    76   118   119    1
    77   119   120    2
    78    20    21    1
    79    20    23    1
    80    65    63   ar
    81    70    67    1
    82    21    22    2
    83    23    24    1
    84    25    24    1
    85    67    66    1
    86    67    68    1
    87    63    64   ar
    88    63    62    1
    89    26    24    1
    90    69    68    2
    91    88    89    1
    92    88    85    1
    93    66    60   am
    94    61    60    2
    95    62    59    1
    96    60    59    1
    97    59    58    1
    98    85    86    1
    99    85    84    1
   100    81    80    2
   101    54    55    1
   102    77    76    2
   103    55    56    1
   104    75    76    1
   105    75    74    1
   106    86    87    2
   107    76    78   am
   108    57    56    2
   109    80    84   am
   110    80    79    1
   111   126   125    1
   112   125   122    1
   113    78    79    1
   114    79    82    1
   115    83    82    1
   116   122   121    1
   117   122   123    1
   118   124   123    2
