@<TRIPOS>MOLECULE
tmp/5u9cC01.pdb
 100 96 0 0 0
SMALL
GASTEIGER

@<TRIPOS>ATOM
      1  N         76.4090   46.5070   34.6610 N.3   105  PHE105     -0.1241
      2  CA        75.2920   46.5550   35.6090 C.3   105  PHE105      0.1605
      3  C         75.7970   46.1820   37.0190 C.2   105  PHE105      0.2264
      4  O         76.9140   45.6190   37.1990 O.2   105  PHE105     -0.2867
      5  CB        74.1860   45.5390   35.2410 C.3   105  PHE105      0.0534
      6  CG        73.5570   45.7670   33.9020 C.ar  105  PHE105     -0.0203
      7  CD1       72.6380   46.7910   33.7280 C.ar  105  PHE105     -0.0042
      8  CD2       73.8540   44.9490   32.8290 C.ar  105  PHE105     -0.0042
      9  CE1       72.0580   47.0220   32.4940 C.ar  105  PHE105     -0.0003
     10  CE2       73.2740   45.1690   31.5890 C.ar  105  PHE105     -0.0003
     11  CZ        72.3590   46.1960   31.4250 C.ar  105  PHE105     -0.0000
     12  N         68.2850   43.7530   28.2380 N.3   115  GLU115     -0.1231
     13  CA        68.7550   44.8140   27.3500 C.3   115  GLU115      0.1699
     14  C         68.0540   46.1590   27.5340 C.2   115  GLU115      0.2592
     15  O         68.5700   47.1620   27.0890 O.2   115  GLU115     -0.2718
     16  CB        68.7090   44.3800   25.8840 C.3   115  GLU115      0.0402
     17  CG        69.6340   43.2080   25.5140 C.3   115  GLU115      0.1161
     18  CD        69.0180   41.8120   25.6820 C.2   115  GLU115      0.3649
     19  OE1       67.9940   41.6800   26.3840 O.co2 115  GLU115     -0.2457
     20  OE2       69.5650   40.8330   25.0940 O.co2 115  GLU115     -0.2457
     21  N         66.8770   46.1850   28.1640 N.am  116  LEU116     -0.1966
     22  CA        66.1920   47.4730   28.4380 C.3   116  LEU116      0.1728
     23  C         66.6940   48.1590   29.7090 C.2   116  LEU116      0.2616
     24  O         66.4540   49.3540   29.9150 O.2   116  LEU116     -0.2715
     25  CB        64.6620   47.3110   28.5280 C.3   116  LEU116      0.0311
     26  CG        63.9260   47.1010   27.2200 C.3   116  LEU116      0.0022
     27  CD1       62.4450   46.9090   27.4730 C.3   116  LEU116      0.0001
     28  CD2       64.1670   48.2730   26.2730 C.3   116  LEU116      0.0001
     29  N         67.3880   47.4210   30.5680 N.am  117  ASP117     -0.1957
     30  CA        67.9140   48.0370   31.7840 C.3   117  ASP117      0.1840
     31  C         69.0240   49.0020   31.4110 C.2   117  ASP117      0.2622
     32  O         69.8010   48.7440   30.4970 O.2   117  ASP117     -0.2715
     33  CB        68.3540   46.9800   32.7870 C.3   117  ASP117      0.1450
     34  CG        67.1780   46.3360   33.4690 C.2   117  ASP117      0.3671
     35  OD1       66.5520   47.0180   34.2910 O.co2 117  ASP117     -0.2456
     36  OD2       66.8660   45.1570   33.1930 O.co2 117  ASP117     -0.2456
     37  N         69.0690   50.1350   32.0990 N.am  118  ILE118     -0.1964
     38  CA        70.0640   51.1620   31.8270 C.3   118  ILE118      0.1712
     39  C         71.3380   50.8560   32.6320 C.2   118  ILE118      0.2458
     40  O         71.2830   50.7620   33.8510 O.2   118  ILE118     -0.2730
     41  CB        69.5230   52.5620   32.2010 C.3   118  ILE118      0.0289
     42  CG1       68.1850   52.8490   31.4840 C.3   118  ILE118      0.0022
     43  CG2       70.5530   53.6450   31.8880 C.3   118  ILE118      0.0023
     44  CD1       68.2450   52.8820   29.9680 C.3   118  ILE118      0.0001
     45  N         72.4820   50.6870   31.9570 N.am  119  PRO119     -0.2727
     46  CA        73.7440   50.3890   32.6690 C.3   119  PRO119      0.1402
     47  C         74.1020   51.3860   33.7950 C.2   119  PRO119      0.2269
     48  O         73.9300   52.5880   33.6350 O.2   119  PRO119     -0.2865
     49  CB        74.7740   50.4310   31.5510 C.3   119  PRO119      0.0296
     50  CG        74.0290   49.9490   30.3710 C.3   119  PRO119      0.0237
     51  CD        72.6660   50.5700   30.4940 C.3   119  PRO119      0.0939
     52  N         81.6110   50.1230   29.7900 N.3   129  LEU129     -0.1245
     53  CA        80.4450   50.9160   29.4270 C.3   129  LEU129      0.1561
     54  C         80.8240   52.0990   28.5560 C.2   129  LEU129      0.2260
     55  O         80.1750   52.3440   27.5460 O.2   129  LEU129     -0.2867
     56  CB        79.7130   51.4280   30.6680 C.3   129  LEU129      0.0270
     57  CG        78.4360   52.2560   30.3990 C.3   129  LEU129      0.0019
     58  CD1       77.4290   51.4690   29.5550 C.3   129  LEU129      0.0001
     59  CD2       77.8080   52.6730   31.7090 C.3   129  LEU129      0.0001
     60  N         78.9080   53.1150   20.0050 N.3   136  ARG136     -0.1245
     61  CA        77.6020   53.6470   19.5720 C.3   136  ARG136      0.1563
     62  C         77.6690   55.0750   19.0060 C.2   136  ARG136      0.2260
     63  O         76.9110   55.3970   18.0950 O.2   136  ARG136     -0.2867
     64  CB        76.5490   53.5810   20.6920 C.3   136  ARG136      0.0307
     65  CG        76.1710   52.1640   21.0990 C.3   136  ARG136      0.0489
     66  CD        74.8890   52.1230   21.9340 C.3   136  ARG136      0.2205
     67  NE        74.6440   50.7910   22.4770 N.pl3 136  ARG136     -0.0865
     68  CZ        75.1160   50.3870   23.6460 C.cat 136  ARG136      0.5346
     69  NH1       74.8710   49.1610   24.0860 N.pl3 136  ARG136      0.1354
     70  NH2       75.8460   51.2210   24.3830 N.pl3 136  ARG136      0.1354
     71  N         77.0790   41.3940   25.4530 N.3   147  ARG147     -0.1245
     72  CA        77.4570   41.3820   26.8630 C.3   147  ARG147      0.1563
     73  C         77.4330   39.9230   27.3550 C.2   147  ARG147      0.2260
     74  O         76.3980   39.2390   27.2880 O.2   147  ARG147     -0.2867
     75  CB        76.5310   42.2660   27.7100 C.3   147  ARG147      0.0307
     76  CG        76.4490   43.7180   27.2440 C.3   147  ARG147      0.0489
     77  CD        75.7070   44.5630   28.2640 C.3   147  ARG147      0.2205
     78  NE        75.6200   45.9770   27.8990 N.pl3 147  ARG147     -0.0865
     79  CZ        74.4960   46.6850   27.7370 C.cat 147  ARG147      0.5346
     80  NH1       73.2860   46.1660   27.9560 N.pl3 147  ARG147      0.1354
     81  NH2       74.5920   47.9720   27.4400 N.pl3 147  ARG147      0.1354
     82  N         72.4830   45.6020   20.4590 N.3   206  THR206     -0.1218
     83  CA        73.0670   45.1940   21.7450 C.3   206  THR206      0.1862
     84  C         72.3280   43.9620   22.2080 C.2   206  THR206      0.2287
     85  O         71.0870   43.9140   22.1820 O.2   206  THR206     -0.2866
     86  CB        73.0100   46.3030   22.7950 C.3   206  THR206      0.1770
     87  OG1       73.8320   47.3980   22.3700 O.3   206  THR206     -0.2211
     88  CG2       73.5230   45.8030   24.1890 C.3   206  THR206      0.0375
     89  N         65.8330   39.7350   23.6950 N.3   258  TYR258     -0.1241
     90  CA        65.9410   39.7890   22.2310 C.3   258  TYR258      0.1605
     91  C         66.5130   38.5360   21.5370 C.2   258  TYR258      0.2264
     92  O         66.3300   38.3710   20.3340 O.2   258  TYR258     -0.2867
     93  CB        66.7460   41.0180   21.8050 C.3   258  TYR258      0.0534
     94  CG        66.1600   42.3480   22.2210 C.ar  258  TYR258     -0.0201
     95  CD1       64.7990   42.6070   22.0600 C.ar  258  TYR258     -0.0009
     96  CD2       66.9830   43.3940   22.6630 C.ar  258  TYR258     -0.0009
     97  CE1       64.2600   43.8300   22.3980 C.ar  258  TYR258      0.0417
     98  CE2       66.4510   44.6370   22.9870 C.ar  258  TYR258      0.0417
     99  CZ        65.0820   44.8440   22.8610 C.ar  258  TYR258      0.1957
    100  OH        64.5140   46.0600   23.1550 O.3   258  TYR258     -0.2866
@<TRIPOS>BOND
     1    63    62    2
     2    62    61    1
     3    61    60    1
     4    61    64    1
     5    92    91    2
     6    82    83    1
     7    64    65    1
     8    65    66    1
     9    91    90    1
    10    83    84    1
    11    83    86    1
    12    93    94    1
    13    93    90    1
    14    66    67    1
    15    95    94   ar
    16    95    97   ar
    17    85    84    2
    18    94    96   ar
    19    90    89    1
    20    87    86    1
    21    97    99   ar
    22    67    68    2
    23    96    98   ar
    24    86    88    1
    25    99    98   ar
    26    99   100    1
    27    68    69    1
    28    68    70    1
    29    20    18   ar
    30    71    72    1
    31    17    18    1
    32    17    16    1
    33    18    19   ar
    34    16    13    1
    35    28    26    1
    36    72    73    1
    37    72    75    1
    38    15    14    2
    39    26    27    1
    40    26    25    1
    41    76    75    1
    42    76    77    1
    43    74    73    2
    44    13    14    1
    45    13    12    1
    46    81    79    1
    47    14    21   am
    48    55    54    2
    49    79    78    2
    50    79    80    1
    51    78    77    1
    52    21    22    1
    53    22    25    1
    54    22    23    1
    55    54    53    1
    56    53    52    1
    57    53    56    1
    58    58    57    1
    59    23    24    2
    60    23    29   am
    61    44    42    1
    62    50    51    1
    63    50    49    1
    64    57    56    1
    65    57    59    1
    66    51    45    1
    67    32    31    2
    68    29    30    1
    69    31    30    1
    70    31    37   am
    71    11    10   ar
    72    11     9   ar
    73    42    41    1
    74    49    46    1
    75    10     8   ar
    76    30    33    1
    77    38    37    1
    78    38    41    1
    79    38    39    1
    80    43    41    1
    81    45    39   am
    82    45    46    1
    83     9     7   ar
    84    39    40    2
    85    46    47    1
    86    33    34    1
    87     8     6   ar
    88    36    34   ar
    89    34    35   ar
    90    48    47    2
    91     7     6   ar
    92     6     5    1
    93     1     2    1
    94     5     2    1
    95     2     3    1
    96     3     4    2
