@<TRIPOS>MOLECULE
tmp/5u9cC00.pdb
 88 84 0 0 0
SMALL
GASTEIGER

@<TRIPOS>ATOM
      1  N         87.5770   30.0370   37.4750 N.3   161  PHE161     -0.1241
      2  CA        86.7660   29.3700   38.5000 C.3   161  PHE161      0.1605
      3  C         86.4410   27.8860   38.2930 C.2   161  PHE161      0.2264
      4  O         86.6400   27.0890   39.2070 O.2   161  PHE161     -0.2867
      5  CB        85.4600   30.1300   38.7370 C.3   161  PHE161      0.0534
      6  CG        84.6560   29.5730   39.8710 C.ar  161  PHE161     -0.0203
      7  CD1       84.9900   29.8890   41.1860 C.ar  161  PHE161     -0.0042
      8  CD2       83.5750   28.7230   39.6380 C.ar  161  PHE161     -0.0042
      9  CE1       84.2680   29.3670   42.2480 C.ar  161  PHE161     -0.0003
     10  CE2       82.8480   28.2000   40.7010 C.ar  161  PHE161     -0.0003
     11  CZ        83.1980   28.5140   42.0050 C.ar  161  PHE161     -0.0000
     12  N         89.6670   25.6380   38.3710 N.3   164  LYS164     -0.1231
     13  CA        90.1870   25.5220   39.7410 C.3   164  LYS164      0.1693
     14  C         89.3040   24.6070   40.5830 C.2   164  LYS164      0.2591
     15  O         89.8270   23.8460   41.3910 O.2   164  LYS164     -0.2718
     16  CB        90.3180   26.8810   40.4350 C.3   164  LYS164      0.0285
     17  CG        91.3640   27.8400   39.8760 C.3   164  LYS164      0.0035
     18  CD        91.3370   29.1780   40.6290 C.3   164  LYS164      0.0206
     19  CE        90.0150   29.9380   40.4090 C.3   164  LYS164      0.1093
     20  NZ        89.8340   31.1830   41.2130 N.3   164  LYS164     -0.1314
     21  N         87.9790   24.6760   40.4120 N.am  165  ILE165     -0.1980
     22  CA        87.0980   23.7880   41.1780 C.3   165  ILE165      0.1595
     23  C         87.3840   22.3320   40.8090 C.2   165  ILE165      0.2287
     24  O         87.5260   21.4890   41.6980 O.2   165  ILE165     -0.2864
     25  CB        85.5960   24.0950   40.9860 C.3   165  ILE165      0.0276
     26  CG1       85.2080   25.4240   41.6670 C.3   165  ILE165      0.0022
     27  CG2       84.7320   22.9730   41.5730 C.3   165  ILE165      0.0022
     28  CD1       85.2810   25.4140   43.1840 C.3   165  ILE165      0.0001
     29  N         90.6850   21.0850   42.2650 N.3   168  GLN168     -0.1245
     30  CA        90.5480   20.7810   43.6970 C.3   168  GLN168      0.1566
     31  C         89.7940   19.4720   43.9220 C.2   168  GLN168      0.2260
     32  O         90.0960   18.7320   44.8600 O.2   168  GLN168     -0.2867
     33  CB        89.8570   21.9360   44.4420 C.3   168  GLN168      0.0367
     34  CG        90.6600   23.2280   44.4460 C.3   168  GLN168      0.0905
     35  CD        89.8600   24.4090   44.9630 C.2   168  GLN168      0.2608
     36  OE1       89.4070   24.4220   46.1080 O.2   168  GLN168     -0.2717
     37  NE2       89.7130   25.4260   44.1240 N.am  168  GLN168     -0.0878
     38  N         85.9070   22.4700   49.9030 N.3   176  ILE176     -0.1231
     39  CA        85.9910   23.5390   48.9320 C.3   176  ILE176      0.1692
     40  C         85.1110   24.6580   49.4570 C.2   176  ILE176      0.2592
     41  O         84.0220   24.4060   49.9580 O.2   176  ILE176     -0.2718
     42  CB        85.4720   23.0680   47.5540 C.3   176  ILE176      0.0266
     43  CG1       86.3910   21.9730   46.9950 C.3   176  ILE176      0.0019
     44  CG2       85.3690   24.2370   46.5780 C.3   176  ILE176      0.0020
     45  CD1       85.8530   21.2710   45.7650 C.3   176  ILE176      0.0001
     46  N         85.5930   25.8880   49.3570 N.am  177  LYS177     -0.1966
     47  CA        84.8390   27.0560   49.7690 C.3   177  LYS177      0.1728
     48  C         84.4440   27.8870   48.5450 C.2   177  LYS177      0.2616
     49  O         85.2580   28.0960   47.6400 O.2   177  LYS177     -0.2715
     50  CB        85.6540   27.8740   50.7550 C.3   177  LYS177      0.0311
     51  CG        85.8650   27.1090   52.0410 C.3   177  LYS177      0.0038
     52  CD        86.5790   27.9010   53.1060 C.3   177  LYS177      0.0206
     53  CE        86.7200   27.0390   54.3460 C.3   177  LYS177      0.1093
     54  NZ        87.4860   27.7370   55.4070 N.3   177  LYS177     -0.1314
     55  N         83.1900   28.3430   48.5100 N.am  178  ALA178     -0.1963
     56  CA        82.7170   29.1510   47.4070 C.3   178  ALA178      0.1728
     57  C         81.7280   30.1880   47.9090 C.2   178  ALA178      0.2616
     58  O         80.8930   29.9090   48.7600 O.2   178  ALA178     -0.2715
     59  CB        82.1010   28.2780   46.3330 C.3   178  ALA178      0.0334
     60  N         81.8260   31.3810   47.3350 N.am  179  VAL179     -0.1977
     61  CA        81.0240   32.5160   47.7370 C.3   179  VAL179      0.1596
     62  C         79.5620   32.3230   47.3350 C.2   179  VAL179      0.2287
     63  O         79.2550   32.0920   46.1700 O.2   179  VAL179     -0.2864
     64  CB        81.5980   33.8030   47.1360 C.3   179  VAL179      0.0276
     65  CG1       80.6930   34.9920   47.4060 C.3   179  VAL179      0.0022
     66  CG2       83.0080   34.0300   47.6600 C.3   179  VAL179      0.0022
     67  N         78.5740   31.3790   42.8390 N.3   217  ARG217     -0.1245
     68  CA        79.7200   30.5200   42.5980 C.3   217  ARG217      0.1563
     69  C         79.5360   29.2460   43.4130 C.2   217  ARG217      0.2260
     70  O         79.9680   28.1680   43.0070 O.2   217  ARG217     -0.2867
     71  CB        81.0130   31.2090   43.0180 C.3   217  ARG217      0.0307
     72  CG        81.3720   32.4580   42.2300 C.3   217  ARG217      0.0489
     73  CD        81.6990   32.1580   40.7860 C.3   217  ARG217      0.2205
     74  NE        82.2580   33.3300   40.1090 N.pl3 217  ARG217     -0.0865
     75  CZ        82.7190   33.3360   38.8580 C.cat 217  ARG217      0.5346
     76  NH1       82.6800   32.2320   38.0970 N.pl3 217  ARG217      0.1354
     77  NH2       83.2070   34.4620   38.3550 N.pl3 217  ARG217      0.1354
     78  N         86.9440   36.7240   51.5770 N.3   242  PHE242     -0.1241
     79  CA        87.9460   36.8780   50.5150 C.3   242  PHE242      0.1605
     80  C         88.0020   38.3420   50.0780 C.2   242  PHE242      0.2264
     81  O         87.4060   38.7090   49.0830 O.2   242  PHE242     -0.2867
     82  CB        87.6290   36.0000   49.2940 C.3   242  PHE242      0.0534
     83  CG        87.6440   34.5310   49.5890 C.ar  242  PHE242     -0.0203
     84  CD1       88.8130   33.9130   50.0320 C.ar  242  PHE242     -0.0042
     85  CD2       86.5190   33.7590   49.3870 C.ar  242  PHE242     -0.0042
     86  CE1       88.8440   32.5430   50.3160 C.ar  242  PHE242     -0.0003
     87  CE2       86.5400   32.3890   49.6600 C.ar  242  PHE242     -0.0003
     88  CZ        87.6990   31.7810   50.1240 C.ar  242  PHE242     -0.0000
@<TRIPOS>BOND
     1     1     2    1
     2    76    75    1
     3     3     2    1
     4     3     4    2
     5    77    75    1
     6    12    13    1
     7     2     5    1
     8     5     6    1
     9    75    74    2
    10     8     6   ar
    11     8    10   ar
    12    13    16    1
    13    13    14    1
    14     6     7   ar
    15    17    16    1
    16    17    18    1
    17    74    73    1
    18    19    18    1
    19    19    20    1
    20    21    14   am
    21    21    22    1
    22    14    15    2
    23    10    11   ar
    24    73    72    1
    25    23    22    1
    26    23    24    2
    27    25    22    1
    28    25    27    1
    29    25    26    1
    30     7     9   ar
    31    26    28    1
    32    11     9   ar
    33    72    71    1
    34    29    30    1
    35    68    67    1
    36    68    71    1
    37    68    69    1
    38    70    69    2
    39    30    31    1
    40    30    33    1
    41    31    32    2
    42    37    35   am
    43    33    34    1
    44    34    35    1
    45    35    36    2
    46    45    43    1
    47    63    62    2
    48    59    56    1
    49    44    42    1
    50    43    42    1
    51    64    65    1
    52    64    66    1
    53    64    61    1
    54    60    61    1
    55    60    57   am
    56    62    61    1
    57    56    57    1
    58    56    55    1
    59    42    39    1
    60    49    48    2
    61    57    58    2
    62    55    48   am
    63    48    47    1
    64    39    40    1
    65    39    38    1
    66    81    80    2
    67    82    83    1
    68    82    79    1
    69    46    40   am
    70    46    47    1
    71    85    83   ar
    72    85    87   ar
    73    40    41    2
    74    83    84   ar
    75    87    88   ar
    76    47    50    1
    77    84    86   ar
    78    80    79    1
    79    88    86   ar
    80    79    78    1
    81    50    51    1
    82    51    52    1
    83    52    53    1
    84    53    54    1
