@<TRIPOS>MOLECULE
tmp/5u9cD01.pdb
 72 71 0 0 0
SMALL
GASTEIGER

@<TRIPOS>ATOM
      1  N        109.1630   55.3780   59.1070 N.3   172  ILE172     -0.1231
      2  CA       109.9940   56.5870   59.0470 C.3   172  ILE172      0.1692
      3  C        111.3630   56.2850   59.6670 C.2   172  ILE172      0.2592
      4  O        112.3880   56.5530   59.0570 O.2   172  ILE172     -0.2718
      5  CB       109.3330   57.8100   59.7270 C.3   172  ILE172      0.0266
      6  CG1      108.1750   58.3240   58.8650 C.3   172  ILE172      0.0019
      7  CG2      110.3690   58.9190   59.9260 C.3   172  ILE172      0.0020
      8  CD1      107.2560   59.3390   59.5350 C.3   172  ILE172      0.0001
      9  N        111.3690   55.6920   60.8590 N.am  173  LYS173     -0.1966
     10  CA       112.6150   55.3540   61.5450 C.3   173  LYS173      0.1728
     11  C        113.4710   54.3390   60.7730 C.2   173  LYS173      0.2616
     12  O        114.6890   54.3600   60.8670 O.2   173  LYS173     -0.2715
     13  CB       112.3320   54.8410   62.9530 C.3   173  LYS173      0.0311
     14  CG       111.8890   55.9250   63.9260 C.3   173  LYS173      0.0038
     15  CD       111.5890   55.3130   65.2890 C.3   173  LYS173      0.0206
     16  CE       111.3180   56.3650   66.3470 C.3   173  LYS173      0.1093
     17  NZ       112.5350   57.1590   66.6580 N.3   173  LYS173     -0.1314
     18  N        112.8310   53.4600   60.0120 N.am  174  ALA174     -0.1963
     19  CA       113.5580   52.4660   59.2020 C.3   174  ALA174      0.1728
     20  C        114.1090   53.0650   57.8940 C.2   174  ALA174      0.2617
     21  O        114.7650   52.3700   57.1210 O.2   174  ALA174     -0.2715
     22  CB       112.6650   51.2730   58.8980 C.3   174  ALA174      0.0334
     23  N        113.8340   54.3430   57.6550 N.am  175  GLY175     -0.1940
     24  CA       114.2850   55.0210   56.4550 C.3   175  GLY175      0.2014
     25  C        113.6070   54.5780   55.1640 C.2   175  GLY175      0.2639
     26  O        114.2630   54.5160   54.1110 O.2   175  GLY175     -0.2714
     27  N        112.3040   54.2800   55.2310 N.am  176  SER176     -0.1949
     28  CA       111.5600   53.8510   54.0480 C.3   176  SER176      0.1924
     29  C        111.6210   54.9160   52.9600 C.2   176  SER176      0.2314
     30  O        111.4980   56.1150   53.2360 O.2   176  SER176     -0.2863
     31  CB       110.0950   53.5390   54.3850 C.3   176  SER176      0.2116
     32  OG       109.9930   52.4640   55.3120 O.3   176  SER176     -0.2180
     33  N        108.6760   64.4550   62.0760 N.3   231  LEU231     -0.1231
     34  CA       109.9020   63.6710   62.2180 C.3   231  LEU231      0.1693
     35  C        110.9580   63.9540   61.1380 C.2   231  LEU231      0.2592
     36  O        111.9310   63.2290   61.0380 O.2   231  LEU231     -0.2718
     37  CB       109.5580   62.1780   62.2850 C.3   231  LEU231      0.0284
     38  CG       108.6070   61.8120   63.4330 C.3   231  LEU231      0.0019
     39  CD1      108.3250   60.3230   63.4490 C.3   231  LEU231      0.0001
     40  CD2      109.1890   62.2530   64.7670 C.3   231  LEU231      0.0001
     41  N        110.7580   65.0180   60.3580 N.am  232  ASN232     -0.1960
     42  CA       111.6850   65.4340   59.2930 C.3   232  ASN232      0.1819
     43  C        111.9620   64.3160   58.2740 C.2   232  ASN232      0.2621
     44  O        113.0960   64.1650   57.7880 O.2   232  ASN232     -0.2715
     45  CB       113.0030   65.9540   59.8900 C.3   232  ASN232      0.1195
     46  CG       113.8440   66.7020   58.8710 C.2   232  ASN232      0.2630
     47  OD1      113.3410   67.0990   57.8200 O.2   232  ASN232     -0.2716
     48  ND2      115.1260   66.9160   59.1840 N.am  232  ASN232     -0.0877
     49  N        110.9160   63.5440   57.9640 N.am  233  PHE233     -0.1960
     50  CA       110.9900   62.4400   56.9970 C.3   233  PHE233      0.1771
     51  C        111.2580   63.0250   55.6110 C.2   233  PHE233      0.2619
     52  O        110.6010   63.9820   55.2080 O.2   233  PHE233     -0.2715
     53  CB       109.6650   61.6550   57.0220 C.3   233  PHE233      0.0574
     54  CG       109.6100   60.4950   56.0740 C.ar  233  PHE233     -0.0200
     55  CD1      110.5280   59.4430   56.1780 C.ar  233  PHE233     -0.0042
     56  CD2      108.6150   60.4160   55.1030 C.ar  233  PHE233     -0.0042
     57  CE1      110.4560   58.3600   55.3200 C.ar  233  PHE233     -0.0003
     58  CE2      108.5350   59.3240   54.2490 C.ar  233  PHE233     -0.0003
     59  CZ       109.4530   58.2950   54.3590 C.ar  233  PHE233     -0.0000
     60  N        112.2050   62.4590   54.8720 N.am  234  LYS234     -0.1963
     61  CA       112.5190   62.9740   53.5310 C.3   234  LYS234      0.1728
     62  C        112.0990   62.0390   52.3940 C.2   234  LYS234      0.2616
     63  O        112.2950   62.3580   51.2280 O.2   234  LYS234     -0.2715
     64  CB       114.0040   63.3500   53.4340 C.3   234  LYS234      0.0311
     65  CG       114.3890   64.4670   54.4020 C.3   234  LYS234      0.0038
     66  CD       113.4470   65.6590   54.2390 C.3   234  LYS234      0.0206
     67  CE       113.7030   66.7500   55.2760 C.3   234  LYS234      0.1093
     68  NZ       112.7000   67.8440   55.1950 N.3   234  LYS234     -0.1314
     69  N        111.4840   60.9070   52.7360 N.am  235  GLY235     -0.1955
     70  CA       111.0130   59.9630   51.7230 C.3   235  GLY235      0.1869
     71  C        109.6730   60.4680   51.1890 C.2   235  GLY235      0.2309
     72  O        109.2050   61.5450   51.5560 O.2   235  GLY235     -0.2863
@<TRIPOS>BOND
     1    71    72    2
     2    71    70    1
     3    63    62    2
     4    70    69    1
     5    62    69   am
     6    62    61    1
     7    29    30    2
     8    29    28    1
     9    64    61    1
    10    64    65    1
    11    61    60    1
    12    28    31    1
    13    28    27    1
    14    26    25    2
    15    66    65    1
    16    66    67    1
    17    58    59   ar
    18    58    56   ar
    19    59    57   ar
    20    31    32    1
    21    60    51   am
    22    56    54   ar
    23    25    27   am
    24    25    24    1
    25    68    67    1
    26    52    51    2
    27    57    55   ar
    28    51    50    1
    29    54    55   ar
    30    54    53    1
    31    24    23    1
    32    50    53    1
    33    50    49    1
    34    21    20    2
    35    23    20   am
    36    44    43    2
    37    47    46    2
    38    20    19    1
    39    49    43   am
    40    43    42    1
    41     6     8    1
    42     6     5    1
    43    46    48   am
    44    46    45    1
    45    22    19    1
    46     2     1    1
    47     2     3    1
    48     2     5    1
    49     4     3    2
    50    19    18    1
    51    42    45    1
    52    42    41    1
    53     3     9   am
    54     5     7    1
    55    18    11   am
    56    41    35   am
    57    11    12    2
    58    11    10    1
    59     9    10    1
    60    36    35    2
    61    35    34    1
    62    10    13    1
    63    33    34    1
    64    34    37    1
    65    37    38    1
    66    13    14    1
    67    38    39    1
    68    38    40    1
    69    14    15    1
    70    15    16    1
    71    16    17    1
