@<TRIPOS>MOLECULE
tmp/5u9cB00.pdb
 104 98 0 0 0
SMALL
GASTEIGER

@<TRIPOS>ATOM
      1  N         51.7010   51.0540   25.0940 N.3    62  THR62      -0.1218
      2  CA        51.4780   51.9420   26.2520 C.3    62  THR62       0.1862
      3  C         50.8500   51.2910   27.4940 C.2    62  THR62       0.2287
      4  O         50.5720   51.9850   28.4890 O.2    62  THR62      -0.2866
      5  CB        50.5990   53.1570   25.8610 C.3    62  THR62       0.1770
      6  OG1       49.3550   52.6990   25.3200 O.3    62  THR62      -0.2211
      7  CG2       51.3050   54.0120   24.8180 C.3    62  THR62       0.0375
      8  N         51.4690   49.9890   30.4650 N.3    64  VAL64      -0.1231
      9  CA        52.6220   49.9950   31.3660 C.3    64  VAL64       0.1692
     10  C         52.8330   48.6770   32.1050 C.2    64  VAL64       0.2592
     11  O         53.9660   48.2230   32.2800 O.2    64  VAL64      -0.2718
     12  CB        52.5130   51.1380   32.3860 C.3    64  VAL64       0.0266
     13  CG1       53.7540   51.1580   33.2810 C.3    64  VAL64       0.0020
     14  CG2       52.3750   52.4670   31.6570 C.3    64  VAL64       0.0020
     15  N         51.7400   48.0640   32.5240 N.am   65  ASP65      -0.1974
     16  CA        51.7980   46.8110   33.2540 C.3    65  ASP65       0.1709
     17  C         52.1760   45.6280   32.3760 C.2    65  ASP65       0.2293
     18  O         52.9540   44.7580   32.7890 O.2    65  ASP65      -0.2864
     19  CB        50.4880   46.6400   34.0050 C.3    65  ASP65       0.1436
     20  CG        50.3250   47.7330   35.0540 C.2    65  ASP65       0.3671
     21  OD1       51.2430   47.8290   35.9180 O.co2  65  ASP65      -0.2456
     22  OD2       49.3380   48.5140   34.9920 O.co2  65  ASP65      -0.2456
     23  N         50.0120   62.3970   31.7900 N.3   150  TRP150     -0.1241
     24  CA        48.7730   61.5970   31.7580 C.3   150  TRP150      0.1605
     25  C         47.8600   62.2020   30.6920 C.2   150  TRP150      0.2264
     26  O         47.2360   63.2450   30.9150 O.2   150  TRP150     -0.2867
     27  CB        48.0850   61.5980   33.1250 C.3   150  TRP150      0.0550
     28  CG        48.8890   60.9420   34.2220 C.ar  150  TRP150      0.0003
     29  CD1       49.7670   59.9190   34.0830 C.ar  150  TRP150      0.0946
     30  CD2       48.7380   61.1510   35.6330 C.ar  150  TRP150      0.0152
     31  NE1       50.2540   59.5400   35.3170 N.ar  150  TRP150     -0.2442
     32  CE2       49.6120   60.2650   36.2840 C.ar  150  TRP150      0.0810
     33  CE3       47.9710   62.0260   36.4040 C.ar  150  TRP150      0.0012
     34  CZ2       49.7520   60.2350   37.6730 C.ar  150  TRP150      0.0191
     35  CZ3       48.0920   61.9810   37.7910 C.ar  150  TRP150      0.0001
     36  CH2       48.9690   61.0850   38.4070 C.ar  150  TRP150      0.0015
     37  N         39.8690   55.6800   29.3920 N.3   160  LYS160     -0.1231
     38  CA        41.0020   55.7910   30.2910 C.3   160  LYS160      0.1693
     39  C         40.5260   56.3660   31.6490 C.2   160  LYS160      0.2592
     40  O         39.3420   56.2980   31.9610 O.2   160  LYS160     -0.2718
     41  CB        42.1430   56.5690   29.6090 C.3   160  LYS160      0.0285
     42  CG        42.7600   55.8020   28.4330 C.3   160  LYS160      0.0035
     43  CD        43.5280   54.5560   28.8920 C.3   160  LYS160      0.0206
     44  CE        43.8570   53.5950   27.7520 C.3   160  LYS160      0.1093
     45  NZ        44.7660   54.1600   26.7130 N.3   160  LYS160     -0.1314
     46  N         41.4390   56.9050   32.4420 N.am  161  PHE161     -0.1976
     47  CA        41.1060   57.3930   33.7690 C.3   161  PHE161      0.1639
     48  C         39.9200   58.3480   33.8180 C.2   161  PHE161      0.2290
     49  O         38.9840   58.0950   34.5570 O.2   161  PHE161     -0.2864
     50  CB        42.3250   58.0410   34.4620 C.3   161  PHE161      0.0560
     51  CG        42.0310   58.4790   35.8620 C.ar  161  PHE161     -0.0200
     52  CD1       41.8990   57.5300   36.8770 C.ar  161  PHE161     -0.0042
     53  CD2       41.8150   59.8190   36.1610 C.ar  161  PHE161     -0.0042
     54  CE1       41.5860   57.9130   38.1800 C.ar  161  PHE161     -0.0003
     55  CE2       41.5070   60.2170   37.4630 C.ar  161  PHE161     -0.0003
     56  CZ        41.3910   59.2620   38.4710 C.ar  161  PHE161     -0.0000
     57  N         36.5490   56.6940   32.8290 N.3   164  LYS164     -0.1245
     58  CA        36.0700   55.7780   33.8680 C.3   164  LYS164      0.1561
     59  C         35.4490   56.4910   35.0630 C.2   164  LYS164      0.2260
     60  O         34.4270   56.0270   35.5980 O.2   164  LYS164     -0.2867
     61  CB        37.1740   54.8250   34.3250 C.3   164  LYS164      0.0271
     62  CG        37.4240   53.7130   33.3120 C.3   164  LYS164      0.0035
     63  CD        38.5850   52.7950   33.6870 C.3   164  LYS164      0.0206
     64  CE        39.9230   53.5000   33.5420 C.3   164  LYS164      0.1093
     65  NZ        41.0780   52.5850   33.7520 N.3   164  LYS164     -0.1314
     66  N         45.6720   61.2850   41.0670 N.3   217  ARG217     -0.1245
     67  CA        44.4470   60.8230   40.4440 C.3   217  ARG217      0.1563
     68  C         43.2520   61.2300   41.3250 C.2   217  ARG217      0.2260
     69  O         42.1750   61.5360   40.8200 O.2   217  ARG217     -0.2867
     70  CB        44.4810   59.3090   40.2390 C.3   217  ARG217      0.0307
     71  CG        45.5490   58.7960   39.2460 C.3   217  ARG217      0.0489
     72  CD        45.3080   59.2060   37.8040 C.3   217  ARG217      0.2205
     73  NE        46.1980   58.4940   36.8650 N.pl3 217  ARG217     -0.0865
     74  CZ        46.1770   58.6190   35.5350 C.cat 217  ARG217      0.5346
     75  NH1       45.3110   59.4370   34.9260 N.pl3 217  ARG217      0.1354
     76  NH2       47.0300   57.9120   34.8010 N.pl3 217  ARG217      0.1354
     77  N         49.3780   46.5250   40.9300 N.3   244  LEU244     -0.1245
     78  CA        49.7180   46.5740   39.5100 C.3   244  LEU244      0.1561
     79  C         51.1130   45.9890   39.2920 C.2   244  LEU244      0.2260
     80  O         51.9560   46.0910   40.1600 O.2   244  LEU244     -0.2867
     81  CB        49.7130   48.0170   39.0370 C.3   244  LEU244      0.0270
     82  CG        48.4170   48.8080   39.1720 C.3   244  LEU244      0.0019
     83  CD1       48.6850   50.2710   38.8670 C.3   244  LEU244      0.0001
     84  CD2       47.3420   48.2600   38.2680 C.3   244  LEU244      0.0001
     85  N         55.3330   52.3080   40.0780 N.3   248  ARG248     -0.1245
     86  CA        55.0310   53.6840   39.6800 C.3   248  ARG248      0.1563
     87  C         55.7930   54.5740   40.6600 C.2   248  ARG248      0.2260
     88  O         55.8800   54.2430   41.8320 O.2   248  ARG248     -0.2867
     89  CB        53.5280   53.9910   39.7470 C.3   248  ARG248      0.0307
     90  CG        52.5820   53.0890   38.9410 C.3   248  ARG248      0.0489
     91  CD        52.8960   53.0780   37.4630 C.3   248  ARG248      0.2205
     92  NE        51.7370   52.7170   36.6080 N.pl3 248  ARG248     -0.0865
     93  CZ        51.2650   51.4830   36.3900 C.cat 248  ARG248      0.5346
     94  NH1       50.2330   51.3140   35.5570 N.pl3 248  ARG248      0.1354
     95  NH2       51.7910   50.4160   36.9960 N.pl3 248  ARG248      0.1354
     96  N         55.6090   61.5510   38.6340 N.3   252  GLU252     -0.1245
     97  CA        56.0910   61.5990   37.2650 C.3   252  GLU252      0.1567
     98  C         55.6580   62.9410   36.6930 C.2   252  GLU252      0.2260
     99  O         55.5420   63.0990   35.4940 O.2   252  GLU252     -0.2867
    100  CB        55.6320   60.3990   36.4080 C.3   252  GLU252      0.0388
    101  CG        54.1450   60.1400   36.3280 C.3   252  GLU252      0.1160
    102  CD        53.7970   59.1180   35.2390 C.2   252  GLU252      0.3649
    103  OE1       53.0090   58.1990   35.5150 O.co2 252  GLU252     -0.2457
    104  OE2       54.3450   59.2050   34.1040 O.co2 252  GLU252     -0.2457
@<TRIPOS>BOND
     1     7     5    1
     2     1     2    1
     3     6     5    1
     4     5     2    1
     5     2     3    1
     6    45    44    1
     7     3     4    2
     8    44    43    1
     9    42    43    1
    10    42    41    1
    11    37    38    1
    12    41    38    1
    13    38    39    1
    14     8     9    1
    15    25    26    2
    16    25    24    1
    17     9    10    1
    18     9    12    1
    19    39    40    2
    20    39    46   am
    21    14    12    1
    22    24    23    1
    23    24    27    1
    24    10    11    2
    25    10    15   am
    26    17    18    2
    27    17    16    1
    28    12    13    1
    29    46    47    1
    30    15    16    1
    31    57    58    1
    32    27    28    1
    33    16    19    1
    34    62    63    1
    35    62    61    1
    36    64    63    1
    37    64    65    1
    38    47    48    1
    39    47    50    1
    40    48    49    2
    41    58    61    1
    42    58    59    1
    43    19    20    1
    44    29    28   ar
    45    29    31   ar
    46   104   102   ar
    47    28    30   ar
    48    50    51    1
    49    76    74    1
    50    75    74    1
    51    22    20   ar
    52    20    21   ar
    53    59    60    2
    54   102   103   ar
    55   102   101    1
    56    31    32   ar
    57    99    98    2
    58    74    73    2
    59    94    93    1
    60    30    32   ar
    61    30    33   ar
    62    51    53   ar
    63    51    52   ar
    64    53    55   ar
    65    32    34   ar
    66   101   100    1
    67    93    92    2
    68    93    95    1
    69    33    35   ar
    70   100    97    1
    71    92    91    1
    72    98    97    1
    73    73    72    1
    74    52    54   ar
    75    97    96    1
    76    91    90    1
    77    55    56   ar
    78    34    36   ar
    79    35    36   ar
    80    72    71    1
    81    54    56   ar
    82    84    82    1
    83    83    82    1
    84    90    89    1
    85    81    82    1
    86    81    78    1
    87    71    70    1
    88    79    78    1
    89    79    80    2
    90    78    77    1
    91    86    89    1
    92    86    85    1
    93    86    87    1
    94    70    67    1
    95    67    66    1
    96    67    68    1
    97    87    88    2
    98    69    68    2
