@<TRIPOS>MOLECULE
tmp/5u9cE00.pdb
 134 127 0 0 0
SMALL
GASTEIGER

@<TRIPOS>ATOM
      1  N         61.5540   75.4240   68.2240 N.3    65  THR65      -0.1203
      2  CA        60.8750   75.0360   66.9700 C.3    65  THR65       0.1994
      3  C         61.2980   75.7740   65.7110 C.2    65  THR65       0.2618
      4  O         60.7150   75.5370   64.6500 O.2    65  THR65      -0.2717
      5  CB        59.3440   75.1190   67.1260 C.3    65  THR65       0.1784
      6  OG1       58.9540   76.4700   67.4280 O.3    65  THR65      -0.2211
      7  CG2       58.8910   74.1860   68.2570 C.3    65  THR65       0.0376
      8  N         62.2900   76.6680   65.8120 N.am   66  ASP66      -0.1959
      9  CA        62.8460   77.3450   64.6170 C.3    66  ASP66       0.1840
     10  C         63.7540   76.2940   63.9460 C.2    66  ASP66       0.2621
     11  O         64.8920   76.0210   64.4010 O.2    66  ASP66      -0.2715
     12  CB        63.6080   78.5930   65.0340 C.3    66  ASP66       0.1450
     13  CG        64.2150   79.3430   63.8600 C.2    66  ASP66       0.3671
     14  OD1       64.4270   78.7530   62.7810 O.co2  66  ASP66      -0.2456
     15  OD2       64.5250   80.5340   64.0360 O.co2  66  ASP66      -0.2456
     16  N         63.2150   75.6650   62.9090 N.am   67  VAL67      -0.1977
     17  CA        63.8990   74.5820   62.2090 C.3    67  VAL67       0.1596
     18  C         65.2560   74.9970   61.6270 C.2    67  VAL67       0.2287
     19  O         66.2270   74.2480   61.7010 O.2    67  VAL67      -0.2864
     20  CB        62.9760   73.9640   61.1330 C.3    67  VAL67       0.0276
     21  CG1       63.6990   72.8980   60.3330 C.3    67  VAL67       0.0022
     22  CG2       61.7500   73.3570   61.7990 C.3    67  VAL67       0.0022
     23  N         58.0800   66.2850   61.3710 N.3   106  ASN106     -0.1240
     24  CA        59.5040   66.3630   60.9680 C.3   106  ASN106      0.1653
     25  C         60.3750   65.1950   61.4170 C.2   106  ASN106      0.2266
     26  O         61.5500   65.1670   61.0650 O.2   106  ASN106     -0.2867
     27  CB        60.1720   67.6720   61.4580 C.3   106  ASN106      0.1155
     28  CG        60.1880   68.7570   60.4130 C.2   106  ASN106      0.2627
     29  OD1       60.9110   68.6520   59.3940 O.2   106  ASN106     -0.2716
     30  ND2       59.4890   69.8560   60.6930 N.am  106  ASN106     -0.0877
     31  N         51.4600   68.2640   62.5560 N.3   152  GLY152     -0.1210
     32  CA        52.0550   68.7550   61.3010 C.3   152  GLY152      0.1956
     33  C         52.2080   70.2560   61.3620 C.2   152  GLY152      0.2611
     34  O         52.5050   70.8060   62.4220 O.2   152  GLY152     -0.2717
     35  N         51.9370   70.9340   60.2530 N.am  153  TRP153     -0.1976
     36  CA        52.0260   72.3910   60.2010 C.3   153  TRP153      0.1640
     37  C         50.8740   72.9650   61.0040 C.2   153  TRP153      0.2290
     38  O         49.7130   72.8430   60.6230 O.2   153  TRP153     -0.2864
     39  CB        52.0190   72.8720   58.7580 C.3   153  TRP153      0.0576
     40  CG        53.1380   72.3100   57.9640 C.ar  153  TRP153      0.0006
     41  CD1       54.3830   71.9660   58.4320 C.ar  153  TRP153      0.0946
     42  CD2       53.1890   72.1470   56.5490 C.ar  153  TRP153      0.0152
     43  NE1       55.1710   71.5280   57.3970 N.ar  153  TRP153     -0.2442
     44  CE2       54.4680   71.6290   56.2310 C.ar  153  TRP153      0.0810
     45  CE3       52.2680   72.3360   55.5190 C.ar  153  TRP153      0.0012
     46  CZ2       54.8570   71.3380   54.9170 C.ar  153  TRP153      0.0191
     47  CZ3       52.6540   72.0330   54.2100 C.ar  153  TRP153      0.0001
     48  CH2       53.9400   71.5490   53.9260 C.ar  153  TRP153      0.0015
     49  N         48.2350   75.4670   62.8910 N.3   154  ILE154     -0.1245
     50  CA        47.4250   76.6550   62.6450 C.3   154  ILE154      0.1561
     51  C         46.6610   76.9270   63.9660 C.2   154  ILE154      0.2260
     52  O         46.1190   76.0090   64.5980 O.2   154  ILE154     -0.2867
     53  CB        46.4960   76.4850   61.4250 C.3   154  ILE154      0.0252
     54  CG1       45.3310   75.5370   61.6950 C.3   154  ILE154      0.0019
     55  CG2       47.2910   75.9510   60.2370 C.3   154  ILE154      0.0019
     56  CD1       44.3850   75.4260   60.5200 C.3   154  ILE154      0.0001
     57  N         53.6480   80.9000   62.6190 N.3   163  LYS163     -0.1231
     58  CA        54.1010   79.8350   61.7220 C.3   163  LYS163      0.1693
     59  C         53.7000   80.1260   60.2650 C.2   163  LYS163      0.2592
     60  O         53.2670   81.2310   59.9530 O.2   163  LYS163     -0.2718
     61  CB        53.5290   78.5020   62.2080 C.3   163  LYS163      0.0285
     62  CG        53.9960   78.0800   63.5930 C.3   163  LYS163      0.0035
     63  CD        55.4440   77.6110   63.6200 C.3   163  LYS163      0.0206
     64  CE        55.9070   77.2830   65.0400 C.3   163  LYS163      0.1093
     65  NZ        55.0320   76.2870   65.7250 N.3   163  LYS163     -0.1314
     66  N         53.8480   79.1360   59.3830 N.am  164  PHE164     -0.1962
     67  CA        53.5280   79.3200   57.9640 C.3   164  PHE164      0.1771
     68  C         52.1730   79.9970   57.6700 C.2   164  PHE164      0.2619
     69  O         52.1200   81.0260   56.9920 O.2   164  PHE164     -0.2715
     70  CB        53.6460   77.9960   57.1790 C.3   164  PHE164      0.0574
     71  CG        53.1270   78.1080   55.7790 C.ar  164  PHE164     -0.0200
     72  CD1       53.8010   78.8910   54.8510 C.ar  164  PHE164     -0.0042
     73  CD2       51.9330   77.4910   55.4040 C.ar  164  PHE164     -0.0042
     74  CE1       53.3130   79.0470   53.5630 C.ar  164  PHE164     -0.0003
     75  CE2       51.4420   77.6350   54.1140 C.ar  164  PHE164     -0.0003
     76  CZ        52.1330   78.4210   53.1930 C.ar  164  PHE164     -0.0000
     77  N         51.0920   79.4330   58.1930 N.am  165  VAL165     -0.1977
     78  CA        49.7520   79.9700   57.9560 C.3   165  VAL165      0.1596
     79  C         49.5910   81.3770   58.4980 C.2   165  VAL165      0.2287
     80  O         49.0310   82.2560   57.8180 O.2   165  VAL165     -0.2864
     81  CB        48.6670   79.0230   58.5230 C.3   165  VAL165      0.0276
     82  CG1       47.2840   79.6510   58.4740 C.3   165  VAL165      0.0022
     83  CG2       48.7250   77.6810   57.7820 C.3   165  VAL165      0.0022
     84  N         51.8670   83.6020   58.8610 N.3   167  LYS167     -0.1245
     85  CA        52.6400   84.5400   58.0200 C.3   167  LYS167      0.1561
     86  C         51.9170   84.9500   56.7270 C.2   167  LYS167      0.2260
     87  O         52.0490   86.0910   56.3010 O.2   167  LYS167     -0.2867
     88  CB        54.0400   83.9970   57.6980 C.3   167  LYS167      0.0271
     89  CG        54.9600   83.8740   58.9200 C.3   167  LYS167      0.0035
     90  CD        56.2860   83.2050   58.5530 C.3   167  LYS167      0.0206
     91  CE        57.0080   82.6660   59.7770 C.3   167  LYS167      0.1093
     92  NZ        58.1790   81.8240   59.3920 N.3   167  LYS167     -0.1314
     93  N         56.9720   71.4920   48.4600 N.3   185  ARG185     -0.1245
     94  CA        57.0650   71.0280   49.8510 C.3   185  ARG185      0.1563
     95  C         55.6420   70.6540   50.2400 C.2   185  ARG185      0.2260
     96  O         54.7590   71.5110   50.2390 O.2   185  ARG185     -0.2867
     97  CB        57.5930   72.0980   50.8160 C.3   185  ARG185      0.0307
     98  CG        59.1020   72.3520   50.7820 C.3   185  ARG185      0.0489
     99  CD        59.4930   73.4640   51.7640 C.3   185  ARG185      0.2205
    100  NE        59.1720   73.1420   53.1620 N.pl3 185  ARG185     -0.0865
    101  CZ        59.2580   74.0110   54.1780 C.cat 185  ARG185      0.5346
    102  NH1       59.6540   75.2740   53.9740 N.pl3 185  ARG185      0.1354
    103  NH2       58.9270   73.6260   55.4000 N.pl3 185  ARG185      0.1354
    104  N         52.4380   74.0210   50.3730 N.3   220  ARG220     -0.1245
    105  CA        52.2920   75.3320   50.9710 C.3   220  ARG220      0.1563
    106  C         51.5580   76.2690   50.0340 C.2   220  ARG220      0.2260
    107  O         50.8060   77.1100   50.4930 O.2   220  ARG220     -0.2867
    108  CB        53.6380   75.8790   51.3590 C.3   220  ARG220      0.0307
    109  CG        54.2490   75.0050   52.4160 C.3   220  ARG220      0.0489
    110  CD        55.3790   75.6610   53.1230 C.3   220  ARG220      0.2205
    111  NE        55.5490   74.9540   54.3830 N.pl3 220  ARG220     -0.0865
    112  CZ        56.1760   75.4390   55.4440 C.cat 220  ARG220      0.5346
    113  NH1       56.2290   74.7030   56.5430 N.pl3 220  ARG220      0.1354
    114  NH2       56.7260   76.6540   55.4210 N.pl3 220  ARG220      0.1354
    115  N         64.5870   70.3990   53.8900 N.3   251  ARG251     -0.1245
    116  CA        63.1760   70.0630   54.0810 C.3   251  ARG251      0.1563
    117  C         62.8610   68.9220   53.1210 C.2   251  ARG251      0.2260
    118  O         63.3280   68.9380   51.9710 O.2   251  ARG251     -0.2867
    119  CB        62.2690   71.2500   53.7550 C.3   251  ARG251      0.0307
    120  CG        62.4870   72.5160   54.5670 C.3   251  ARG251      0.0489
    121  CD        62.3240   72.2990   56.0650 C.3   251  ARG251      0.2205
    122  NE        61.9790   73.5430   56.7610 N.pl3 251  ARG251     -0.0865
    123  CZ        62.8090   74.5630   56.9970 C.cat 251  ARG251      0.5346
    124  NH1       62.3670   75.6260   57.6570 N.pl3 251  ARG251      0.1354
    125  NH2       64.0750   74.5560   56.5630 N.pl3 251  ARG251      0.1354
    126  N         56.3090   65.8250   54.3360 N.3   255  GLU255     -0.1245
    127  CA        56.2390   65.4570   55.7490 C.3   255  GLU255      0.1567
    128  C         54.7580   65.1920   56.1310 C.2   255  GLU255      0.2260
    129  O         54.3520   65.3040   57.2970 O.2   255  GLU255     -0.2867
    130  CB        56.9150   66.4770   56.6670 C.3   255  GLU255      0.0388
    131  CG        56.4600   67.9010   56.5410 C.3   255  GLU255      0.1160
    132  CD        57.1020   68.8010   57.6120 C.2   255  GLU255      0.3649
    133  OE1       57.5420   69.9370   57.2880 O.co2 255  GLU255     -0.2457
    134  OE2       57.1650   68.3680   58.7950 O.co2 255  GLU255     -0.2457
@<TRIPOS>BOND
     1    93    94    1
     2    94    95    1
     3    94    97    1
     4   106   107    2
     5   106   105    1
     6    96    95    2
     7   104   105    1
     8    98    97    1
     9    98    99    1
    10   105   108    1
    11   108   109    1
    12    99   100    1
    13   118   117    2
    14   109   110    1
    15   117   116    1
    16   110   111    1
    17   100   101    2
    18    76    74   ar
    19    76    75   ar
    20    74    72   ar
    21   119   116    1
    22   119   120    1
    23   115   116    1
    24    48    47   ar
    25    48    46   ar
    26   102   101    1
    27    75    73   ar
    28   101   103    1
    29    47    45   ar
    30   126   127    1
    31   111   112    2
    32   120   121    1
    33    72    71   ar
    34    46    44   ar
    35    73    71   ar
    36   114   112    1
    37   112   113    1
    38    45    42   ar
    39   127   128    1
    40   127   130    1
    41    71    70    1
    42   121   122    1
    43   128   129    2
    44    44    42   ar
    45    44    43   ar
    46    87    86    2
    47   131   130    1
    48   131   132    1
    49    42    40   ar
    50   125   123    1
    51    86    85    1
    52   122   123    2
    53    69    68    2
    54   123   124    1
    55    70    67    1
    56   133   132   ar
    57    43    41   ar
    58   132   134   ar
    59    68    67    1
    60    68    77   am
    61    88    85    1
    62    88    89    1
    63    83    81    1
    64    80    79    2
    65    78    77    1
    66    78    79    1
    67    78    81    1
    68    40    41   ar
    69    40    39    1
    70    67    66    1
    71    85    84    1
    72    82    81    1
    73    90    89    1
    74    90    91    1
    75    39    36    1
    76    66    59   am
    77    92    91    1
    78    29    28    2
    79    60    59    2
    80    36    35    1
    81    36    37    1
    82    55    53    1
    83    35    33   am
    84    59    58    1
    85    21    20    1
    86    28    30   am
    87    28    27    1
    88    56    54    1
    89    38    37    2
    90    24    23    1
    91    24    25    1
    92    24    27    1
    93    26    25    2
    94    20    22    1
    95    20    17    1
    96    32    33    1
    97    32    31    1
    98    33    34    2
    99    53    54    1
   100    53    50    1
   101    18    19    2
   102    18    17    1
   103    58    61    1
   104    58    57    1
   105    61    62    1
   106    17    16    1
   107    50    49    1
   108    50    51    1
   109    14    13   ar
   110    16    10   am
   111    62    63    1
   112    63    64    1
   113    13    15   ar
   114    13    12    1
   115    10    11    2
   116    10     9    1
   117    51    52    2
   118     9    12    1
   119     9     8    1
   120     4     3    2
   121    64    65    1
   122     3     8   am
   123     3     2    1
   124     2     5    1
   125     2     1    1
   126     5     6    1
   127     5     7    1
