@<TRIPOS>MOLECULE
tmp/5u9cD00.pdb
 104 99 0 0 0
SMALL
GASTEIGER

@<TRIPOS>ATOM
      1  N         76.2010   64.2440   68.1710 N.3   118  GLU118     -0.1231
      2  CA        75.3530   63.4220   69.0420 C.3   118  GLU118      0.1699
      3  C         73.8460   63.3850   68.6610 C.2   118  GLU118      0.2592
      4  O         73.1340   62.4910   69.0990 O.2   118  GLU118     -0.2718
      5  CB        75.5290   63.7780   70.5300 C.3   118  GLU118      0.0402
      6  CG        76.9390   63.5790   71.1120 C.3   118  GLU118      0.1161
      7  CD        77.8590   64.8030   70.9910 C.2   118  GLU118      0.3649
      8  OE1       77.6080   65.6790   70.1430 O.co2 118  GLU118     -0.2457
      9  OE2       78.8590   64.8780   71.7440 O.co2 118  GLU118     -0.2457
     10  N         73.3740   64.3290   67.8430 N.am  119  LEU119     -0.1966
     11  CA        71.9840   64.3010   67.3650 C.3   119  LEU119      0.1728
     12  C         71.7930   63.4110   66.1290 C.2   119  LEU119      0.2616
     13  O         70.6510   63.0210   65.8170 O.2   119  LEU119     -0.2715
     14  CB        71.4370   65.7030   67.0640 C.3   119  LEU119      0.0311
     15  CG        71.0100   66.4970   68.2750 C.3   119  LEU119      0.0022
     16  CD1       70.5150   67.8870   67.8630 C.3   119  LEU119      0.0001
     17  CD2       69.9190   65.7510   69.0510 C.3   119  LEU119      0.0001
     18  N         72.8820   63.1090   65.4160 N.am  120  ASP120     -0.1957
     19  CA        72.7860   62.2600   64.2320 C.3   120  ASP120      0.1840
     20  C         72.3710   60.8540   64.6750 C.2   120  ASP120      0.2622
     21  O         72.7490   60.4090   65.7440 O.2   120  ASP120     -0.2715
     22  CB        74.0860   62.2960   63.4440 C.3   120  ASP120      0.1450
     23  CG        74.2180   63.5580   62.6370 C.2   120  ASP120      0.3671
     24  OD1       73.4570   63.6790   61.6540 O.co2 120  ASP120     -0.2456
     25  OD2       75.0690   64.4280   62.9500 O.co2 120  ASP120     -0.2456
     26  N         71.5290   60.1910   63.8950 N.am  121  ILE121     -0.1964
     27  CA        71.0340   58.8610   64.2820 C.3   121  ILE121      0.1712
     28  C         71.9530   57.8130   63.6770 C.2   121  ILE121      0.2458
     29  O         72.1390   57.7980   62.4650 O.2   121  ILE121     -0.2730
     30  CB        69.5910   58.6400   63.8260 C.3   121  ILE121      0.0289
     31  CG1       68.7280   59.8200   64.2650 C.3   121  ILE121      0.0022
     32  CG2       69.0390   57.3430   64.4050 C.3   121  ILE121      0.0023
     33  CD1       67.3140   59.7510   63.7460 C.3   121  ILE121      0.0001
     34  N         72.5340   56.9380   64.5190 N.am  122  PRO122     -0.2727
     35  CA        73.4910   55.9390   64.0310 C.3   122  PRO122      0.1402
     36  C         72.9700   55.0140   62.9230 C.2   122  PRO122      0.2269
     37  O         71.8520   54.5380   62.9920 O.2   122  PRO122     -0.2865
     38  CB        73.8380   55.1370   65.2890 C.3   122  PRO122      0.0296
     39  CG        73.5790   56.0620   66.4190 C.3   122  PRO122      0.0237
     40  CD        72.3790   56.8650   65.9930 C.3   122  PRO122      0.0939
     41  N         76.8710   49.4550   68.2700 N.3   132  LEU132     -0.1245
     42  CA        75.6040   50.1850   68.3820 C.3   132  LEU132      0.1561
     43  C         74.5760   49.4270   69.2010 C.2   132  LEU132      0.2260
     44  O         73.8890   50.0130   70.0160 O.2   132  LEU132     -0.2867
     45  CB        75.0220   50.4810   67.0070 C.3   132  LEU132      0.0270
     46  CG        73.6720   51.2070   67.0030 C.3   132  LEU132      0.0019
     47  CD1       73.7530   52.5220   67.7560 C.3   132  LEU132      0.0001
     48  CD2       73.2100   51.4360   65.5660 C.3   132  LEU132      0.0001
     49  N         75.4840   49.6940   72.6960 N.3   135  GLU135     -0.1231
     50  CA        75.0230   50.9900   73.2580 C.3   135  GLU135      0.1699
     51  C         73.5700   50.9050   73.7120 C.2   135  GLU135      0.2592
     52  O         73.2420   51.3730   74.8020 O.2   135  GLU135     -0.2718
     53  CB        75.1180   52.1600   72.2760 C.3   135  GLU135      0.0402
     54  CG        76.5060   52.5780   71.7930 C.3   135  GLU135      0.1161
     55  CD        76.4560   53.8530   70.9510 C.2   135  GLU135      0.3649
     56  OE1       75.3730   54.4870   70.8740 O.co2 135  GLU135     -0.2457
     57  OE2       77.5000   54.2420   70.3830 O.co2 135  GLU135     -0.2457
     58  N         72.7130   50.3170   72.8800 N.am  136  SER136     -0.1952
     59  CA        71.2980   50.1670   73.2240 C.3   136  SER136      0.1924
     60  C         71.1590   49.4280   74.5560 C.2   136  SER136      0.2314
     61  O         70.4130   49.8750   75.4420 O.2   136  SER136     -0.2863
     62  CB        70.5230   49.4030   72.1420 C.3   136  SER136      0.2116
     63  OG        70.5980   50.0390   70.8810 O.3   136  SER136     -0.2180
     64  N         71.9650   51.7960   77.4410 N.3   139  ARG139     -0.1245
     65  CA        70.9020   52.8110   77.6460 C.3   139  ARG139      0.1563
     66  C         69.6430   52.2760   78.2590 C.2   139  ARG139      0.2260
     67  O         69.1040   52.8880   79.1830 O.2   139  ARG139     -0.2867
     68  CB        70.4780   53.4910   76.3370 C.3   139  ARG139      0.0307
     69  CG        71.4970   54.4450   75.8070 C.3   139  ARG139      0.0489
     70  CD        70.8840   55.4430   74.8310 C.3   139  ARG139      0.2205
     71  NE        71.9790   56.1730   74.2280 N.pl3 139  ARG139     -0.0865
     72  CZ        72.7130   55.7030   73.2290 C.cat 139  ARG139      0.5346
     73  NH1       73.7270   56.4190   72.7680 N.pl3 139  ARG139      0.1354
     74  NH2       72.4490   54.5060   72.7030 N.pl3 139  ARG139      0.1354
     75  N         81.8120   58.0520   72.4280 N.3   150  ARG150     -0.1245
     76  CA        82.2110   57.5750   71.1170 C.3   150  ARG150      0.1563
     77  C         83.5410   58.2220   70.7660 C.2   150  ARG150      0.2260
     78  O         83.6670   59.4460   70.7570 O.2   150  ARG150     -0.2867
     79  CB        81.1540   57.8880   70.0560 C.3   150  ARG150      0.0307
     80  CG        79.7770   57.3000   70.3370 C.3   150  ARG150      0.0489
     81  CD        78.8390   57.4800   69.1490 C.3   150  ARG150      0.2205
     82  NE        77.5130   56.9260   69.3660 N.pl3 150  ARG150     -0.0865
     83  CZ        76.3520   57.5800   69.3150 C.cat 150  ARG150      0.5346
     84  NH1       76.2760   58.8730   68.9890 N.pl3 150  ARG150      0.1354
     85  NH2       75.2310   56.9030   69.5300 N.pl3 150  ARG150      0.1354
     86  N         75.3270   60.5880   76.3230 N.3   209  THR209     -0.1218
     87  CA        76.1540   60.1700   75.1870 C.3   209  THR209      0.1862
     88  C         76.9860   61.3570   74.7090 C.2   209  THR209      0.2287
     89  O         76.4540   62.4610   74.5150 O.2   209  THR209     -0.2866
     90  CB        75.2910   59.5920   74.0440 C.3   209  THR209      0.1770
     91  OG1       74.7050   58.3450   74.4690 O.3   209  THR209     -0.2211
     92  CG2       76.1390   59.3000   72.7820 C.3   209  THR209      0.0375
     93  N         77.9390   68.8230   72.5070 N.3   261  TYR261     -0.1241
     94  CA        77.7300   68.8810   73.9610 C.3   261  TYR261      0.1605
     95  C         78.9830   69.0430   74.8310 C.2   261  TYR261      0.2264
     96  O         78.8460   69.2790   76.0230 O.2   261  TYR261     -0.2867
     97  CB        76.9640   67.6240   74.4570 C.3   261  TYR261      0.0534
     98  CG        75.5620   67.4180   73.8790 C.ar  261  TYR261     -0.0201
     99  CD1       74.6830   68.4850   73.7170 C.ar  261  TYR261     -0.0009
    100  CD2       75.0870   66.1480   73.6090 C.ar  261  TYR261     -0.0009
    101  CE1       73.4060   68.2970   73.2240 C.ar  261  TYR261      0.0417
    102  CE2       73.8050   65.9450   73.1200 C.ar  261  TYR261      0.0417
    103  CZ        72.9690   67.0240   72.9300 C.ar  261  TYR261      0.1957
    104  OH        71.7040   66.8510   72.4440 O.3   261  TYR261     -0.2866
@<TRIPOS>BOND
     1    24    23   ar
     2    29    28    2
     3    23    25   ar
     4    23    22    1
     5    36    37    2
     6    36    35    1
     7    22    19    1
     8    28    27    1
     9    28    34   am
    10    33    31    1
    11    30    31    1
    12    30    27    1
    13    30    32    1
    14    26    27    1
    15    26    20   am
    16    35    34    1
    17    35    38    1
    18    19    20    1
    19    19    18    1
    20    34    40    1
    21    20    21    2
    22    38    39    1
    23    18    12   am
    24    48    46    1
    25    13    12    2
    26    40    39    1
    27    12    11    1
    28    46    45    1
    29    46    47    1
    30    45    42    1
    31    14    11    1
    32    14    15    1
    33    11    10    1
    34    10     3   am
    35    16    15    1
    36     1     2    1
    37    41    42    1
    38    15    17    1
    39    42    43    1
    40     3     2    1
    41     3     4    2
    42    84    83    1
    43     2     5    1
    44    81    82    1
    45    81    80    1
    46    43    44    2
    47    83    82    2
    48    83    85    1
    49    79    80    1
    50    79    76    1
    51     8     7   ar
    52    57    55   ar
    53     5     6    1
    54    78    77    2
    55    77    76    1
    56    56    55   ar
    57    63    62    1
    58    55    54    1
    59     7     6    1
    60     7     9   ar
    61    76    75    1
    62    54    53    1
    63    62    59    1
    64    53    50    1
    65   104   103    1
    66    93    94    1
    67    49    50    1
    68    74    72    1
    69    73    72    1
    70    92    90    1
    71    58    59    1
    72    58    51   am
    73   103   102   ar
    74   103   101   ar
    75   102   100   ar
    76   101    99   ar
    77    59    60    1
    78    72    71    2
    79    50    51    1
    80   100    98   ar
    81    51    52    2
    82    99    98   ar
    83    98    97    1
    84    94    97    1
    85    94    95    1
    86    90    91    1
    87    90    87    1
    88    71    70    1
    89    89    88    2
    90    60    61    2
    91    88    87    1
    92    95    96    2
    93    70    69    1
    94    87    86    1
    95    69    68    1
    96    68    65    1
    97    64    65    1
    98    65    66    1
    99    66    67    2
