@<TRIPOS>MOLECULE
tmp/5u9dA00.pdb
 218 208 0 0 0
SMALL
GASTEIGER

@<TRIPOS>ATOM
      1  N        -10.4640    1.0940  -19.2160 N.3    20  LEU20      -0.1231
      2  CA       -10.9410    2.4090  -19.6700 C.3    20  LEU20       0.1693
      3  C        -10.0740    3.5510  -19.1870 C.2    20  LEU20       0.2593
      4  O         -9.8850    4.5290  -19.9120 O.2    20  LEU20      -0.2718
      5  CB       -12.3700    2.6210  -19.1980 C.3    20  LEU20       0.0284
      6  CG       -13.3620    1.6160  -19.7900 C.3    20  LEU20       0.0019
      7  CD1      -14.6870    1.7060  -19.0530 C.3    20  LEU20       0.0001
      8  CD2      -13.5700    1.8330  -21.2830 C.3    20  LEU20       0.0001
      9  N         -9.5490    3.4440  -17.9740 N.am   21  GLY21      -0.1942
     10  CA        -8.7090    4.5090  -17.4500 C.3    21  GLY21       0.2014
     11  C         -8.1370    4.1890  -16.0990 C.2    21  GLY21       0.2640
     12  O         -8.6340    3.3000  -15.4040 O.2    21  GLY21      -0.2714
     13  N         -7.0860    4.9210  -15.7420 N.am   22  THR22      -0.1936
     14  CA        -6.3720    4.7620  -14.4850 C.3    22  THR22       0.2028
     15  C         -6.0550    6.1540  -13.9660 C.2    22  THR22       0.2643
     16  O         -5.7120    7.0470  -14.7430 O.2    22  THR22      -0.2714
     17  CB        -5.0520    3.9990  -14.6800 C.3    22  THR22       0.1808
     18  OG1       -5.3100    2.7380  -15.3030 O.3    22  THR22      -0.2208
     19  CG2       -4.3670    3.7630  -13.3510 C.3    22  THR22       0.0379
     20  N         -6.1930    6.3360  -12.6570 N.am   23  GLY23      -0.1939
     21  CA        -5.7880    7.5760  -12.0090 C.3    23  GLY23       0.2014
     22  C         -5.6970    7.3810  -10.5160 C.2    23  GLY23       0.2639
     23  O         -5.6830    6.2460  -10.0260 O.2    23  GLY23      -0.2714
     24  N         -5.7010    8.5020   -9.8050 N.am   24  GLN24      -0.1963
     25  CA        -5.5100    8.5150   -8.3520 C.3    24  GLN24       0.1733
     26  C         -6.5950    7.7640   -7.5670 C.2    24  GLN24       0.2616
     27  O         -6.3290    7.2950   -6.4600 O.2    24  GLN24      -0.2715
     28  CB        -5.4000    9.9590   -7.8350 C.3    24  GLN24       0.0408
     29  CG        -4.1110   10.6900   -8.2700 C.3    24  GLN24       0.0908
     30  CD        -2.8440   10.1800   -7.6050 C.2    24  GLN24       0.2608
     31  OE1       -1.9930    9.5690   -8.2540 O.2    24  GLN24      -0.2717
     32  NE2       -2.7110   10.4300   -6.3070 N.am   24  GLN24      -0.0878
     33  N         -7.8030    7.6550   -8.1340 N.am   25  PHE25      -0.1960
     34  CA        -8.8960    6.9110   -7.4980 C.3    25  PHE25       0.1771
     35  C         -8.8480    5.4130   -7.7290 C.2    25  PHE25       0.2620
     36  O         -9.4800    4.6760   -6.9790 O.2    25  PHE25      -0.2715
     37  CB       -10.2690    7.4090   -7.9640 C.3    25  PHE25       0.0574
     38  CG       -10.5000    8.8990   -7.8040 C.ar   25  PHE25      -0.0200
     39  CD1       -9.8960    9.6550   -6.7880 C.ar   25  PHE25      -0.0042
     40  CD2      -11.3950    9.5370   -8.6620 C.ar   25  PHE25      -0.0042
     41  CE1      -10.1500   11.0250   -6.6770 C.ar   25  PHE25      -0.0003
     42  CE2      -11.6530   10.8980   -8.5520 C.ar   25  PHE25      -0.0003
     43  CZ       -11.0340   11.6380   -7.5570 C.ar   25  PHE25      -0.0000
     44  N         -8.1390    4.9720   -8.7650 N.am   26  GLY26      -0.1940
     45  CA        -8.0490    3.5620   -9.1110 C.3    26  GLY26       0.2014
     46  C         -8.1350    3.3400  -10.5920 C.2    26  GLY26       0.2639
     47  O         -7.5520    4.0950  -11.3530 O.2    26  GLY26      -0.2714
     48  N         -8.8550    2.2970  -10.9890 N.am   27  VAL27      -0.1963
     49  CA        -8.8860    1.8510  -12.3780 C.3    27  VAL27       0.1727
     50  C        -10.3290    1.5940  -12.7540 C.2    27  VAL27       0.2616
     51  O        -11.0760    1.0030  -11.9690 O.2    27  VAL27      -0.2715
     52  CB        -8.0750    0.5370  -12.5570 C.3    27  VAL27       0.0290
     53  CG1       -8.1130    0.0360  -14.0000 C.3    27  VAL27       0.0023
     54  CG2       -6.6300    0.7230  -12.1100 C.3    27  VAL27       0.0023
     55  N        -10.7220    2.0470  -13.9440 N.am   28  VAL28      -0.1977
     56  CA       -12.0470    1.7310  -14.4850 C.3    28  VAL28       0.1596
     57  C        -11.8760    0.7560  -15.6310 C.2    28  VAL28       0.2287
     58  O        -11.0690    0.9830  -16.5330 O.2    28  VAL28      -0.2864
     59  CB       -12.8380    2.9580  -14.9800 C.3    28  VAL28       0.0276
     60  CG1      -14.2810    2.5830  -15.2990 C.3    28  VAL28       0.0022
     61  CG2      -12.8390    4.0620  -13.9470 C.3    28  VAL28       0.0022
     62  N        -19.4630   -0.4570  -16.3210 N.3    40  ALA40      -0.1245
     63  CA       -18.1490   -0.0030  -15.9270 C.3    40  ALA40       0.1562
     64  C        -17.8960   -0.5420  -14.5300 C.2    40  ALA40       0.2260
     65  O        -18.7950   -0.5510  -13.6960 O.2    40  ALA40      -0.2867
     66  CB       -18.0850    1.5040  -15.9270 C.3    40  ALA40       0.0290
     67  N        -15.4540    0.1650  -11.5060 N.3    42  LYS42      -0.1231
     68  CA       -14.5650    1.1990  -10.9890 C.3    42  LYS42       0.1693
     69  C        -13.9080    0.5960   -9.7630 C.2    42  LYS42       0.2592
     70  O        -14.5810    0.3310   -8.7740 O.2    42  LYS42      -0.2718
     71  CB       -15.3380    2.4830  -10.6690 C.3    42  LYS42       0.0285
     72  CG       -16.4410    2.8090  -11.6720 C.3    42  LYS42       0.0035
     73  CD       -16.9900    4.2050  -11.4910 C.3    42  LYS42       0.0206
     74  CE       -16.1340    5.1900  -12.2450 C.3    42  LYS42       0.1093
     75  NZ       -16.7110    6.5390  -12.0910 N.3    42  LYS42      -0.1314
     76  N        -12.6090    0.3590   -9.8560 N.am   43  MET43      -0.1965
     77  CA       -11.8530   -0.3660   -8.8500 C.3    43  MET43       0.1736
     78  C        -11.1350    0.6720   -8.0020 C.2    43  MET43       0.2616
     79  O        -10.2520    1.3540   -8.4940 O.2    43  MET43      -0.2715
     80  CB       -10.8630   -1.3090   -9.5340 C.3    43  MET43       0.0427
     81  CG       -11.5320   -2.2780  -10.4920 C.3    43  MET43       0.0599
     82  SD       -10.3560   -3.2690  -11.4170 S.3    43  MET43      -0.1393
     83  CE        -9.7960   -4.4460  -10.2040 C.3    43  MET43       0.0692
     84  N        -11.5340    0.7780   -6.7380 N.am   44  ILE44      -0.1977
     85  CA       -11.0360    1.8050   -5.8320 C.3    44  ILE44       0.1596
     86  C         -9.6210    1.4560   -5.3770 C.2    44  ILE44       0.2287
     87  O         -9.4060    0.4090   -4.7700 O.2    44  ILE44      -0.2864
     88  CB       -11.9740    2.0050   -4.6210 C.3    44  ILE44       0.0276
     89  CG1      -13.3080    2.6260   -5.0800 C.3    44  ILE44       0.0022
     90  CG2      -11.3250    2.9090   -3.5730 C.3    44  ILE44       0.0022
     91  CD1      -14.3920    2.7020   -4.0280 C.3    44  ILE44       0.0001
     92  N         -9.4400    6.0090   -0.4520 N.3    49  MET49      -0.1245
     93  CA       -10.8000    6.3860   -0.0550 C.3    49  MET49       0.1570
     94  C        -11.1700    5.9410    1.3590 C.2    49  MET49       0.2261
     95  O        -10.6610    4.9400    1.8510 O.2    49  MET49      -0.2867
     96  CB       -11.8020    5.8000   -1.0510 C.3    49  MET49       0.0387
     97  CG       -11.6090    6.3050   -2.4740 C.3    49  MET49       0.0595
     98  SD       -12.7310    7.6350   -2.8490 S.3    49  MET49      -0.1393
     99  CE       -14.2270    6.6680   -2.6770 C.3    49  MET49       0.0692
    100  N        -25.1910    9.0730  -14.2390 N.3    70  VAL70      -0.1245
    101  CA       -24.6070    7.7370  -14.4340 C.3    70  VAL70       0.1561
    102  C        -25.2240    6.8030  -13.3770 C.2    70  VAL70       0.2260
    103  O        -25.2090    7.1040  -12.1890 O.2    70  VAL70      -0.2867
    104  CB       -23.0700    7.7630  -14.3560 C.3    70  VAL70       0.0252
    105  CG1      -22.5180    6.3460  -14.3650 C.3    70  VAL70       0.0019
    106  CG2      -22.4950    8.5440  -15.5200 C.3    70  VAL70       0.0019
    107  N        -17.0280   -0.3430   -7.7110 N.3    84  ILE84      -0.1245
    108  CA       -18.2860    0.3400   -7.9730 C.3    84  ILE84       0.1561
    109  C        -18.6870   -0.0850   -9.3820 C.2    84  ILE84       0.2260
    110  O        -17.8990    0.0310  -10.3190 O.2    84  ILE84      -0.2867
    111  CB       -18.1780    1.8860   -7.9720 C.3    84  ILE84       0.0252
    112  CG1      -17.3880    2.3880   -6.7670 C.3    84  ILE84       0.0019
    113  CG2      -19.5750    2.5070   -8.0380 C.3    84  ILE84       0.0019
    114  CD1      -17.1750    3.8830   -6.7660 C.3    84  ILE84       0.0001
    115  N        -21.2180    0.5450  -12.4460 N.3    86  THR86      -0.1203
    116  CA       -22.0860    1.5780  -12.9920 C.3    86  THR86       0.1994
    117  C        -22.4350    1.3110  -14.4350 C.2    86  THR86       0.2618
    118  O        -21.8690    0.4520  -15.1080 O.2    86  THR86      -0.2717
    119  CB       -21.4460    2.9880  -12.9110 C.3    86  THR86       0.1784
    120  OG1      -20.4410    3.1290  -13.9160 O.3    86  THR86      -0.2211
    121  CG2      -20.8390    3.2470  -11.5610 C.3    86  THR86       0.0376
    122  N        -23.3870    2.0960  -14.9010 N.am   87  GLU87      -0.1965
    123  CA       -23.6420    2.2610  -16.3190 C.3    87  GLU87       0.1733
    124  C        -22.3550    2.5710  -17.0680 C.2    87  GLU87       0.2616
    125  O        -21.5180    3.3160  -16.5680 O.2    87  GLU87      -0.2715
    126  CB       -24.6300    3.4050  -16.4430 C.3    87  GLU87       0.0429
    127  CG       -24.9450    3.9120  -17.8080 C.3    87  GLU87       0.1163
    128  CD       -26.0050    4.9740  -17.7670 C.2    87  GLU87       0.3649
    129  OE1      -26.3450    5.5260  -16.6800 O.co2  87  GLU87      -0.2457
    130  OE2      -26.5050    5.2370  -18.8600 O.co2  87  GLU87      -0.2457
    131  N        -22.2110    1.9740  -18.2450 N.am   88  TYR88      -0.1960
    132  CA       -21.0680    2.1670  -19.1230 C.3    88  TYR88       0.1771
    133  C        -21.3230    3.3090  -20.0770 C.2    88  TYR88       0.2619
    134  O        -22.3690    3.3530  -20.7100 O.2    88  TYR88      -0.2715
    135  CB       -20.8200    0.8870  -19.9220 C.3    88  TYR88       0.0574
    136  CG       -19.7310    0.9870  -20.9590 C.ar   88  TYR88      -0.0198
    137  CD1      -18.4510    1.4040  -20.6160 C.ar   88  TYR88      -0.0009
    138  CD2      -19.9780    0.6570  -22.2920 C.ar   88  TYR88      -0.0009
    139  CE1      -17.4550    1.5120  -21.5680 C.ar   88  TYR88       0.0417
    140  CE2      -18.9840    0.7570  -23.2480 C.ar   88  TYR88       0.0417
    141  CZ       -17.7200    1.1570  -22.8800 C.ar   88  TYR88       0.1957
    142  OH       -16.7520    1.2550  -23.8310 O.3    88  TYR88      -0.2866
    143  N        -20.3350    4.1800  -20.2300 N.am   89  MET89      -0.1963
    144  CA       -20.4590    5.3760  -21.0670 C.3    89  MET89       0.1736
    145  C        -19.3780    5.3150  -22.1520 C.2    89  MET89       0.2616
    146  O        -18.2290    5.7000  -21.9380 O.2    89  MET89      -0.2715
    147  CB       -20.2970    6.5920  -20.1770 C.3    89  MET89       0.0427
    148  CG       -21.3100    6.7040  -19.0640 C.3    89  MET89       0.0599
    149  SD       -22.9970    7.0120  -19.6250 S.3    89  MET89      -0.1393
    150  CE       -22.8320    8.7210  -20.1170 C.3    89  MET89       0.0692
    151  N        -19.7560    4.7760  -23.3150 N.am   90  ALA90      -0.1977
    152  CA       -18.7600    4.3590  -24.3170 C.3    90  ALA90       0.1597
    153  C        -17.8370    5.4460  -24.8630 C.2    90  ALA90       0.2287
    154  O        -16.7110    5.1540  -25.2450 O.2    90  ALA90      -0.2864
    155  CB       -19.4440    3.6580  -25.4670 C.3    90  ALA90       0.0319
    156  N        -16.7090    8.0170  -23.0770 N.3    92  GLY92      -0.1210
    157  CA       -15.7400    8.4150  -22.0820 C.3    92  GLY92       0.1956
    158  C        -15.9520    9.8000  -21.5260 C.2    92  GLY92       0.2612
    159  O        -17.0710   10.3330  -21.5320 O.2    92  GLY92      -0.2717
    160  N        -14.8440   10.3840  -21.1030 N.am   93  CYS93      -0.1970
    161  CA       -14.8190   11.6580  -20.4480 C.3    93  CYS93       0.1712
    162  C        -15.3350   12.7860  -21.3400 C.2    93  CYS93       0.2296
    163  O        -14.9440   12.8830  -22.5070 O.2    93  CYS93      -0.2864
    164  CB       -13.3890   11.9330  -20.0390 C.3    93  CYS93       0.0983
    165  SG       -13.3230   13.3560  -18.9850 S.3    93  CYS93      -0.0798
    166  N        -14.5940   17.1110  -16.5670 N.3   137  ARG137     -0.1245
    167  CA       -13.8390   15.9020  -16.2290 C.3   137  ARG137      0.1563
    168  C        -14.6530   14.8610  -15.4480 C.2   137  ARG137      0.2260
    169  O        -14.2540   13.7080  -15.4200 O.2   137  ARG137     -0.2867
    170  CB       -12.5540   16.2510  -15.4550 C.3   137  ARG137      0.0307
    171  CG       -12.7880   16.8410  -14.0830 C.3   137  ARG137      0.0489
    172  CD       -11.5060   17.1110  -13.2990 C.3   137  ARG137      0.2205
    173  NE       -11.9100   17.8560  -12.1180 N.pl3 137  ARG137     -0.0865
    174  CZ       -12.1780   19.1580  -12.0900 C.cat 137  ARG137      0.5346
    175  NH1      -12.0140   19.9060  -13.1570 N.pl3 137  ARG137      0.1354
    176  NH2      -12.6330   19.7120  -10.9830 N.pl3 137  ARG137      0.1354
    177  N        -19.5540   12.1290  -18.3290 N.3   140  LEU140     -0.1245
    178  CA       -19.2450   11.0760  -19.2810 C.3   140  LEU140      0.1561
    179  C        -20.2230   11.1660  -20.4300 C.2   140  LEU140      0.2260
    180  O        -21.2970   11.7590  -20.3050 O.2   140  LEU140     -0.2867
    181  CB       -19.3340    9.7070  -18.6020 C.3   140  LEU140      0.0270
    182  CG       -18.2590    9.4140  -17.5630 C.3   140  LEU140      0.0019
    183  CD1      -18.6360    8.2060  -16.7330 C.3   140  LEU140      0.0001
    184  CD2      -16.9110    9.1840  -18.2180 C.3   140  LEU140      0.0001
    185  N        -21.1990   12.0960  -13.5230 N.3   150  SER150     -0.1202
    186  CA       -20.4540   10.9590  -13.0280 C.3   150  SER150      0.2020
    187  C        -19.7780   11.3110  -11.7100 C.2   150  SER150      0.2618
    188  O        -19.4610   12.4710  -11.4490 O.2   150  SER150     -0.2717
    189  CB       -19.3810   10.6000  -14.0470 C.3   150  SER150      0.2103
    190  OG       -18.6320    9.5170  -13.6030 O.3   150  SER150     -0.2182
    191  N        -19.6050   10.2910  -10.8610 N.am  151  ASP151     -0.1973
    192  CA       -18.8560   10.4110   -9.5950 C.3   151  ASP151      0.1709
    193  C        -19.3790   11.5080   -8.6670 C.2   151  ASP151      0.2293
    194  O        -18.6160   12.1290   -7.9200 O.2   151  ASP151     -0.2864
    195  CB       -17.3520   10.5700   -9.8950 C.3   151  ASP151      0.1436
    196  CG       -16.6800    9.2670  -10.2660 C.2   151  ASP151      0.3671
    197  OD1      -17.1480    8.1800   -9.8500 O.co2 151  ASP151     -0.2456
    198  OD2      -15.6240    9.3300  -10.9020 O.co2 151  ASP151     -0.2456
    199  N        -18.3480   11.9730   -4.7810 N.3   154  LEU154     -0.1245
    200  CA       -17.2360   11.0730   -4.4970 C.3   154  LEU154      0.1561
    201  C        -16.1360   11.7550   -3.6970 C.2   154  LEU154      0.2260
    202  O        -15.4410   11.0910   -2.9230 O.2   154  LEU154     -0.2867
    203  CB       -16.6230   10.5270   -5.7930 C.3   154  LEU154      0.0270
    204  CG       -15.5460    9.4440   -5.6590 C.3   154  LEU154      0.0019
    205  CD1      -16.1430    8.1850   -5.0420 C.3   154  LEU154      0.0001
    206  CD2      -14.9380    9.1650   -7.0230 C.3   154  LEU154      0.0001
    207  N         -6.5050   17.0880   -2.6930 N.3   163  TYR163     -0.1241
    208  CA        -7.8040   17.1650   -3.3880 C.3   163  TYR163      0.1605
    209  C         -8.9080   17.8790   -2.6010 C.2   163  TYR163      0.2264
    210  O         -9.6900   18.6330   -3.1720 O.2   163  TYR163     -0.2867
    211  CB        -8.3210   15.7510   -3.6890 C.3   163  TYR163      0.0534
    212  CG        -8.2460   15.2780   -5.1340 C.ar  163  TYR163     -0.0201
    213  CD1       -9.1710   15.7080   -6.0790 C.ar  163  TYR163     -0.0009
    214  CD2       -7.2820   14.3630   -5.5320 C.ar  163  TYR163     -0.0009
    215  CE1       -9.1160   15.2600   -7.3870 C.ar  163  TYR163      0.0417
    216  CE2       -7.2190   13.9140   -6.8360 C.ar  163  TYR163      0.0417
    217  CZ        -8.1390   14.3640   -7.7600 C.ar  163  TYR163      0.1957
    218  OH        -8.0830   13.9160   -9.0600 O.3   163  TYR163     -0.2866
@<TRIPOS>BOND
     1   155   152    1
     2   154   153    2
     3   153   152    1
     4   152   151    1
     5   142   141    1
     6   151   145   am
     7   140   141   ar
     8   140   138   ar
     9   156   157    1
    10   141   139   ar
    11   163   162    2
    12   138   136   ar
    13   145   146    2
    14   145   144    1
    15   157   158    1
    16   139   137   ar
    17   159   158    2
    18   158   160   am
    19   162   161    1
    20     8     6    1
    21   160   161    1
    22   144   143    1
    23   144   147    1
    24   136   137   ar
    25   136   135    1
    26   134   133    2
    27   161   164    1
    28   179   180    2
    29   179   178    1
    30   143   133   am
    31   147   148    1
    32   150   149    1
    33   133   132    1
    34   164   165    1
    35   135   132    1
    36     4     3    2
    37     6     5    1
    38     6     7    1
    39     2     1    1
    40     2     5    1
    41     2     3    1
    42   149   148    1
    43   178   181    1
    44   178   177    1
    45     3     9   am
    46   132   131    1
    47   130   128   ar
    48   181   182    1
    49   131   124   am
    50   184   182    1
    51     9    10    1
    52   127   128    1
    53   127   126    1
    54   128   129   ar
    55   182   183    1
    56    10    11    1
    57   124   125    2
    58   124   123    1
    59   166   167    1
    60    58    57    2
    61   126   123    1
    62    62    63    1
    63   123   122    1
    64   167   170    1
    65   167   168    1
    66    11    13   am
    67    11    12    2
    68    63    66    1
    69    63    64    1
    70    13    14    1
    71    57    56    1
    72   106   104    1
    73   170   171    1
    74   168   169    2
    75    18    17    1
    76    60    59    1
    77   118   117    2
    78    59    56    1
    79    59    61    1
    80   122   117   am
    81    16    15    2
    82    17    14    1
    83    17    19    1
    84    64    65    2
    85    14    15    1
    86    56    55    1
    87   117   116    1
    88   101   104    1
    89   101   100    1
    90   101   102    1
    91   105   104    1
    92   171   172    1
    93   189   190    1
    94   189   186    1
    95    53    52    1
    96    15    20   am
    97    55    50   am
    98   120   119    1
    99   185   186    1
   100   102   103    2
   101   172   173    1
   102   175   174    1
   103   186   187    1
   104   116   119    1
   105   116   115    1
   106   119   121    1
   107    50    49    1
   108    50    51    2
   109    20    21    1
   110    52    49    1
   111    52    54    1
   112    49    48    1
   113    74    75    1
   114    74    73    1
   115   173   174    2
   116   174   176    1
   117    21    22    1
   118   187   188    2
   119   187   191   am
   120    72    73    1
   121    72    71    1
   122    67    68    1
   123    82    81    1
   124    82    83    1
   125    47    46    2
   126    68    71    1
   127    68    69    1
   128    48    46   am
   129   198   196   ar
   130   191   192    1
   131    46    45    1
   132    22    23    2
   133    22    24   am
   134    81    80    1
   135   110   109    2
   136   196   195    1
   137   196   197   ar
   138   195   192    1
   139    76    69   am
   140    76    77    1
   141    24    25    1
   142    69    70    2
   143   192   193    1
   144    80    77    1
   145   109   108    1
   146    45    44    1
   147   218   217    1
   148    77    78    1
   149    44    35   am
   150   193   194    2
   151    40    42   ar
   152    40    38   ar
   153    42    43   ar
   154    79    78    2
   155    25    28    1
   156    25    26    1
   157    29    28    1
   158    29    30    1
   159    31    30    2
   160    33    26   am
   161    33    34    1
   162   113   111    1
   163    78    84   am
   164   108   111    1
   165   108   107    1
   166   111   112    1
   167    37    38    1
   168    37    34    1
   169    38    39   ar
   170   217   215   ar
   171   217   216   ar
   172    35    34    1
   173    35    36    2
   174    30    32   am
   175    26    27    2
   176    43    41   ar
   177   215   213   ar
   178   206   204    1
   179   216   214   ar
   180    39    41   ar
   181   112   114    1
   182    84    85    1
   183   213   212   ar
   184    85    86    1
   185    85    88    1
   186   203   204    1
   187   203   200    1
   188   204   205    1
   189   214   212   ar
   190    86    87    2
   191   212   211    1
   192    89    88    1
   193    89    91    1
   194   199   200    1
   195    88    90    1
   196   200   201    1
   197   201   202    2
   198   211   208    1
   199   208   207    1
   200   208   209    1
   201   210   209    2
   202    98    99    1
   203    98    97    1
   204    97    96    1
   205    96    93    1
   206    92    93    1
   207    93    94    1
   208    94    95    2
