@<TRIPOS>MOLECULE
tmp/5u9eA00.pdb
 121 116 0 0 0
SMALL
GASTEIGER

@<TRIPOS>ATOM
      1  N         14.8400   78.7400   38.8820 N.3     5  LEU5       -0.1245
      2  CA        15.8430   77.7260   38.5940 C.3     5  LEU5        0.1561
      3  C         15.8330   77.3960   37.1070 C.2     5  LEU5        0.2260
      4  O         14.7660   77.2310   36.5020 O.2     5  LEU5       -0.2867
      5  CB        15.5880   76.4660   39.4280 C.3     5  LEU5        0.0270
      6  CG        15.5620   76.7140   40.9380 C.3     5  LEU5        0.0019
      7  CD1       15.3990   75.3990   41.6800 C.3     5  LEU5        0.0001
      8  CD2       16.8130   77.4690   41.4040 C.3     5  LEU5        0.0001
      9  N         20.7630   72.9960   35.7600 N.3    10  PHE10      -0.1241
     10  CA        20.4000   71.7780   36.4830 C.3    10  PHE10       0.1605
     11  C         20.4690   70.4780   35.6890 C.2    10  PHE10       0.2264
     12  O         20.3800   69.3970   36.2780 O.2    10  PHE10      -0.2867
     13  CB        19.0180   71.9200   37.1470 C.3    10  PHE10       0.0534
     14  CG        19.0450   72.7690   38.3790 C.ar   10  PHE10      -0.0203
     15  CD1       19.0330   72.1890   39.6380 C.ar   10  PHE10      -0.0042
     16  CD2       19.1330   74.1500   38.2810 C.ar   10  PHE10      -0.0042
     17  CE1       19.0820   72.9750   40.7780 C.ar   10  PHE10      -0.0003
     18  CE2       19.1850   74.9380   39.4160 C.ar   10  PHE10      -0.0003
     19  CZ        19.1600   74.3470   40.6650 C.ar   10  PHE10      -0.0000
     20  N         17.7380   65.2720   41.1870 N.3    21  ALA21      -0.1231
     21  CA        18.3710   66.4430   41.7990 C.3    21  ALA21       0.1694
     22  C         19.0280   66.1350   43.1390 C.2    21  ALA21       0.2592
     23  O         19.8780   66.8930   43.6120 O.2    21  ALA21      -0.2718
     24  CB        17.3700   67.5860   41.9410 C.3    21  ALA21       0.0304
     25  N         18.6420   65.0140   43.7400 N.am   22  ASP22      -0.1974
     26  CA        19.1430   64.6390   45.0560 C.3    22  ASP22       0.1709
     27  C         19.9470   63.3430   45.0090 C.2    22  ASP22       0.2293
     28  O         20.1890   62.7880   43.9370 O.2    22  ASP22      -0.2864
     29  CB        17.9780   64.5020   46.0390 C.3    22  ASP22       0.1436
     30  CG        17.0510   65.7040   46.0140 C.2    22  ASP22       0.3671
     31  OD1       17.1780   66.5760   46.9000 O.co2  22  ASP22      -0.2456
     32  OD2       16.2010   65.7750   45.1010 O.co2  22  ASP22      -0.2456
     33  N         14.6570   74.7840   51.1460 N.3    24  PHE24      -0.1241
     34  CA        14.9420   75.2970   49.8110 C.3    24  PHE24       0.1605
     35  C         14.1530   76.5900   49.6360 C.2    24  PHE24       0.2264
     36  O         12.9450   76.6220   49.8780 O.2    24  PHE24      -0.2867
     37  CB        14.5680   74.2890   48.7270 C.3    24  PHE24       0.0534
     38  CG        15.4690   74.3400   47.5250 C.ar   24  PHE24      -0.0203
     39  CD1       15.5030   75.4660   46.7160 C.ar   24  PHE24      -0.0042
     40  CD2       16.2830   73.2620   47.2040 C.ar   24  PHE24      -0.0042
     41  CE1       16.3360   75.5190   45.6110 C.ar   24  PHE24      -0.0003
     42  CE2       17.1140   73.3130   46.1020 C.ar   24  PHE24      -0.0003
     43  CZ        17.1380   74.4410   45.3020 C.ar   24  PHE24      -0.0000
     44  N         10.9870   79.4900   44.9520 N.3    27  HIS27      -0.1241
     45  CA        11.4530   79.5750   43.5730 C.3    27  HIS27       0.1621
     46  C         10.4320   79.0670   42.5680 C.2    27  HIS27       0.2264
     47  O          9.4880   78.3580   42.9230 O.2    27  HIS27      -0.2867
     48  CB        12.7420   78.7670   43.4100 C.3    27  HIS27       0.0745
     49  CG        12.5450   77.3000   43.6130 C.ar   27  HIS27       0.0817
     50  ND1       12.6280   76.7050   44.8530 N.ar   27  HIS27      -0.2268
     51  CD2       12.2290   76.3140   42.7410 C.ar   27  HIS27       0.1154
     52  CE1       12.3780   75.4120   44.7340 C.ar   27  HIS27       0.1986
     53  NE2       12.1490   75.1490   43.4630 N.ar   27  HIS27      -0.2212
     54  N         10.6010   77.7450   38.1000 N.3    29  HIS29      -0.1241
     55  CA        11.5220   76.9790   37.2610 C.3    29  HIS29       0.1621
     56  C         11.2690   77.2560   35.7900 C.2    29  HIS29       0.2264
     57  O         10.2980   77.9180   35.4320 O.2    29  HIS29      -0.2867
     58  CB        11.3560   75.4610   37.4670 C.3    29  HIS29       0.0745
     59  CG        10.9040   75.0470   38.8360 C.ar   29  HIS29       0.0817
     60  ND1        9.6390   75.3110   39.3190 N.ar   29  HIS29      -0.2268
     61  CD2       11.5310   74.3260   39.7990 C.ar   29  HIS29       0.1154
     62  CE1        9.5220   74.8090   40.5370 C.ar   29  HIS29       0.1986
     63  NE2       10.6580   74.2090   40.8530 N.ar   29  HIS29      -0.2212
     64  N         11.7150   74.2790   34.1230 N.3    31  PHE31      -0.1241
     65  CA        11.5510   72.8340   33.9380 C.3    31  PHE31       0.1605
     66  C         10.5160   72.3650   34.9520 C.2    31  PHE31       0.2264
     67  O         10.1700   73.1120   35.8600 O.2    31  PHE31      -0.2867
     68  CB        12.8820   72.0840   34.1410 C.3    31  PHE31       0.0534
     69  CG        13.5800   72.4120   35.4440 C.ar   31  PHE31      -0.0203
     70  CD1       13.2820   71.7050   36.6040 C.ar   31  PHE31      -0.0042
     71  CD2       14.5290   73.4260   35.5030 C.ar   31  PHE31      -0.0042
     72  CE1       13.9110   72.0000   37.8000 C.ar   31  PHE31      -0.0003
     73  CE2       15.1710   73.7340   36.7030 C.ar   31  PHE31      -0.0003
     74  CZ        14.8540   73.0100   37.8550 C.ar   31  PHE31      -0.0000
     75  N          9.0140   69.0150   37.6410 N.3    33  GLU33      -0.1245
     76  CA         9.6060   68.0040   38.5170 C.3    33  GLU33       0.1567
     77  C          8.5800   67.1860   39.2890 C.2    33  GLU33       0.2260
     78  O          7.4430   67.6210   39.5090 O.2    33  GLU33      -0.2867
     79  CB        10.6060   68.6450   39.4800 C.3    33  GLU33       0.0388
     80  CG         9.9450   69.5520   40.4740 C.3    33  GLU33       0.1160
     81  CD        10.9010   70.5450   41.0960 C.2    33  GLU33       0.3649
     82  OE1       12.0410   70.7060   40.6110 O.co2  33  GLU33      -0.2457
     83  OE2       10.4910   71.1700   42.0750 O.co2  33  GLU33      -0.2457
     84  N          7.3820   77.4330   44.8150 N.3    67  HIS67      -0.1241
     85  CA         7.3170   76.6100   46.0140 C.3    67  HIS67       0.1621
     86  C          8.5690   76.6800   46.8650 C.2    67  HIS67       0.2264
     87  O          9.6270   77.1100   46.4090 O.2    67  HIS67      -0.2867
     88  CB         6.8940   75.1440   45.6990 C.3    67  HIS67       0.0745
     89  CG         7.9150   74.3340   44.9460 C.ar   67  HIS67       0.0817
     90  ND1        7.8570   72.9570   44.8790 N.ar   67  HIS67      -0.2268
     91  CD2        9.0000   74.6950   44.2170 C.ar   67  HIS67       0.1154
     92  CE1        8.8650   72.5040   44.1550 C.ar   67  HIS67       0.1986
     93  NE2        9.5740   73.5390   43.7370 N.ar   67  HIS67      -0.2212
     94  N         10.3300   74.4990   50.5820 N.3    69  TYR69      -0.1241
     95  CA        10.1850   73.4100   51.5400 C.3    69  TYR69       0.1605
     96  C         10.9170   73.7710   52.8130 C.2    69  TYR69       0.2264
     97  O         11.9060   74.4990   52.7830 O.2    69  TYR69      -0.2867
     98  CB        10.7900   72.0810   51.0700 C.3    69  TYR69       0.0534
     99  CG        10.6920   71.6770   49.6240 C.ar   69  TYR69      -0.0201
    100  CD1       11.7350   71.9380   48.7470 C.ar   69  TYR69      -0.0009
    101  CD2        9.6100   70.9380   49.1570 C.ar   69  TYR69      -0.0009
    102  CE1       11.6800   71.5300   47.4250 C.ar   69  TYR69       0.0417
    103  CE2        9.5420   70.5190   47.8280 C.ar   69  TYR69       0.0417
    104  CZ        10.5830   70.8180   46.9640 C.ar   69  TYR69       0.1957
    105  OH        10.5360   70.4000   45.6430 O.3    69  TYR69      -0.2866
    106  N         13.7940   65.0630   44.3300 N.3    79  ASN79      -0.1240
    107  CA        13.1980   65.7270   43.1770 C.3    79  ASN79       0.1653
    108  C         13.7040   65.1280   41.8930 C.2    79  ASN79       0.2266
    109  O         14.9070   65.1300   41.6310 O.2    79  ASN79      -0.2867
    110  CB        13.5290   67.2150   43.1820 C.3    79  ASN79       0.1155
    111  CG        13.0020   67.9160   44.4060 C.2    79  ASN79       0.2627
    112  OD1       11.8320   68.2870   44.4660 O.2    79  ASN79      -0.2716
    113  ND2       13.8720   68.1320   45.3850 N.am   79  ASN79      -0.0877
    114  N         13.6910   65.8430   38.1980 N.3    81  ILE81      -0.1245
    115  CA        13.4150   67.0120   37.3800 C.3    81  ILE81       0.1561
    116  C         13.4270   66.5900   35.9250 C.2    81  ILE81       0.2260
    117  O         14.1640   65.6830   35.5440 O.2    81  ILE81      -0.2867
    118  CB        14.4370   68.1380   37.6400 C.3    81  ILE81       0.0252
    119  CG1       15.8460   67.7030   37.2270 C.3    81  ILE81       0.0019
    120  CG2       14.3750   68.5760   39.1360 C.3    81  ILE81       0.0019
    121  CD1       16.9440   68.8150   37.3680 C.3    81  ILE81       0.0001
@<TRIPOS>BOND
     1    65    64    1
     2    65    68    1
     3    65    66    1
     4    68    69    1
     5    66    67    2
     6    57    56    2
     7    69    71   ar
     8    69    70   ar
     9    71    73   ar
    10   117   116    2
    11    11    12    2
    12    11    10    1
    13     9    10    1
    14    56    55    1
    15   116   115    1
    16    10    13    1
    17     4     3    2
    18    70    72   ar
    19    73    74   ar
    20     3     2    1
    21    13    14    1
    22   119   121    1
    23   119   118    1
    24    55    58    1
    25    55    54    1
    26   115   118    1
    27   115   114    1
    28    58    59    1
    29   118   120    1
    30    75    76    1
    31    72    74   ar
    32    16    14   ar
    33    16    18   ar
    34    14    15   ar
    35    76    77    1
    36    76    79    1
    37     2     1    1
    38     2     5    1
    39    59    60   ar
    40    59    61   ar
    41    77    78    2
    42    60    62   ar
    43    18    19   ar
    44     5     6    1
    45    79    80    1
    46    15    17   ar
    47    61    63   ar
    48    80    81    1
    49    62    63   ar
    50    82    81   ar
    51    19    17   ar
    52     6     8    1
    53     6     7    1
    54    81    83   ar
    55    20    21    1
    56   109   108    2
    57    21    24    1
    58    21    22    1
    59   108   107    1
    60    46    47    2
    61    46    45    1
    62    51    53   ar
    63    51    49   ar
    64    22    23    2
    65    22    25   am
    66   107   110    1
    67   107   106    1
    68   110   111    1
    69    48    45    1
    70    48    49    1
    71    53    52   ar
    72    45    44    1
    73    49    50   ar
    74    93    92   ar
    75    93    91   ar
    76    25    26    1
    77    28    27    2
    78    92    90   ar
    79    91    89   ar
    80   111   112    2
    81   111   113   am
    82    52    50   ar
    83    84    85    1
    84    90    89   ar
    85    89    88    1
    86    27    26    1
    87    26    29    1
    88    32    30   ar
    89    43    41   ar
    90    43    42   ar
    91    41    39   ar
    92   105   104    1
    93    88    85    1
    94    85    86    1
    95    30    29    1
    96    30    31   ar
    97    42    40   ar
    98    87    86    2
    99    39    38   ar
   100   104   102   ar
   101   104   103   ar
   102    40    38   ar
   103   102   100   ar
   104    38    37    1
   105   103   101   ar
   106    37    34    1
   107   100    99   ar
   108   101    99   ar
   109    99    98    1
   110    35    34    1
   111    35    36    2
   112    34    33    1
   113    94    95    1
   114    98    95    1
   115    95    96    1
   116    97    96    2
