@<TRIPOS>MOLECULE
tmp/5u9jB00.pdb
 165 157 0 0 0
SMALL
GASTEIGER

@<TRIPOS>ATOM
      1  N          5.3840    2.0510   44.1130 N.3     5  VAL5       -0.1245
      2  CA         5.8400    1.1310   43.0790 C.3     5  VAL5        0.1561
      3  C          4.7270    0.8990   42.0690 C.2     5  VAL5        0.2260
      4  O          3.7230    0.2570   42.3850 O.2     5  VAL5       -0.2867
      5  CB         6.3100   -0.2020   43.6560 C.3     5  VAL5        0.0252
      6  CG1        6.6490   -1.1340   42.5430 C.3     5  VAL5        0.0019
      7  CG2        7.5140    0.0160   44.5090 C.3     5  VAL5        0.0019
      8  N         17.4780  -13.8620   36.1980 N.3    28  PHE28      -0.1241
      9  CA        16.7910  -12.7680   35.5250 C.3    28  PHE28       0.1605
     10  C         17.7810  -11.7800   34.9070 C.2    28  PHE28       0.2264
     11  O         18.9670  -11.7540   35.2220 O.2    28  PHE28      -0.2867
     12  CB        15.8490  -12.0450   36.5070 C.3    28  PHE28       0.0534
     13  CG        16.5630  -11.3520   37.5720 C.ar   28  PHE28      -0.0203
     14  CD1       17.0820  -12.0640   38.6380 C.ar   28  PHE28      -0.0042
     15  CD2       16.7160   -9.9860   37.5380 C.ar   28  PHE28      -0.0042
     16  CE1       17.7740  -11.4260   39.6530 C.ar   28  PHE28      -0.0003
     17  CE2       17.4220   -9.3270   38.5720 C.ar   28  PHE28      -0.0003
     18  CZ        17.9210  -10.0540   39.6250 C.ar   28  PHE28      -0.0000
     19  N         17.9450   -7.5210   34.0730 N.3    30  PHE30      -0.1241
     20  CA        17.3320   -6.3130   34.5630 C.3    30  PHE30       0.1605
     21  C         18.0500   -5.1570   33.9250 C.2    30  PHE30       0.2264
     22  O         19.2310   -5.2470   33.5730 O.2    30  PHE30      -0.2867
     23  CB        17.3970   -6.2290   36.0860 C.3    30  PHE30       0.0534
     24  CG        18.7540   -5.7990   36.6270 C.ar   30  PHE30      -0.0203
     25  CD1       19.7530   -6.7290   36.8520 C.ar   30  PHE30      -0.0042
     26  CD2       19.0030   -4.4840   36.9440 C.ar   30  PHE30      -0.0042
     27  CE1       20.9650   -6.3400   37.3480 C.ar   30  PHE30      -0.0003
     28  CE2       20.2220   -4.0980   37.4350 C.ar   30  PHE30      -0.0003
     29  CZ        21.2030   -5.0240   37.6420 C.ar   30  PHE30      -0.0000
     30  N         21.5510  -12.2410   35.9690 N.3    52  MET52      -0.1245
     31  CA        21.6010  -12.3310   37.4290 C.3    52  MET52       0.1570
     32  C         20.8600  -13.5710   37.9230 C.2    52  MET52       0.2261
     33  O         19.9020  -14.0290   37.3160 O.2    52  MET52      -0.2867
     34  CB        20.9870  -11.0780   38.0740 C.3    52  MET52       0.0387
     35  CG        21.5940   -9.7720   37.6110 C.3    52  MET52       0.0595
     36  SD        23.2330   -9.5260   38.3020 S.3    52  MET52      -0.1393
     37  CE        24.1870   -9.1570   36.8240 C.3    52  MET52       0.0692
     38  N         19.5620  -15.0310   41.8150 N.3    54  ILE54      -0.1245
     39  CA        19.5160  -14.8090   43.2410 C.3    54  ILE54       0.1561
     40  C         18.7600  -15.9620   43.8770 C.2    54  ILE54       0.2260
     41  O         18.0930  -16.7630   43.2110 O.2    54  ILE54      -0.2867
     42  CB        18.9000  -13.4410   43.6030 C.3    54  ILE54       0.0252
     43  CG1       17.4600  -13.2970   43.1080 C.3    54  ILE54       0.0019
     44  CG2       19.7430  -12.3170   43.0250 C.3    54  ILE54       0.0019
     45  CD1       16.4420  -13.6270   44.1930 C.3    54  ILE54       0.0001
     46  N         13.6010   -5.9780   48.8070 N.3    64  VAL64      -0.1231
     47  CA        12.8880   -5.0870   47.9090 C.3    64  VAL64       0.1692
     48  C         12.8620   -5.6590   46.4920 C.2    64  VAL64       0.2592
     49  O         11.8190   -5.6490   45.8320 O.2    64  VAL64      -0.2718
     50  CB        13.5540   -3.6930   47.9430 C.3    64  VAL64       0.0266
     51  CG1       13.3840   -3.0320   49.3360 C.3    64  VAL64       0.0020
     52  CG2       15.0400   -3.8200   47.6150 C.3    64  VAL64       0.0020
     53  N         13.9940   -6.1640   46.0060 N.am   65  TRP65      -0.1976
     54  CA        14.0210   -6.7520   44.6620 C.3    65  TRP65       0.1640
     55  C         13.2920   -8.0820   44.5780 C.2    65  TRP65       0.2290
     56  O         12.8020   -8.4540   43.4910 O.2    65  TRP65      -0.2864
     57  CB        15.4580   -6.9440   44.1740 C.3    65  TRP65       0.0576
     58  CG        16.3190   -7.7720   45.0580 C.ar   65  TRP65       0.0006
     59  CD1       16.5520   -9.1010   44.9560 C.ar   65  TRP65       0.0946
     60  CD2       17.1030   -7.3080   46.1360 C.ar   65  TRP65       0.0152
     61  NE1       17.4270   -9.5000   45.9030 N.ar   65  TRP65      -0.2442
     62  CE2       17.7770   -8.4120   46.6580 C.ar   65  TRP65       0.0810
     63  CE3       17.2980   -6.0520   46.7210 C.ar   65  TRP65       0.0012
     64  CZ2       18.6220   -8.3140   47.7560 C.ar   65  TRP65       0.0191
     65  CZ3       18.1450   -5.9490   47.7860 C.ar   65  TRP65       0.0001
     66  CH2       18.7930   -7.0730   48.3040 C.ar   65  TRP65       0.0015
     67  N          9.6830   -7.4860   43.8800 N.3    68  LEU68      -0.1245
     68  CA         9.4320   -7.3760   42.4530 C.3    68  LEU68       0.1561
     69  C          9.4430   -8.7380   41.7940 C.2    68  LEU68       0.2260
     70  O          8.5050   -9.0870   41.0700 O.2    68  LEU68      -0.2867
     71  CB        10.4480   -6.4370   41.8110 C.3    68  LEU68       0.0270
     72  CG        10.6060   -5.0480   42.4440 C.3    68  LEU68       0.0019
     73  CD1       11.3180   -4.1880   41.4600 C.3    68  LEU68       0.0001
     74  CD2        9.3110   -4.3750   42.9900 C.3    68  LEU68       0.0001
     75  N          9.8350    3.0750   40.6910 N.3    82  CYS82      -0.1235
     76  CA        10.0130    3.0860   42.1400 C.3    82  CYS82       0.1677
     77  C         10.3220    4.4840   42.6450 C.2    82  CYS82       0.2270
     78  O         11.2920    5.1030   42.2070 O.2    82  CYS82      -0.2867
     79  CB        11.1260    2.1220   42.5610 C.3    82  CYS82       0.0956
     80  SG        10.8000    0.4330   42.1040 S.3    82  CYS82      -0.0801
     81  N         12.0780    4.2020   47.7970 N.3    86  HIS86      -0.1226
     82  CA        12.6010    2.8490   47.6400 C.3    86  HIS86       0.1752
     83  C         14.0280    2.7680   47.0670 C.2    86  HIS86       0.2596
     84  O         14.6330    1.7110   47.1570 O.2    86  HIS86      -0.2718
     85  CB        11.6600    2.0030   46.7700 C.3    86  HIS86       0.0759
     86  CG        10.2660    1.9080   47.3040 C.ar   86  HIS86       0.0818
     87  ND1        9.9510    1.1900   48.4410 N.ar   86  HIS86      -0.2268
     88  CD2        9.0910    2.3720   46.8130 C.ar   86  HIS86       0.1154
     89  CE1        8.6490    1.2690   48.6580 C.ar   86  HIS86       0.1986
     90  NE2        8.1050    1.9800   47.6850 N.ar   86  HIS86      -0.2212
     91  N         14.6210    3.8400   46.5500 N.am   87  THR87      -0.1953
     92  CA        15.8020    3.7110   45.7210 C.3    87  THR87       0.1897
     93  C         17.1020    4.1860   46.3590 C.2    87  THR87       0.2313
     94  O         18.1580    4.0920   45.7080 O.2    87  THR87      -0.2863
     95  CB        15.6050    4.4630   44.4170 C.3    87  THR87       0.1794
     96  OG1       15.4440    5.8600   44.6950 O.3    87  THR87      -0.2208
     97  CG2       14.3870    3.9220   43.7100 C.3    87  THR87       0.0378
     98  N         18.9500    2.8250   48.4590 N.3    89  VAL89      -0.1231
     99  CA        19.8850    1.7100   48.4920 C.3    89  VAL89       0.1692
    100  C         20.4600    1.3680   47.1300 C.2    89  VAL89       0.2592
    101  O         21.4170    0.5800   47.0590 O.2    89  VAL89      -0.2718
    102  CB        19.2050    0.4500   49.0520 C.3    89  VAL89       0.0266
    103  CG1       18.0330    0.0160   48.1850 C.3    89  VAL89       0.0020
    104  CG2       20.2370   -0.6840   49.2350 C.3    89  VAL89       0.0020
    105  N         19.8950    1.8910   46.0400 N.am   90  TYR90      -0.1976
    106  CA        20.3060    1.3450   44.7490 C.3    90  TYR90       0.1639
    107  C         21.7760    1.6220   44.4450 C.2    90  TYR90       0.2290
    108  O         22.4460    0.7110   43.9320 O.2    90  TYR90      -0.2864
    109  CB        19.4110    1.8410   43.6090 C.3    90  TYR90       0.0560
    110  CG        19.8840    1.1550   42.3470 C.ar   90  TYR90      -0.0198
    111  CD1       19.5230   -0.1480   42.1110 C.ar   90  TYR90      -0.0009
    112  CD2       20.7860    1.7470   41.4740 C.ar   90  TYR90      -0.0009
    113  CE1       19.9780   -0.8280   40.9950 C.ar   90  TYR90       0.0417
    114  CE2       21.2580    1.0350   40.3110 C.ar   90  TYR90       0.0417
    115  CZ        20.8300   -0.2430   40.1100 C.ar   90  TYR90       0.1957
    116  OH        21.2200   -1.0510   39.0670 O.3    90  TYR90      -0.2866
    117  N         23.9150   -0.9760   46.2800 N.3    93  LEU93      -0.1245
    118  CA        23.5680   -2.2430   45.6460 C.3    93  LEU93       0.1561
    119  C         24.2510   -2.4160   44.2900 C.2    93  LEU93       0.2260
    120  O         24.7610   -3.5020   43.9880 O.2    93  LEU93      -0.2867
    121  CB        22.0580   -2.3410   45.4770 C.3    93  LEU93       0.0270
    122  CG        21.6790   -3.6010   44.7130 C.3    93  LEU93       0.0019
    123  CD1       21.9100   -4.7930   45.5680 C.3    93  LEU93       0.0001
    124  CD2       20.2310   -3.5620   44.3140 C.3    93  LEU93       0.0001
    125  N         28.0380   -2.9820   44.4750 N.3    96  SER96      -0.1202
    126  CA        28.4600   -4.3300   44.8520 C.3    96  SER96       0.2020
    127  C         28.2720   -5.3200   43.6910 C.2    96  SER96       0.2618
    128  O         29.1040   -6.2120   43.4890 O.2    96  SER96      -0.2717
    129  CB        27.7210   -4.7860   46.1280 C.3    96  SER96       0.2103
    130  OG        26.3690   -5.1760   45.8740 O.3    96  SER96      -0.2182
    131  N         27.1900   -5.1860   42.9200 N.am   97  LEU97      -0.1979
    132  CA        27.0590   -5.9530   41.6850 C.3    97  LEU97       0.1596
    133  C         28.2260   -5.6780   40.7480 C.2    97  LEU97       0.2287
    134  O         28.8450   -6.5980   40.2100 O.2    97  LEU97      -0.2864
    135  CB        25.7650   -5.5780   40.9890 C.3    97  LEU97       0.0297
    136  CG        24.4840   -5.8650   41.7220 C.3    97  LEU97       0.0022
    137  CD1       23.3930   -5.1610   40.9890 C.3    97  LEU97       0.0001
    138  CD2       24.2650   -7.3510   41.7360 C.3    97  LEU97       0.0001
    139  N         31.3160   -7.4920   41.9180 N.3   100  MET100     -0.1245
    140  CA        31.2570   -8.9320   41.7070 C.3   100  MET100      0.1570
    141  C         31.3970   -9.2960   40.2280 C.2   100  MET100      0.2261
    142  O         32.1020  -10.2470   39.8910 O.2   100  MET100     -0.2867
    143  CB        29.9670   -9.4820   42.2880 C.3   100  MET100      0.0387
    144  CG        29.9540   -9.4010   43.8000 C.3   100  MET100      0.0595
    145  SD        28.4330   -9.9920   44.5140 S.3   100  MET100     -0.1393
    146  CE        27.3130   -8.7230   43.9910 C.3   100  MET100      0.0692
    147  N         12.9340    0.1420   36.8840 N.3   142  PHE142     -0.1241
    148  CA        13.6280   -1.1140   36.6710 C.3   142  PHE142      0.1605
    149  C         12.8210   -1.9240   35.6700 C.2   142  PHE142      0.2264
    150  O         11.5900   -2.0080   35.7930 O.2   142  PHE142     -0.2867
    151  CB        13.7910   -1.8570   37.9920 C.3   142  PHE142      0.0534
    152  CG        14.5140   -1.0580   39.0650 C.ar  142  PHE142     -0.0203
    153  CD1       15.9140   -0.9810   39.0780 C.ar  142  PHE142     -0.0042
    154  CD2       13.7850   -0.3960   40.0660 C.ar  142  PHE142     -0.0042
    155  CE1       16.5900   -0.2730   40.0860 C.ar  142  PHE142     -0.0003
    156  CE2       14.4480    0.3330   41.0720 C.ar  142  PHE142     -0.0003
    157  CZ        15.8470    0.3910   41.0950 C.ar  142  PHE142     -0.0000
    158  N         12.6900   -5.6740   34.2870 N.3   144  ILE144     -0.1245
    159  CA        13.1550   -6.9840   34.6840 C.3   144  ILE144      0.1561
    160  C         12.5390   -7.9790   33.7470 C.2   144  ILE144      0.2260
    161  O         11.3470   -7.8670   33.4160 O.2   144  ILE144     -0.2867
    162  CB        12.7560   -7.3430   36.1420 C.3   144  ILE144      0.0252
    163  CG1       13.4000   -6.3680   37.1240 C.3   144  ILE144      0.0019
    164  CG2       13.0930   -8.7470   36.4440 C.3   144  ILE144      0.0019
    165  CD1       13.0280   -6.6720   38.6260 C.3   144  ILE144      0.0001
@<TRIPOS>BOND
     1   161   160    2
     2    22    21    2
     3   160   159    1
     4    21    20    1
     5    19    20    1
     6   158   159    1
     7    20    23    1
     8   159   162    1
     9    10    11    2
    10    10     9    1
    11     9     8    1
    12     9    12    1
    13   149   150    2
    14   149   148    1
    15    30    31    1
    16    23    24    1
    17   162   164    1
    18   162   163    1
    19    12    13    1
    20    24    25   ar
    21    24    26   ar
    22   148   147    1
    23   148   151    1
    24    37    36    1
    25    25    27   ar
    26    26    28   ar
    27   163   165    1
    28    33    32    2
    29    27    29   ar
    30    31    32    1
    31    31    34    1
    32    28    29   ar
    33    15    13   ar
    34    15    17   ar
    35    13    14   ar
    36    35    34    1
    37    35    36    1
    38   151   152    1
    39    17    18   ar
    40    14    16   ar
    41   152   153   ar
    42   152   154   ar
    43   116   115    1
    44   153   155   ar
    45    18    16   ar
    46   142   141    2
    47   154   156   ar
    48   155   157   ar
    49   115   114   ar
    50   115   113   ar
    51   134   133    2
    52   141   140    1
    53   114   112   ar
    54    75    76    1
    55   133   132    1
    56   137   136    1
    57   135   132    1
    58   135   136    1
    59   113   111   ar
    60    70    69    2
    61   156   157   ar
    62    73    72    1
    63   112   110   ar
    64   132   131    1
    65   140   139    1
    66   140   143    1
    67   136   138    1
    68    69    68    1
    69    71    72    1
    70    71    68    1
    71    38    39    1
    72     3     4    2
    73     3     2    1
    74    80    79    1
    75   111   110   ar
    76    76    79    1
    77    76    77    1
    78    78    77    2
    79   143   144    1
    80   110   109    1
    81    72    74    1
    82    68    67    1
    83     6     5    1
    84   131   127   am
    85    44    42    1
    86     2     5    1
    87     2     1    1
    88    43    42    1
    89    43    45    1
    90    41    40    2
    91    39    42    1
    92    39    40    1
    93   128   127    2
    94    56    55    2
    95   109   106    1
    96     5     7    1
    97   127   126    1
    98    97    95    1
    99   144   145    1
   100   108   107    2
   101   120   119    2
   102   146   145    1
   103    57    54    1
   104    57    58    1
   105   119   118    1
   106   124   122    1
   107    95    96    1
   108    95    92    1
   109   107   106    1
   110   125   126    1
   111    55    54    1
   112    54    53    1
   113   122   121    1
   114   122   123    1
   115   106   105    1
   116   126   129    1
   117    59    58   ar
   118    59    61   ar
   119    58    60   ar
   120   121   118    1
   121   118   117    1
   122    94    93    2
   123    92    93    1
   124    92    91    1
   125    49    48    2
   126   130   129    1
   127    61    62   ar
   128    53    48   am
   129   105   100   am
   130    60    62   ar
   131    60    63   ar
   132    48    47    1
   133    91    83   am
   134    62    64   ar
   135    63    65   ar
   136    85    86    1
   137    85    82    1
   138    88    86   ar
   139    88    90   ar
   140   101   100    2
   141    83    84    2
   142    83    82    1
   143   100    99    1
   144    86    87   ar
   145    52    50    1
   146    82    81    1
   147    90    89   ar
   148    64    66   ar
   149    65    66   ar
   150    47    50    1
   151    47    46    1
   152    50    51    1
   153   103   102    1
   154    87    89   ar
   155    98    99    1
   156    99   102    1
   157   102   104    1
