@<TRIPOS>MOLECULE
tmp/5u9nA00.pdb
 172 169 0 0 0
SMALL
GASTEIGER

@<TRIPOS>ATOM
      1  N         -2.0280  211.6250  214.1090 N.3    24  PHE24      -0.1227
      2  CA        -0.6330  211.5130  214.5600 C.3    24  PHE24       0.1736
      3  C          0.2990  211.1110  213.3910 C.2    24  PHE24       0.2595
      4  O          1.4780  211.4610  213.4080 O.2    24  PHE24      -0.2718
      5  CB        -0.5040  210.4890  215.7240 C.3    24  PHE24       0.0547
      6  CG        -0.7230  209.0420  215.3330 C.ar   24  PHE24      -0.0202
      7  CD1        0.3320  208.2560  214.9030 C.ar   24  PHE24      -0.0042
      8  CD2       -1.9780  208.4670  215.4120 C.ar   24  PHE24      -0.0042
      9  CE1        0.1250  206.9280  214.5250 C.ar   24  PHE24      -0.0003
     10  CE2       -2.1900  207.1570  214.9890 C.ar   24  PHE24      -0.0003
     11  CZ        -1.1380  206.3960  214.5460 C.ar   24  PHE24      -0.0000
     12  N         -0.2330  210.3860  212.3790 N.am   25  LEU25      -0.1966
     13  CA         0.5710  209.9430  211.2270 C.3    25  LEU25       0.1728
     14  C          1.2270  211.1060  210.5040 C.2    25  LEU25       0.2616
     15  O          2.3780  211.0060  210.0950 O.2    25  LEU25      -0.2715
     16  CB        -0.3010  209.1650  210.2190 C.3    25  LEU25       0.0311
     17  CG        -0.8500  207.7910  210.6760 C.3    25  LEU25       0.0022
     18  CD1       -1.8350  207.2310  209.6470 C.3    25  LEU25       0.0001
     19  CD2        0.2730  206.8000  210.9010 C.3    25  LEU25       0.0001
     20  N          0.5050  212.2180  210.3730 N.am   26  PHE26      -0.1974
     21  CA         0.9260  213.3510  209.5790 C.3    26  PHE26       0.1639
     22  C          1.4310  214.5320  210.4010 C.2    26  PHE26       0.2290
     23  O          1.6540  215.6110  209.8280 O.2    26  PHE26      -0.2864
     24  CB        -0.2610  213.8120  208.7460 C.3    26  PHE26       0.0560
     25  CG        -1.0900  212.6740  208.2050 C.ar   26  PHE26      -0.0200
     26  CD1       -0.6080  211.8680  207.1850 C.ar   26  PHE26      -0.0042
     27  CD2       -2.3150  212.3560  208.7730 C.ar   26  PHE26      -0.0042
     28  CE1       -1.3710  210.8230  206.6830 C.ar   26  PHE26      -0.0003
     29  CE2       -3.0880  211.3110  208.2610 C.ar   26  PHE26      -0.0003
     30  CZ        -2.6130  210.5570  207.2110 C.ar   26  PHE26      -0.0000
     31  N          4.3700  214.8950  212.5820 N.3    28  ASN28      -0.1226
     32  CA         5.8010  215.1820  212.5490 C.3    28  ASN28       0.1770
     33  C          6.4560  214.5020  211.3560 C.2    28  ASN28       0.2439
     34  O          5.8800  213.5670  210.7960 O.2    28  ASN28      -0.2733
     35  CB         6.4570  214.7230  213.8600 C.3    28  ASN28       0.1168
     36  CG         5.7850  215.3160  215.0780 C.2    28  ASN28       0.2627
     37  OD1        5.6800  216.5470  215.2210 O.2    28  ASN28      -0.2716
     38  ND2        5.2450  214.4640  215.9440 N.am   28  ASN28      -0.0877
     39  N          7.6810  214.9350  210.9610 N.am   29  PRO29      -0.2718
     40  CA         8.3330  214.3130  209.7950 C.3    29  PRO29       0.1535
     41  C          8.5820  212.8180  209.9630 C.2    29  PRO29       0.2598
     42  O          9.1330  212.3870  210.9760 O.2    29  PRO29      -0.2715
     43  CB         9.6590  215.0800  209.6710 C.3    29  PRO29       0.0310
     44  CG         9.4200  216.3710  210.3620 C.3    29  PRO29       0.0237
     45  CD         8.4870  216.0540  211.4940 C.3    29  PRO29       0.0939
     46  N          8.1980  212.0310  208.9400 N.am   30  VAL30      -0.1978
     47  CA         8.4080  210.5770  208.9320 C.3    30  VAL30       0.1596
     48  C          9.9090  210.2310  208.9300 C.2    30  VAL30       0.2287
     49  O         10.2950  209.2330  209.5340 O.2    30  VAL30      -0.2864
     50  CB         7.6930  209.8630  207.7410 C.3    30  VAL30       0.0276
     51  CG1        6.1830  209.9290  207.8850 C.3    30  VAL30       0.0022
     52  CG2        8.1200  210.4240  206.3940 C.3    30  VAL30       0.0022
     53  N         11.3050  210.2930  212.3960 N.3    33  SER33      -0.1217
     54  CA        10.6080  209.4100  213.3310 C.3    33  SER33       0.1889
     55  C         11.4820  208.2420  213.8040 C.2    33  SER33       0.2288
     56  O         11.9810  207.4630  212.9880 O.2    33  SER33      -0.2866
     57  CB         9.3340  208.8610  212.6940 C.3    33  SER33       0.2089
     58  OG         8.5250  208.2040  213.6560 O.3    33  SER33      -0.2183
     59  N         10.0320  205.9210  215.5590 N.3    35  ASP35      -0.1225
     60  CA         9.0380  204.8440  215.5630 C.3    35  ASP35       0.1805
     61  C          9.2480  203.9110  214.3640 C.2    35  ASP35       0.2597
     62  O          9.2660  202.6890  214.5380 O.2    35  ASP35      -0.2718
     63  CB         7.6040  205.4220  215.5550 C.3    35  ASP35       0.1424
     64  CG         7.2810  206.2690  216.7900 C.2    35  ASP35       0.3668
     65  OD1        6.8390  205.6860  217.8190 O.co2  35  ASP35      -0.2456
     66  OD2        7.4400  207.5140  216.7180 O.co2  35  ASP35      -0.2456
     67  N          9.4910  204.4790  213.1760 N.am   36  LEU36      -0.1979
     68  CA         9.7350  203.6820  211.9720 C.3    36  LEU36       0.1596
     69  C         11.1720  203.1340  211.9760 C.2    36  LEU36       0.2287
     70  O         12.0360  203.6710  212.6790 O.2    36  LEU36      -0.2864
     71  CB         9.5110  204.5300  210.7120 C.3    36  LEU36       0.0297
     72  CG         8.0480  204.8860  210.3850 C.3    36  LEU36       0.0022
     73  CD1        7.6800  206.2590  210.9150 C.3    36  LEU36       0.0001
     74  CD2        7.8000  204.8400  208.8750 C.3    36  LEU36       0.0001
     75  N         12.5680  201.0920  206.2270 N.3    40  THR40      -0.1218
     76  CA        11.3680  201.7360  205.6970 C.3    40  THR40       0.1862
     77  C         11.6320  203.2360  205.3800 C.2    40  THR40       0.2287
     78  O         11.1110  203.7450  204.3910 O.2    40  THR40      -0.2866
     79  CB        10.2010  201.5760  206.7060 C.3    40  THR40       0.1770
     80  OG1       10.6320  202.0140  207.9960 O.3    40  THR40      -0.2211
     81  CG2        9.7080  200.1350  206.8080 C.3    40  THR40       0.0375
     82  N         13.6120  203.5290  202.0400 N.3    43  ARG43      -0.1231
     83  CA        12.7620  203.3200  200.8740 C.3    43  ARG43       0.1694
     84  C         11.9090  204.5740  200.6580 C.2    43  ARG43       0.2592
     85  O         11.6690  204.9490  199.5180 O.2    43  ARG43      -0.2718
     86  CB        11.8660  202.0640  201.0420 C.3    43  ARG43       0.0321
     87  CG        11.0250  201.7500  199.7810 C.3    43  ARG43       0.0489
     88  CD        10.1790  200.4830  199.8970 C.3    43  ARG43       0.2205
     89  NE         9.0870  200.6110  200.8770 N.pl3  43  ARG43      -0.0865
     90  CZ         9.1420  200.2150  202.1550 C.cat  43  ARG43       0.5346
     91  NH1        8.0900  200.3720  202.9510 N.pl3  43  ARG43       0.1354
     92  NH2       10.2540  199.6690  202.6470 N.pl3  43  ARG43       0.1354
     93  N         11.5220  205.2570  201.7540 N.am   44  TYR44      -0.1976
     94  CA        10.7110  206.4810  201.6940 C.3    44  TYR44       0.1639
     95  C         11.4090  207.5950  200.9090 C.2    44  TYR44       0.2290
     96  O         10.7520  208.2880  200.1480 O.2    44  TYR44      -0.2864
     97  CB        10.3810  206.9860  203.1070 C.3    44  TYR44       0.0560
     98  CG         9.2640  208.0050  203.1250 C.ar   44  TYR44      -0.0198
     99  CD1        7.9370  207.6090  203.2030 C.ar   44  TYR44      -0.0009
    100  CD2        9.5340  209.3670  203.0750 C.ar   44  TYR44      -0.0009
    101  CE1        6.9080  208.5360  203.2280 C.ar   44  TYR44       0.0417
    102  CE2        8.5070  210.3060  203.0680 C.ar   44  TYR44       0.0417
    103  CZ         7.1920  209.8840  203.1320 C.ar   44  TYR44       0.1957
    104  OH         6.1580  210.7920  203.1720 O.3    44  TYR44      -0.2866
    105  N          1.0000  216.0540  201.7580 N.3    81  ILE81      -0.1245
    106  CA         1.0460  215.1440  202.9120 C.3    81  ILE81       0.1561
    107  C          0.2130  213.8960  202.6190 C.2    81  ILE81       0.2260
    108  O          0.6450  212.7940  202.8960 O.2    81  ILE81      -0.2867
    109  CB         0.5120  215.8760  204.1950 C.3    81  ILE81       0.0252
    110  CG1        1.4810  216.9740  204.6390 C.3    81  ILE81       0.0019
    111  CG2        0.2700  214.8920  205.3700 C.3    81  ILE81       0.0019
    112  CD1        0.9390  217.8730  205.7540 C.3    81  ILE81       0.0001
    113  N          1.5200  209.9110  201.3460 N.3    85  CYS85      -0.1235
    114  CA         1.0640  208.7840  202.1320 C.3    85  CYS85       0.1677
    115  C          0.3200  207.7780  201.2530 C.2    85  CYS85       0.2270
    116  O          0.4850  206.5830  201.4280 O.2    85  CYS85      -0.2867
    117  CB         0.1880  209.2630  203.2830 C.3    85  CYS85       0.0956
    118  SG        -0.4370  207.9360  204.3250 S.3    85  CYS85      -0.0801
    119  N          3.0560  205.9870  198.9840 N.3    88  PHE88      -0.1227
    120  CA         3.9700  205.1140  199.7050 C.3    88  PHE88       0.1736
    121  C          3.2790  203.8800  200.3060 C.2    88  PHE88       0.2595
    122  O          3.9210  202.8300  200.4230 O.2    88  PHE88      -0.2718
    123  CB         4.6760  205.9050  200.8310 C.3    88  PHE88       0.0547
    124  CG         5.8210  205.1620  201.4990 C.ar   88  PHE88      -0.0202
    125  CD1        7.0040  204.9160  200.8150 C.ar   88  PHE88      -0.0042
    126  CD2        5.7080  204.7070  202.8060 C.ar   88  PHE88      -0.0042
    127  CE1        8.0490  204.1970  201.4160 C.ar   88  PHE88      -0.0003
    128  CE2        6.7440  203.9850  203.4040 C.ar   88  PHE88      -0.0003
    129  CZ         7.9180  203.7430  202.7080 C.ar   88  PHE88      -0.0000
    130  N          2.0200  203.9990  200.7460 N.am   89  ASN89      -0.1961
    131  CA         1.3700  202.8880  201.4590 C.3    89  ASN89       0.1804
    132  C          0.3250  202.2350  200.5900 C.2    89  ASN89       0.2463
    133  O         -0.2730  202.9010  199.7420 O.2    89  ASN89      -0.2730
    134  CB         0.7510  203.3740  202.7870 C.3    89  ASN89       0.1195
    135  CG         1.7460  204.1080  203.6730 C.2    89  ASN89       0.2630
    136  OD1        2.5210  203.5080  204.3950 O.2    89  ASN89      -0.2716
    137  ND2        1.7990  205.4140  203.5700 N.am   89  ASN89      -0.0877
    138  N          0.1160  200.9000  200.7490 N.am   90  PRO90      -0.2727
    139  CA        -0.8390  200.1980  199.8770 C.3    90  PRO90       0.1402
    140  C         -2.2830  200.3990  200.3250 C.2    90  PRO90       0.2269
    141  O         -2.5410  200.6390  201.5060 O.2    90  PRO90      -0.2865
    142  CB        -0.4080  198.7380  200.0130 C.3    90  PRO90       0.0296
    143  CG         0.0870  198.6310  201.4100 C.3    90  PRO90       0.0237
    144  CD         0.7640  199.9560  201.7000 C.3    90  PRO90       0.0939
    145  N         -2.2450  196.5750  206.5880 N.3    95  CYS95      -0.1235
    146  CA        -1.9160  197.9410  206.9790 C.3    95  CYS95       0.1677
    147  C         -2.4740  198.9680  205.9270 C.2    95  CYS95       0.2270
    148  O         -1.9150  200.0500  205.7700 O.2    95  CYS95      -0.2867
    149  CB        -0.4070  198.1030  207.2140 C.3    95  CYS95       0.0956
    150  SG         0.1300  197.7240  208.9370 S.3    95  CYS95      -0.0801
    151  N         -5.0840  200.7140  206.5150 N.3    97  TRP97      -0.1227
    152  CA        -5.6540  201.7910  207.3350 C.3    97  TRP97       0.1737
    153  C         -4.8000  203.0940  207.2740 C.2    97  TRP97       0.2595
    154  O         -5.3430  204.1730  207.4940 O.2    97  TRP97      -0.2718
    155  CB        -5.8210  201.3400  208.7900 C.3    97  TRP97       0.0564
    156  CG        -4.5350  200.9970  209.4820 C.ar   97  TRP97       0.0003
    157  CD1       -3.9260  199.7810  209.5180 C.ar   97  TRP97       0.0946
    158  CD2       -3.7270  201.8750  210.2740 C.ar   97  TRP97       0.0152
    159  NE1       -2.7560  199.8610  210.2250 N.ar   97  TRP97      -0.2442
    160  CE2       -2.6020  201.1400  210.6930 C.ar   97  TRP97       0.0810
    161  CE3       -3.7990  203.2370  210.5980 C.ar   97  TRP97       0.0012
    162  CZ2       -1.6000  201.6980  211.4930 C.ar   97  TRP97       0.0191
    163  CZ3       -2.7990  203.7940  211.3760 C.ar   97  TRP97       0.0001
    164  CH2       -1.7250  203.0270  211.8300 C.ar   97  TRP97       0.0015
    165  N         -3.4890  202.9960  206.9250 N.am   98  ILE98      -0.1980
    166  CA        -2.6290  204.1790  206.7870 C.3    98  ILE98       0.1595
    167  C         -3.0820  204.9700  205.5800 C.2    98  ILE98       0.2287
    168  O         -3.3980  206.1410  205.7100 O.2    98  ILE98      -0.2864
    169  CB        -1.1230  203.7820  206.6930 C.3    98  ILE98       0.0276
    170  CG1       -0.6620  203.1570  208.0080 C.3    98  ILE98       0.0022
    171  CG2       -0.2660  204.9940  206.3480 C.3    98  ILE98       0.0022
    172  CD1        0.6730  202.6160  207.9740 C.3    98  ILE98       0.0001
@<TRIPOS>BOND
     1   119   120    1
     2    85    84    2
     3   120   121    1
     4   120   123    1
     5   133   132    2
     6    87    88    1
     7    87    86    1
     8   139   142    1
     9   139   140    1
    10   139   138    1
    11    88    89    1
    12   142   143    1
    13    96    95    2
    14   121   122    2
    15   121   130   am
    16   140   141    2
    17   132   138   am
    18   132   131    1
    19    84    83    1
    20    84    93   am
    21   130   131    1
    22   138   144    1
    23   125   127   ar
    24   125   124   ar
    25   123   124    1
    26    83    86    1
    27    83    82    1
    28    89    90    2
    29    95    94    1
    30   115   116    2
    31   115   114    1
    32   113   114    1
    33   143   144    1
    34   127   129   ar
    35   131   134    1
    36   124   126   ar
    37    94    93    1
    38    94    97    1
    39   105   106    1
    40   114   117    1
    41    90    92    1
    42    90    91    1
    43   107   108    2
    44   107   106    1
    45   129   128   ar
    46   134   135    1
    47   126   128   ar
    48   106   109    1
    49   102   100   ar
    50   102   103   ar
    51   100    98   ar
    52    97    98    1
    53    98    99   ar
    54   103   104    1
    55   103   101   ar
    56    99   101   ar
    57   117   118    1
    58   137   135   am
    59   135   136    2
    60   109   110    1
    61   109   111    1
    62    78    77    2
    63   110   112    1
    64    77    76    1
    65   167   168    2
    66   167   166    1
    67    76    75    1
    68    76    79    1
    69   148   147    2
    70   147   146    1
    71   171   169    1
    72    52    50    1
    73   151   152    1
    74   145   146    1
    75    28    26   ar
    76    28    30   ar
    77   169   166    1
    78   169   170    1
    79    79    81    1
    80    79    80    1
    81   166   165    1
    82   165   153   am
    83   146   149    1
    84    26    25   ar
    85    30    29   ar
    86   149   150    1
    87   153   152    1
    88   153   154    2
    89   152   155    1
    90    50    51    1
    91    50    47    1
    92   172   170    1
    93    25    24    1
    94    25    27   ar
    95    29    27   ar
    96    24    21    1
    97   155   156    1
    98    74    72    1
    99    48    47    1
   100    48    49    2
   101    47    46    1
   102    46    41   am
   103   156   157   ar
   104   156   158   ar
   105   157   159   ar
   106    21    20    1
   107    21    22    1
   108    18    17    1
   109    43    40    1
   110    43    44    1
   111    40    41    1
   112    40    39    1
   113    23    22    2
   114    41    42    2
   115    15    14    2
   116    16    17    1
   117    16    13    1
   118   159   160   ar
   119   158   161   ar
   120   158   160   ar
   121    44    45    1
   122    20    14   am
   123    72    71    1
   124    72    73    1
   125    14    13    1
   126   161   163   ar
   127    17    19    1
   128   160   162   ar
   129    71    68    1
   130    34    33    2
   131    39    33   am
   132    39    45    1
   133    13    12    1
   134    33    32    1
   135   163   164   ar
   136   162   164   ar
   137    68    69    1
   138    68    67    1
   139    69    70    2
   140    12     3   am
   141    53    54    1
   142    32    31    1
   143    32    35    1
   144    57    54    1
   145    57    58    1
   146    56    55    2
   147    67    61   am
   148    54    55    1
   149     3     4    2
   150     3     2    1
   151    35    36    1
   152     1     2    1
   153    61    62    2
   154    61    60    1
   155     9    11   ar
   156     9     7   ar
   157    11    10   ar
   158     2     5    1
   159     7     6   ar
   160    10     8   ar
   161    36    37    2
   162    36    38   am
   163     6     8   ar
   164     6     5    1
   165    63    60    1
   166    63    64    1
   167    59    60    1
   168    66    64   ar
   169    64    65   ar
