@<TRIPOS>MOLECULE
tmp/5u9pB01.pdb
 113 106 0 0 0
SMALL
GASTEIGER

@<TRIPOS>ATOM
      1  N        -26.8960  -24.3490    1.6600 N.3   104  GLN104     -0.1245
      2  CA       -27.0850  -23.0160    1.0910 C.3   104  GLN104      0.1566
      3  C        -28.2780  -23.0780    0.1430 C.2   104  GLN104      0.2260
      4  O        -28.4550  -24.0730   -0.5620 O.2   104  GLN104     -0.2867
      5  CB       -25.8180  -22.5550    0.3360 C.3   104  GLN104      0.0367
      6  CG       -25.9060  -21.2190   -0.4280 C.3   104  GLN104      0.0905
      7  CD       -26.1900  -20.0500    0.4940 C.2   104  GLN104      0.2608
      8  OE1      -27.3090  -19.8830    0.9730 O.2   104  GLN104     -0.2717
      9  NE2      -25.1610  -19.2530    0.7780 N.am  104  GLN104     -0.0878
     10  N        -30.3080  -20.0590   -2.3570 N.3   106  ARG106     -0.1245
     11  CA       -30.2160  -18.6600   -2.7670 C.3   106  ARG106      0.1563
     12  C        -31.4970  -18.1820   -3.4500 C.2   106  ARG106      0.2260
     13  O        -31.9910  -18.8320   -4.3830 O.2   106  ARG106     -0.2867
     14  CB       -29.0260  -18.4770   -3.7120 C.3   106  ARG106      0.0307
     15  CG       -27.7200  -19.1010   -3.1530 C.3   106  ARG106      0.0489
     16  CD       -26.4940  -18.6010   -3.9260 C.3   106  ARG106      0.2205
     17  NE       -25.2510  -19.1600   -3.3830 N.pl3 106  ARG106     -0.0865
     18  CZ       -24.6950  -20.2900   -3.8090 C.cat 106  ARG106      0.5346
     19  NH1      -25.2650  -20.9870   -4.7910 N.pl3 106  ARG106      0.1354
     20  NH2      -23.5670  -20.7310   -3.2580 N.pl3 106  ARG106      0.1354
     21  N        -18.9740  -18.1080    8.3610 N.3   152  SER152     -0.1217
     22  CA       -18.9540  -17.6370    6.9770 C.3   152  SER152      0.1889
     23  C        -18.6610  -16.1420    6.9990 C.2   152  SER152      0.2288
     24  O        -18.8010  -15.4950    8.0370 O.2   152  SER152     -0.2866
     25  CB       -20.3170  -17.9060    6.2730 C.3   152  SER152      0.2089
     26  OG       -20.4340  -17.2050    5.0450 O.3   152  SER152     -0.2183
     27  N        -20.6140  -14.3190    5.7140 N.3   154  GLN154     -0.1245
     28  CA       -21.9530  -13.8490    6.0280 C.3   154  GLN154      0.1566
     29  C        -22.2730  -13.9010    7.5110 C.2   154  GLN154      0.2260
     30  O        -23.4350  -13.6140    7.8510 O.2   154  GLN154     -0.2867
     31  CB       -22.9750  -14.6540    5.2170 C.3   154  GLN154      0.0367
     32  CG       -23.2030  -14.0860    3.8390 C.3   154  GLN154      0.0905
     33  CD       -22.0190  -14.2440    2.9440 C.2   154  GLN154      0.2608
     34  OE1      -21.5010  -15.3460    2.7800 O.2   154  GLN154     -0.2717
     35  NE2      -21.5770  -13.1450    2.3460 N.am  154  GLN154     -0.0878
     36  N        -24.6490  -10.5690    1.4310 N.3   159  ARG159     -0.1245
     37  CA       -24.6400  -10.5450   -0.0300 C.3   159  ARG159      0.1563
     38  C        -26.0670  -10.7330   -0.5230 C.2   159  ARG159      0.2260
     39  O        -26.8370  -11.4500    0.1290 O.2   159  ARG159     -0.2867
     40  CB       -23.7360  -11.6620   -0.5890 C.3   159  ARG159      0.0307
     41  CG       -23.4780  -11.5420   -2.0690 C.3   159  ARG159      0.0489
     42  CD       -22.4360  -12.5610   -2.5610 C.3   159  ARG159      0.2205
     43  NE       -23.0130  -13.9000   -2.7040 N.pl3 159  ARG159     -0.0865
     44  CZ       -23.7670  -14.2660   -3.7320 C.cat 159  ARG159      0.5346
     45  NH1      -24.0530  -13.3790   -4.6900 N.pl3 159  ARG159      0.1354
     46  NH2      -24.2340  -15.5090   -3.8020 N.pl3 159  ARG159      0.1354
     47  N        -28.7430  -14.1880   -0.2570 N.3   162  ILE162     -0.1245
     48  CA       -28.4420  -15.1730    0.7660 C.3   162  ILE162      0.1561
     49  C        -28.7110  -14.5820    2.1470 C.2   162  ILE162      0.2260
     50  O        -28.0040  -14.8800    3.1190 O.2   162  ILE162     -0.2867
     51  CB       -27.0090  -15.7280    0.6070 C.3   162  ILE162      0.0252
     52  CG1      -25.9450  -14.6210    0.6170 C.3   162  ILE162      0.0019
     53  CG2      -26.9090  -16.5080   -0.7230 C.3   162  ILE162      0.0019
     54  CD1      -24.5090  -15.2060    0.6090 C.3   162  ILE162      0.0001
     55  N        -29.2980  -17.5420    4.8410 N.3   165  TYR165     -0.1241
     56  CA       -28.0180  -18.1270    5.2250 C.3   165  TYR165      0.1605
     57  C        -27.2420  -17.1880    6.1320 C.2   165  TYR165      0.2264
     58  O        -26.6840  -17.6110    7.1530 O.2   165  TYR165     -0.2867
     59  CB       -27.2480  -18.4560    3.9600 C.3   165  TYR165      0.0534
     60  CG       -25.8540  -19.0380    4.1030 C.ar  165  TYR165     -0.0201
     61  CD1      -24.7530  -18.2040    4.1280 C.ar  165  TYR165     -0.0009
     62  CD2      -25.6440  -20.4210    4.1080 C.ar  165  TYR165     -0.0009
     63  CE1      -23.4580  -18.7250    4.1850 C.ar  165  TYR165      0.0417
     64  CE2      -24.3750  -20.9460    4.1680 C.ar  165  TYR165      0.0417
     65  CZ       -23.2840  -20.0850    4.2030 C.ar  165  TYR165      0.1957
     66  OH       -22.0070  -20.6180    4.2540 O.3   165  TYR165     -0.2866
     67  N        -14.7580  -19.4050    6.9790 N.3   195  PRO195     -0.2102
     68  CA       -14.1170  -19.3330    5.6670 C.3   195  PRO195      0.1504
     69  C        -14.6800  -18.1820    4.8450 C.2   195  PRO195      0.2576
     70  O        -15.8520  -17.8020    4.9850 O.2   195  PRO195     -0.2718
     71  CB       -14.4670  -20.6850    5.0240 C.3   195  PRO195      0.0282
     72  CG       -15.0250  -21.5420    6.1870 C.3   195  PRO195      0.0208
     73  CD       -15.7010  -20.5370    7.0600 C.3   195  PRO195      0.0893
     74  N        -13.8200  -17.6230    3.9830 N.am  196  GLY196     -0.1943
     75  CA       -14.2740  -16.7490    2.9190 C.3   196  GLY196      0.2014
     76  C        -14.8110  -17.5530    1.7490 C.2   196  GLY196      0.2638
     77  O        -15.6190  -18.4650    1.9420 O.2   196  GLY196     -0.2714
     78  N        -14.3790  -17.2400    0.5330 N.am  197  TYR197     -0.1973
     79  CA       -14.8910  -17.8960   -0.6720 C.3   197  TYR197      0.1639
     80  C        -13.9270  -18.9980   -1.1060 C.2   197  TYR197      0.2290
     81  O        -12.8000  -18.7200   -1.5350 O.2   197  TYR197     -0.2864
     82  CB       -15.1240  -16.8640   -1.7690 C.3   197  TYR197      0.0560
     83  CG       -16.4070  -16.1530   -1.4760 C.ar  197  TYR197     -0.0198
     84  CD1      -16.4470  -15.0720   -0.5860 C.ar  197  TYR197     -0.0009
     85  CD2      -17.6120  -16.6230   -2.0130 C.ar  197  TYR197     -0.0009
     86  CE1      -17.6490  -14.4450   -0.2750 C.ar  197  TYR197      0.0417
     87  CE2      -18.8120  -16.0140   -1.7060 C.ar  197  TYR197      0.0417
     88  CZ       -18.8260  -14.9320   -0.8380 C.ar  197  TYR197      0.1957
     89  OH       -20.0310  -14.3360   -0.5250 O.3   197  TYR197     -0.2866
     90  N        -20.4450  -26.4890   -2.7490 N.3   202  LEU202     -0.1231
     91  CA       -21.4090  -25.5070   -2.2560 C.3   202  LEU202      0.1693
     92  C        -21.4640  -24.2830   -3.1640 C.2   202  LEU202      0.2592
     93  O        -22.5400  -23.7070   -3.3900 O.2   202  LEU202     -0.2718
     94  CB       -21.0330  -25.0880   -0.8290 C.3   202  LEU202      0.0284
     95  CG       -22.0600  -24.2710   -0.0340 C.3   202  LEU202      0.0019
     96  CD1      -23.1070  -25.1820    0.5830 C.3   202  LEU202      0.0001
     97  CD2      -21.3850  -23.4040    1.0490 C.3   202  LEU202      0.0001
     98  N        -20.3110  -23.8920   -3.7150 N.am  203  ASN203     -0.1974
     99  CA       -20.1380  -22.6570   -4.4640 C.3   203  ASN203      0.1688
    100  C        -19.8210  -22.8880   -5.9390 C.2   203  ASN203      0.2292
    101  O        -19.3320  -21.9720   -6.6090 O.2   203  ASN203     -0.2864
    102  CB       -19.0430  -21.8190   -3.8130 C.3   203  ASN203      0.1181
    103  CG       -19.5040  -21.2060   -2.5210 C.2   203  ASN203      0.2629
    104  OD1      -20.7100  -20.9950   -2.3260 O.2   203  ASN203     -0.2716
    105  ND2      -18.5710  -20.9250   -1.6250 N.am  203  ASN203     -0.0877
    106  N        -20.9660  -20.3620   -8.3690 N.3   206  LEU206     -0.1245
    107  CA       -20.2170  -19.1100   -8.2820 C.3   206  LEU206      0.1561
    108  C        -18.8450  -19.2300   -8.9380 C.2   206  LEU206      0.2260
    109  O        -18.4310  -18.3290   -9.6730 O.2   206  LEU206     -0.2867
    110  CB       -20.0650  -18.6810   -6.8220 C.3   206  LEU206      0.0270
    111  CG       -21.3690  -18.5330   -6.0210 C.3   206  LEU206      0.0019
    112  CD1      -21.0860  -18.0410   -4.6070 C.3   206  LEU206      0.0001
    113  CD2      -22.3660  -17.6210   -6.7090 C.3   206  LEU206      0.0001
@<TRIPOS>BOND
     1   109   108    2
     2   108   107    1
     3   106   107    1
     4   107   110    1
     5   110   111    1
     6   113   111    1
     7   101   100    2
     8   111   112    1
     9   100    99    1
    10    19    18    1
    11    45    44    1
    12    99   102    1
    13    99    98    1
    14    13    12    2
    15    16    17    1
    16    16    15    1
    17   102   103    1
    18    18    17    2
    19    18    20    1
    20    46    44    1
    21    44    43    2
    22    98    92   am
    23    14    15    1
    24    14    11    1
    25    12    11    1
    26    93    92    2
    27    92    91    1
    28    11    10    1
    29    90    91    1
    30    43    42    1
    31    42    41    1
    32   103   104    2
    33   103   105   am
    34    91    94    1
    35    41    40    1
    36    85    87   ar
    37    85    83   ar
    38    82    83    1
    39    82    79    1
    40    87    88   ar
    41    81    80    2
    42    83    84   ar
    43    80    79    1
    44    88    89    1
    45    88    86   ar
    46    94    95    1
    47    53    51    1
    48    79    78    1
    49    40    37    1
    50    84    86   ar
    51     4     3    2
    52    38    37    1
    53    38    39    2
    54     6     5    1
    55     6     7    1
    56    47    48    1
    57    95    96    1
    58    95    97    1
    59    37    36    1
    60     3     2    1
    61     5     2    1
    62     7     9   am
    63     7     8    2
    64    78    76   am
    65    51    52    1
    66    51    48    1
    67    54    52    1
    68    48    49    1
    69     2     1    1
    70    76    77    2
    71    76    75    1
    72    49    50    2
    73    35    33   am
    74    34    33    2
    75    75    74    1
    76    33    32    1
    77    32    31    1
    78    59    60    1
    79    59    56    1
    80    74    69   am
    81    60    62   ar
    82    60    61   ar
    83    62    64   ar
    84    61    63   ar
    85    64    65   ar
    86    63    65   ar
    87    65    66    1
    88    55    56    1
    89    69    70    2
    90    69    68    1
    91    71    68    1
    92    71    72    1
    93    26    25    1
    94    31    28    1
    95    56    57    1
    96    68    67    1
    97    27    28    1
    98    28    29    1
    99    57    58    2
   100    72    73    1
   101    25    22    1
   102    22    23    1
   103    22    21    1
   104    67    73    1
   105    23    24    2
   106    29    30    2
