@<TRIPOS>MOLECULE
tmp/5uabA00.pdb
 170 163 0 0 0
SMALL
GASTEIGER

@<TRIPOS>ATOM
      1  N         -7.9910   19.3870   21.6980 N.3    32  ILE32      -0.1245
      2  CA        -8.0650   18.5280   20.5180 C.3    32  ILE32       0.1561
      3  C         -9.4500   17.8850   20.4400 C.2    32  ILE32       0.2260
      4  O        -10.0940   17.9200   19.3900 O.2    32  ILE32      -0.2867
      5  CB        -6.9600   17.4410   20.5200 C.3    32  ILE32       0.0252
      6  CG1       -5.5780   18.0950   20.3880 C.3    32  ILE32       0.0019
      7  CG2       -7.1750   16.4440   19.3830 C.3    32  ILE32       0.0019
      8  CD1       -4.4090   17.1470   20.5730 C.3    32  ILE32       0.0001
      9  N         -8.5740   15.5440   25.7480 N.3    40  VAL40      -0.1245
     10  CA        -7.2910   15.4630   25.0380 C.3    40  VAL40       0.1561
     11  C         -6.8760   16.8530   24.5550 C.2    40  VAL40       0.2260
     12  O         -7.6830   17.5620   23.9580 O.2    40  VAL40      -0.2867
     13  CB        -7.3690   14.4860   23.8420 C.3    40  VAL40       0.0252
     14  CG1       -5.9940   14.2940   23.2050 C.3    40  VAL40       0.0019
     15  CG2       -7.9500   13.1480   24.2890 C.3    40  VAL40       0.0019
     16  N         -3.4410   19.5700   23.0530 N.3    42  HIS42      -0.1241
     17  CA        -2.1190   19.7540   22.4370 C.3    42  HIS42       0.1621
     18  C         -1.0570   19.9220   23.5220 C.2    42  HIS42       0.2264
     19  O         -1.3440   20.4330   24.6060 O.2    42  HIS42      -0.2867
     20  CB        -2.0880   20.9970   21.5290 C.3    42  HIS42       0.0745
     21  CG        -2.9960   20.9100   20.3430 C.ar   42  HIS42       0.0817
     22  ND1       -2.5980   20.3790   19.1360 N.ar   42  HIS42      -0.2268
     23  CD2       -4.2830   21.2950   20.1760 C.ar   42  HIS42       0.1154
     24  CE1       -3.6020   20.4310   18.2790 C.ar   42  HIS42       0.1986
     25  NE2       -4.6360   20.9840   18.8850 N.ar   42  HIS42      -0.2212
     26  N          0.1050   14.7550   21.8680 N.3    48  ALA48      -0.1245
     27  CA        -1.2690   14.7810   22.3720 C.3    48  ALA48       0.1562
     28  C         -1.2520   14.3580   23.8410 C.2    48  ALA48       0.2260
     29  O         -0.6480   13.3420   24.1900 O.2    48  ALA48      -0.2867
     30  CB        -2.1480   13.8430   21.5610 C.3    48  ALA48       0.0290
     31  N         -3.6330   13.4970   27.1060 N.3    50  LYS50      -0.1245
     32  CA        -4.9390   13.1940   27.6680 C.3    50  LYS50       0.1561
     33  C         -4.8980   13.2710   29.1890 C.2    50  LYS50       0.2260
     34  O         -4.1320   12.5470   29.8230 O.2    50  LYS50      -0.2867
     35  CB        -5.4020   11.8100   27.2400 C.3    50  LYS50       0.0271
     36  CG        -6.8150   11.5150   27.6910 C.3    50  LYS50       0.0035
     37  CD        -7.3420   10.2390   27.0950 C.3    50  LYS50       0.0206
     38  CE        -8.7240    9.9780   27.6470 C.3    50  LYS50       0.1093
     39  NZ        -9.3320    8.8030   26.9960 N.3    50  LYS50      -0.1314
     40  N         -0.3590    2.7120   18.1520 N.3    73  LEU73      -0.1245
     41  CA        -0.0710    3.9780   18.8310 C.3    73  LEU73       0.1561
     42  C          0.8240    3.7380   20.0510 C.2    73  LEU73       0.2260
     43  O          0.4620    2.9870   20.9520 O.2    73  LEU73      -0.2867
     44  CB        -1.3590    4.6900   19.2600 C.3    73  LEU73       0.0270
     45  CG        -1.1770    6.1530   19.6930 C.3    73  LEU73       0.0019
     46  CD1       -0.8700    7.0330   18.4890 C.3    73  LEU73       0.0001
     47  CD2       -2.4080    6.6730   20.4210 C.3    73  LEU73       0.0001
     48  N          0.8070   11.0130   24.4420 N.3    85  LEU85      -0.1231
     49  CA         0.7140   10.2230   23.2220 C.3    85  LEU85       0.1678
     50  C          1.2590   11.0220   22.0380 C.2    85  LEU85       0.2434
     51  O          1.2710   12.2540   22.0810 O.2    85  LEU85      -0.2733
     52  CB        -0.7510    9.8720   22.9670 C.3    85  LEU85       0.0284
     53  CG        -1.4580    9.1150   24.0960 C.3    85  LEU85       0.0019
     54  CD1       -2.9640    9.1150   23.8820 C.3    85  LEU85       0.0001
     55  CD2       -0.9270    7.6920   24.1900 C.3    85  LEU85       0.0001
     56  N          1.7050   10.3300   20.9690 N.am   86  PRO86      -0.2718
     57  CA         2.1530   11.0780   19.7890 C.3    86  PRO86       0.1535
     58  C          0.9830   11.7420   19.0690 C.2    86  PRO86       0.2599
     59  O         -0.0830   11.1430   18.9440 O.2    86  PRO86      -0.2715
     60  CB         2.8340   10.0190   18.9150 C.3    86  PRO86       0.0310
     61  CG         2.3400    8.7090   19.4040 C.3    86  PRO86       0.0237
     62  CD         1.8930    8.8790   20.8220 C.3    86  PRO86       0.0939
     63  N          1.1800   12.9770   18.6220 N.am   87  TYR87      -0.1960
     64  CA         0.1340   13.7120   17.9190 C.3    87  TYR87       0.1771
     65  C         -0.0510   13.1050   16.5400 C.2    87  TYR87       0.2619
     66  O          0.9250   12.8560   15.8350 O.2    87  TYR87      -0.2715
     67  CB         0.4940   15.1940   17.8040 C.3    87  TYR87       0.0574
     68  CG        -0.5550   16.0290   17.1010 C.ar   87  TYR87      -0.0198
     69  CD1       -1.7080   16.4450   17.7670 C.ar   87  TYR87      -0.0009
     70  CD2       -0.3930   16.4070   15.7680 C.ar   87  TYR87      -0.0009
     71  CE1       -2.6680   17.2120   17.1250 C.ar   87  TYR87       0.0417
     72  CE2       -1.3450   17.1780   15.1190 C.ar   87  TYR87       0.0417
     73  CZ        -2.4800   17.5750   15.7960 C.ar   87  TYR87       0.1957
     74  OH        -3.4150   18.3450   15.1490 O.3    87  TYR87      -0.2866
     75  N         -1.3020   12.8510   16.1720 N.am   88  MET88      -0.1963
     76  CA        -1.6360   12.2640   14.8840 C.3    88  MET88       0.1736
     77  C         -2.2120   13.3690   14.0050 C.2    88  MET88       0.2616
     78  O         -3.3470   13.7910   14.2070 O.2    88  MET88      -0.2715
     79  CB        -2.6420   11.1370   15.0810 C.3    88  MET88       0.0427
     80  CG        -2.1180    9.9780   15.9200 C.3    88  MET88       0.0599
     81  SD        -0.9810    8.9280   14.9930 S.3    88  MET88      -0.1393
     82  CE         0.5960    9.3520   15.7000 C.3    88  MET88       0.0692
     83  N         -1.4060   13.8450   13.0530 N.am   89  LYS89      -0.1963
     84  CA        -1.7630   14.9740   12.1650 C.3    89  LYS89       0.1728
     85  C         -3.1590   14.8640   11.5370 C.2    89  LYS89       0.2616
     86  O         -3.9070   15.8400   11.5080 O.2    89  LYS89      -0.2715
     87  CB        -0.7170   15.1180   11.0440 C.3    89  LYS89       0.0311
     88  CG        -0.8590   16.3670   10.1740 C.3    89  LYS89       0.0038
     89  CD         0.0600   16.3060    8.9590 C.3    89  LYS89       0.0206
     90  CE        -0.2560   17.4040    7.9450 C.3    89  LYS89       0.1093
     91  NZ         0.6710   17.3950    6.7690 N.3    89  LYS89      -0.1314
     92  N         -3.4960   13.6740   11.0440 N.am   90  HIS90      -0.1959
     93  CA        -4.7490   13.4490   10.3100 C.3    90  HIS90       0.1787
     94  C         -5.8790   12.8060   11.1380 C.2    90  HIS90       0.2621
     95  O         -6.8590   12.3410   10.5760 O.2    90  HIS90      -0.2715
     96  CB        -4.4530   12.6420    9.0450 C.3    90  HIS90       0.0785
     97  CG        -3.5780   13.3720    8.0830 C.ar   90  HIS90       0.0821
     98  ND1       -2.3050   12.9480    7.7690 N.ar   90  HIS90      -0.2267
     99  CD2       -3.7630   14.5390    7.4190 C.ar   90  HIS90       0.1154
    100  CE1       -1.7530   13.8090    6.9330 C.ar   90  HIS90       0.1986
    101  NE2       -2.6160   14.7820    6.7030 N.ar   90  HIS90      -0.2212
    102  N         -5.7460   12.8030   12.4650 N.am   91  GLY91      -0.1940
    103  CA        -6.8310   12.3910   13.3530 C.3    91  GLY91       0.2014
    104  C         -7.2310   10.9380   13.2120 C.2    91  GLY91       0.2638
    105  O         -6.4130   10.0870   12.8490 O.2    91  GLY91      -0.2714
    106  N         -8.4940   10.6450   13.4950 N.am   92  ASP92      -0.1971
    107  CA        -8.9640    9.2640   13.4160 C.3    92  ASP92       0.1709
    108  C         -9.2140    8.8640   11.9660 C.2    92  ASP92       0.2293
    109  O         -9.5340    9.7030   11.1180 O.2    92  ASP92      -0.2864
    110  CB       -10.1980    9.0340   14.2900 C.3    92  ASP92       0.1436
    111  CG       -11.4320    9.6890   13.7360 C.2    92  ASP92       0.3671
    112  OD1      -11.6310   10.8910   14.0220 O.co2  92  ASP92      -0.2456
    113  OD2      -12.1870    8.9970   13.0080 O.co2  92  ASP92      -0.2456
    114  N        -12.9290    4.5040   13.7060 N.3   136  ARG136     -0.1231
    115  CA       -12.8900    5.6290   14.6620 C.3   136  ARG136      0.1694
    116  C        -11.7830    5.5090   15.7180 C.2   136  ARG136      0.2592
    117  O        -11.3610    6.5150   16.2870 O.2   136  ARG136     -0.2718
    118  CB       -14.2490    5.8170   15.3810 C.3   136  ARG136      0.0321
    119  CG       -14.6220    4.6710   16.3100 C.3   136  ARG136      0.0489
    120  CD       -15.8690    4.8930   17.1470 C.3   136  ARG136      0.2205
    121  NE       -16.1580    3.6470   17.8540 N.pl3 136  ARG136     -0.0865
    122  CZ       -16.8110    2.5990   17.3450 C.cat 136  ARG136      0.5346
    123  NH1      -17.3120    2.6260   16.1190 N.pl3 136  ARG136      0.1354
    124  NH2      -16.9750    1.5020   18.0760 N.pl3 136  ARG136      0.1354
    125  N        -11.3500    4.2770   15.9880 N.am  137  ASN137     -0.1974
    126  CA       -10.3450    3.9770   17.0080 C.3   137  ASN137      0.1688
    127  C         -8.9390    3.7090   16.4700 C.2   137  ASN137      0.2292
    128  O         -8.0500    3.3060   17.2290 O.2   137  ASN137     -0.2864
    129  CB       -10.8490    2.8080   17.8630 C.3   137  ASN137      0.1181
    130  CG       -12.0160    3.2090   18.7520 C.2   137  ASN137      0.2629
    131  OD1      -12.0900    4.3490   19.2360 O.2   137  ASN137     -0.2716
    132  ND2      -12.9180    2.2730   18.9980 N.am  137  ASN137     -0.0877
    133  N         -5.8240    5.7400   14.1730 N.3   139  MET139     -0.1245
    134  CA        -5.4070    7.1060   13.8450 C.3   139  MET139      0.1570
    135  C         -4.3690    7.1160   12.7270 C.2   139  MET139      0.2261
    136  O         -3.8050    6.0790   12.3880 O.2   139  MET139     -0.2867
    137  CB        -4.8840    7.8070   15.0950 C.3   139  MET139      0.0387
    138  CG        -5.8440    7.7000   16.2700 C.3   139  MET139      0.0595
    139  SD        -5.7020    9.0290   17.4580 S.3   139  MET139     -0.1393
    140  CE        -6.4480   10.3800   16.5490 C.3   139  MET139      0.0692
    141  N         -5.2180    2.4460   17.8210 N.3   149  ALA149     -0.1231
    142  CA        -5.1750    3.2620   19.0430 C.3   149  ALA149      0.1694
    143  C         -6.2840    2.8060   20.0050 C.2   149  ALA149      0.2592
    144  O         -6.7150    1.6480   19.9250 O.2   149  ALA149     -0.2718
    145  CB        -5.2880    4.7390   18.6850 C.3   149  ALA149      0.0304
    146  N         -6.7180    3.6710   20.9230 N.am  150  ASP150     -0.1974
    147  CA        -7.8310    3.3610   21.8310 C.3   150  ASP150      0.1709
    148  C         -7.5980    2.0720   22.6480 C.2   150  ASP150      0.2293
    149  O         -8.4460    1.1900   22.7050 O.2   150  ASP150     -0.2864
    150  CB        -9.1450    3.2740   21.0330 C.3   150  ASP150      0.1436
    151  CG       -10.3460    3.0180   21.9100 C.2   150  ASP150      0.3671
    152  OD1      -10.4830    3.7010   22.9450 O.co2 150  ASP150     -0.2456
    153  OD2      -11.1300    2.1100   21.5650 O.co2 150  ASP150     -0.2456
    154  N         -5.0580    5.0950   26.8340 N.3   154  ALA154     -0.1245
    155  CA        -5.7870    5.8490   25.8110 C.3   154  ALA154      0.1562
    156  C         -7.2050    5.3200   25.5520 C.2   154  ALA154      0.2260
    157  O         -7.9050    5.8500   24.6850 O.2   154  ALA154     -0.2867
    158  CB        -4.9950    5.8490   24.5070 C.3   154  ALA154      0.0290
    159  N        -14.7800    7.4390   22.2680 N.3   158  TYR158     -0.1241
    160  CA       -14.4980    8.7060   21.5680 C.3   158  TYR158      0.1605
    161  C        -15.6370    9.2250   20.6780 C.2   158  TYR158      0.2264
    162  O        -15.6920   10.4210   20.3890 O.2   158  TYR158     -0.2867
    163  CB       -13.1880    8.6060   20.7680 C.3   158  TYR158      0.0534
    164  CG       -11.9610    8.5530   21.6570 C.ar  158  TYR158     -0.0201
    165  CD1      -11.5380    9.6820   22.3560 C.ar  158  TYR158     -0.0009
    166  CD2      -11.2260    7.3700   21.8110 C.ar  158  TYR158     -0.0009
    167  CE1      -10.4220    9.6450   23.1810 C.ar  158  TYR158      0.0417
    168  CE2      -10.1050    7.3250   22.6350 C.ar  158  TYR158      0.0417
    169  CZ        -9.7070    8.4640   23.3150 C.ar  158  TYR158      0.1957
    170  OH        -8.6000    8.4360   24.1330 O.3   158  TYR158     -0.2866
@<TRIPOS>BOND
     1   101   100   ar
     2   101    99   ar
     3    91    90    1
     4   100    98   ar
     5    99    97   ar
     6    98    97   ar
     7    90    89    1
     8    97    96    1
     9    89    88    1
    10    96    93    1
    11    88    87    1
    12    93    92    1
    13    93    94    1
    14    95    94    2
    15    87    84    1
    16    92    85   am
    17   109   108    2
    18    94   102   am
    19    86    85    2
    20    85    84    1
    21   108   107    1
    22    84    83    1
    23   136   135    2
    24   102   103    1
    25   135   134    1
    26   105   104    2
    27   113   111   ar
    28    83    77   am
    29   104   103    1
    30   104   106   am
    31   107   106    1
    32   107   110    1
    33   114   115    1
    34   111   112   ar
    35   111   110    1
    36   134   133    1
    37   134   137    1
    38    77    78    2
    39    77    76    1
    40   115   118    1
    41   115   116    1
    42    76    79    1
    43    76    75    1
    44    81    82    1
    45    81    80    1
    46    79    80    1
    47   137   138    1
    48    72    70   ar
    49    72    73   ar
    50    74    73    1
    51   118   119    1
    52   116   125   am
    53   116   117    2
    54    70    68   ar
    55    73    71   ar
    56    66    65    2
    57   125   126    1
    58   123   122    1
    59    75    65   am
    60   138   139    1
    61   119   120    1
    62   127   126    1
    63   127   128    2
    64    65    64    1
    65   140   139    1
    66   126   129    1
    67    68    69   ar
    68    68    67    1
    69    71    69   ar
    70   120   121    1
    71   122   121    2
    72   122   124    1
    73    67    64    1
    74   141   142    1
    75   129   130    1
    76    64    63    1
    77    40    41    1
    78    24    25   ar
    79    24    22   ar
    80    46    45    1
    81    63    58   am
    82   145   142    1
    83   130   132   am
    84   130   131    2
    85    41    44    1
    86    41    42    1
    87    25    23   ar
    88    60    61    1
    89    60    57    1
    90    59    58    2
    91   142   143    1
    92    58    57    1
    93    22    21   ar
    94    44    45    1
    95     7     5    1
    96     4     3    2
    97    61    62    1
    98    45    47    1
    99    57    56    1
   100   144   143    2
   101   143   146   am
   102    42    43    2
   103    23    21   ar
   104    21    20    1
   105     6     5    1
   106     6     8    1
   107   162   161    2
   108     3     2    1
   109     2     5    1
   110     2     1    1
   111   161   160    1
   112   163   160    1
   113   163   164    1
   114    62    56    1
   115   146   147    1
   116    56    50   am
   117   150   147    1
   118   150   151    1
   119    20    17    1
   120    30    27    1
   121   153   151   ar
   122   160   159    1
   123   164   166   ar
   124   164   165   ar
   125   166   168   ar
   126   147   148    1
   127    26    27    1
   128   151   152   ar
   129    50    51    2
   130    50    49    1
   131   165   167   ar
   132    27    28    1
   133    17    16    1
   134    17    18    1
   135   168   169   ar
   136   148   149    2
   137    52    49    1
   138    52    53    1
   139   167   169   ar
   140    14    13    1
   141    49    48    1
   142   169   170    1
   143    18    19    2
   144    28    29    2
   145    13    15    1
   146    13    10    1
   147    54    53    1
   148    12    11    2
   149    53    55    1
   150   158   155    1
   151    11    10    1
   152   157   156    2
   153    10     9    1
   154   156   155    1
   155   155   154    1
   156    39    38    1
   157    37    38    1
   158    37    36    1
   159    31    32    1
   160    35    32    1
   161    35    36    1
   162    32    33    1
   163    33    34    2
