@<TRIPOS>MOLECULE
tmp/5uafA00.pdb
 201 193 0 0 0
SMALL
GASTEIGER

@<TRIPOS>ATOM
      1  N          7.9840  -19.0160   21.7420 N.3    32  ILE32      -0.1231
      2  CA         7.9200  -18.1880   20.5490 C.3    32  ILE32       0.1692
      3  C          9.2220  -17.4060   20.4290 C.2    32  ILE32       0.2593
      4  O          9.9290  -17.5220   19.4280 O.2    32  ILE32      -0.2718
      5  CB         6.7220  -17.2130   20.5840 C.3    32  ILE32       0.0266
      6  CG1        5.4010  -17.9840   20.4950 C.3    32  ILE32       0.0019
      7  CG2        6.8140  -16.2090   19.4420 C.3    32  ILE32       0.0020
      8  CD1        4.1740  -17.1430   20.7820 C.3    32  ILE32       0.0001
      9  N          9.5270  -16.6190   21.4570 N.am   33  GLY33      -0.1942
     10  CA        10.7280  -15.7790   21.4810 C.3    33  GLY33       0.2014
     11  C         11.3160  -15.6470   22.8720 C.2    33  GLY33       0.2638
     12  O         10.7730  -16.1800   23.8410 O.2    33  GLY33      -0.2714
     13  N         12.4390  -14.9380   22.9530 N.am   34  ARG34      -0.1977
     14  CA        13.1150  -14.6620   24.2160 C.3    34  ARG34       0.1597
     15  C         13.4610  -13.1800   24.3010 C.2    34  ARG34       0.2287
     16  O         13.7820  -12.5420   23.2940 O.2    34  ARG34      -0.2864
     17  CB        14.3850  -15.5110   24.3460 C.3    34  ARG34       0.0334
     18  CG        15.0700  -15.4530   25.7110 C.3    34  ARG34       0.0492
     19  CD        14.2830  -16.1900   26.7900 C.3    34  ARG34       0.2205
     20  NE        14.9300  -16.1060   28.1030 N.pl3  34  ARG34      -0.0865
     21  CZ        14.6390  -16.8650   29.1640 C.cat  34  ARG34       0.5346
     22  NH1       13.6950  -17.8080   29.1100 N.pl3  34  ARG34       0.1354
     23  NH2       15.3090  -16.6840   30.3000 N.pl3  34  ARG34       0.1354
     24  N          8.5490  -15.2300   25.8440 N.3    40  VAL40      -0.1245
     25  CA         7.2260  -15.1600   25.2060 C.3    40  VAL40       0.1561
     26  C          6.7840  -16.5550   24.7740 C.2    40  VAL40       0.2260
     27  O          7.5810  -17.3200   24.2340 O.2    40  VAL40      -0.2867
     28  CB         7.2400  -14.2030   23.9940 C.3    40  VAL40       0.0252
     29  CG1        5.8640  -14.1350   23.3320 C.3    40  VAL40       0.0019
     30  CG2        7.7130  -12.8200   24.4300 C.3    40  VAL40       0.0019
     31  N          3.3900  -19.3830   23.4190 N.3    42  HIS42      -0.1241
     32  CA         2.0840  -19.6550   22.7980 C.3    42  HIS42       0.1621
     33  C          1.0060  -19.7580   23.8650 C.2    42  HIS42       0.2264
     34  O          1.2350  -20.3590   24.9170 O.2    42  HIS42      -0.2867
     35  CB         2.1050  -20.9650   21.9930 C.3    42  HIS42       0.0745
     36  CG         2.6350  -20.8150   20.6030 C.ar   42  HIS42       0.0817
     37  ND1        1.8360  -20.4470   19.5460 N.ar   42  HIS42      -0.2268
     38  CD2        3.8780  -20.9820   20.0940 C.ar   42  HIS42       0.1154
     39  CE1        2.5610  -20.3890   18.4430 C.ar   42  HIS42       0.1986
     40  NE2        3.8050  -20.7110   18.7480 N.ar   42  HIS42      -0.2212
     41  N         -0.2690  -14.5720   22.1920 N.3    48  ALA48      -0.1245
     42  CA         1.1140  -14.6250   22.6610 C.3    48  ALA48       0.1562
     43  C          1.1710  -14.1380   24.1140 C.2    48  ALA48       0.2260
     44  O          0.6580  -13.0640   24.4230 O.2    48  ALA48      -0.2867
     45  CB         1.9930  -13.7650   21.7740 C.3    48  ALA48       0.0290
     46  N          3.6270  -13.1300   27.2220 N.3    50  LYS50      -0.1245
     47  CA         4.9450  -12.8030   27.7580 C.3    50  LYS50       0.1561
     48  C          4.9010  -12.8760   29.2730 C.2    50  LYS50       0.2260
     49  O          4.0840  -12.2020   29.8970 O.2    50  LYS50      -0.2867
     50  CB         5.3780  -11.4110   27.3220 C.3    50  LYS50       0.0271
     51  CG         6.8030  -11.0660   27.7160 C.3    50  LYS50       0.0035
     52  CD         7.2260   -9.7640   27.0770 C.3    50  LYS50       0.0206
     53  CE         8.5640   -9.2780   27.6070 C.3    50  LYS50       0.1093
     54  NZ         8.6010   -7.7860   27.6440 N.3    50  LYS50      -0.1314
     55  N         -0.0610   -2.6730   18.1630 N.3    76  LEU76      -0.1245
     56  CA        -0.3160   -3.9180   18.8690 C.3    76  LEU76       0.1561
     57  C         -1.1160   -3.6230   20.1320 C.2    76  LEU76       0.2260
     58  O         -0.6530   -2.8950   21.0080 O.2    76  LEU76      -0.2867
     59  CB         0.9820   -4.6430   19.2250 C.3    76  LEU76       0.0270
     60  CG         0.7680   -6.0750   19.7310 C.3    76  LEU76       0.0019
     61  CD1        0.4060   -7.0120   18.5880 C.3    76  LEU76       0.0001
     62  CD2        1.9980   -6.5890   20.4590 C.3    76  LEU76       0.0001
     63  N         -1.1300  -10.8610   24.5530 N.3    88  LEU88      -0.1231
     64  CA        -1.0690  -10.0610   23.3460 C.3    88  LEU88       0.1678
     65  C         -1.6190  -10.8820   22.1840 C.2    88  LEU88       0.2434
     66  O         -1.5810  -12.1140   22.2390 O.2    88  LEU88      -0.2733
     67  CB         0.3870   -9.7080   23.0750 C.3    88  LEU88       0.0284
     68  CG         1.1130   -9.0050   24.2270 C.3    88  LEU88       0.0019
     69  CD1        2.6150   -9.0590   24.0130 C.3    88  LEU88       0.0001
     70  CD2        0.6330   -7.5650   24.3630 C.3    88  LEU88       0.0001
     71  N         -2.1320  -10.2140   21.1260 N.am   89  PRO89      -0.2718
     72  CA        -2.5720  -10.9880   19.9560 C.3    89  PRO89       0.1535
     73  C         -1.3930  -11.6420   19.2490 C.2    89  PRO89       0.2599
     74  O         -0.3210  -11.0500   19.1580 O.2    89  PRO89      -0.2715
     75  CB        -3.2550   -9.9510   19.0560 C.3    89  PRO89       0.0310
     76  CG        -2.7360   -8.6420   19.5000 C.3    89  PRO89       0.0237
     77  CD        -2.3630   -8.7700   20.9520 C.3    89  PRO89       0.0939
     78  N         -1.5970  -12.8690   18.7930 N.am   90  TYR90      -0.1960
     79  CA        -0.5730  -13.6170   18.0950 C.3    90  TYR90       0.1771
     80  C         -0.3810  -12.9990   16.7310 C.2    90  TYR90       0.2619
     81  O         -1.3510  -12.7810   16.0190 O.2    90  TYR90      -0.2715
     82  CB        -0.9990  -15.0740   17.9390 C.3    90  TYR90       0.0574
     83  CG         0.0500  -15.9320   17.2870 C.ar   90  TYR90      -0.0198
     84  CD1        1.1950  -16.3050   17.9810 C.ar   90  TYR90      -0.0009
     85  CD2       -0.0900  -16.3610   15.9680 C.ar   90  TYR90      -0.0009
     86  CE1        2.1710  -17.0870   17.3830 C.ar   90  TYR90       0.0417
     87  CE2        0.8730  -17.1580   15.3650 C.ar   90  TYR90       0.0417
     88  CZ         2.0030  -17.5160   16.0770 C.ar   90  TYR90       0.1957
     89  OH         2.9600  -18.3060   15.4880 O.3    90  TYR90      -0.2866
     90  N          0.8630  -12.6940   16.3840 N.am   91  MET91      -0.1963
     91  CA         1.1960  -12.1600   15.0650 C.3    91  MET91       0.1736
     92  C          1.7750  -13.2850   14.2040 C.2    91  MET91       0.2616
     93  O          2.9220  -13.6800   14.3920 O.2    91  MET91      -0.2715
     94  CB         2.1980  -11.0160   15.2060 C.3    91  MET91       0.0427
     95  CG         1.6610   -9.8240   15.9830 C.3    91  MET91       0.0599
     96  SD         0.4450   -8.8830   15.0330 S.3    91  MET91      -0.1393
     97  CE        -1.0880   -9.4070   15.7860 C.3    91  MET91       0.0692
     98  N          0.9710  -13.7840   13.2670 N.am   92  LYS92      -0.1963
     99  CA         1.3300  -14.9360   12.4150 C.3    92  LYS92       0.1728
    100  C          2.6890  -14.8020   11.7150 C.2    92  LYS92       0.2616
    101  O          3.4620  -15.7550   11.6840 O.2    92  LYS92      -0.2715
    102  CB         0.2480  -15.1850   11.3510 C.3    92  LYS92       0.0311
    103  CG         0.3530  -16.5230   10.6140 C.3    92  LYS92       0.0038
    104  CD        -0.5400  -16.5440    9.3810 C.3    92  LYS92       0.0206
    105  CE        -0.8490  -17.9660    8.8990 C.3    92  LYS92       0.1093
    106  NZ        -1.4220  -17.9620    7.5110 N.3    92  LYS92      -0.1314
    107  N          2.9780  -13.6340   11.1530 N.am   93  HIS93      -0.1959
    108  CA         4.2140  -13.4590   10.3850 C.3    93  HIS93       0.1787
    109  C          5.3850  -12.8460   11.1690 C.2    93  HIS93       0.2621
    110  O          6.4060  -12.4940   10.5720 O.2    93  HIS93      -0.2715
    111  CB         3.9150  -12.7070    9.0920 C.3    93  HIS93       0.0785
    112  CG         3.0370  -13.4760    8.1590 C.ar   93  HIS93       0.0821
    113  ND1        1.7650  -13.0640    7.8240 N.ar   93  HIS93      -0.2267
    114  CD2        3.2290  -14.6590    7.5300 C.ar   93  HIS93       0.1154
    115  CE1        1.2190  -13.9510    7.0110 C.ar   93  HIS93       0.1986
    116  NE2        2.0840  -14.9310    6.8210 N.ar   93  HIS93      -0.2212
    117  N          5.2520  -12.7360   12.4930 N.am   94  GLY94      -0.1940
    118  CA         6.3580  -12.3260   13.3530 C.3    94  GLY94       0.2014
    119  C          6.7870  -10.8910   13.1460 C.2    94  GLY94       0.2638
    120  O          5.9790  -10.0490   12.7520 O.2    94  GLY94      -0.2714
    121  N          8.0650  -10.6190   13.4060 N.am   95  ASP95      -0.1971
    122  CA         8.6000   -9.2560   13.3340 C.3    95  ASP95       0.1709
    123  C          8.8580   -8.8160   11.8930 C.2    95  ASP95       0.2293
    124  O          9.1680   -9.6300   11.0270 O.2    95  ASP95      -0.2864
    125  CB         9.8610   -9.0970   14.1920 C.3    95  ASP95       0.1436
    126  CG        11.0750   -9.7830   13.6010 C.2    95  ASP95       0.3671
    127  OD1       11.2720  -10.9880   13.8820 O.co2  95  ASP95      -0.2456
    128  OD2       11.8470   -9.1140   12.8730 O.co2  95  ASP95      -0.2456
    129  N         12.5830   -9.6220   10.1420 N.3    98  ASN98      -0.1240
    130  CA        12.7410  -11.0150    9.7120 C.3    98  ASN98       0.1653
    131  C         11.8650  -11.3290    8.5040 C.2    98  ASN98       0.2266
    132  O         12.3080  -12.0060    7.5920 O.2    98  ASN98      -0.2867
    133  CB        12.4900  -11.9940   10.8650 C.3    98  ASN98       0.1155
    134  CG        13.6910  -12.1190   11.7890 C.2    98  ASN98       0.2627
    135  OD1       14.8320  -12.1870   11.3320 O.2    98  ASN98      -0.2716
    136  ND2       13.4400  -12.1750   13.0930 N.am   98  ASN98      -0.0877
    137  N         12.5890   -4.5090   13.7050 N.3   139  ARG139     -0.1231
    138  CA        12.5290   -5.6230   14.6760 C.3   139  ARG139      0.1694
    139  C         11.3770   -5.5230   15.6870 C.2   139  ARG139      0.2592
    140  O         10.9170   -6.5440   16.2080 O.2   139  ARG139     -0.2718
    141  CB        13.8670   -5.7990   15.4370 C.3   139  ARG139      0.0321
    142  CG        14.2340   -4.6450   16.3520 C.3   139  ARG139      0.0489
    143  CD        15.4530   -4.8900   17.2330 C.3   139  ARG139      0.2205
    144  NE        15.7920   -3.6460   17.9310 N.pl3 139  ARG139     -0.0865
    145  CZ        16.4310   -2.6100   17.3780 C.cat 139  ARG139      0.5346
    146  NH1       16.8320   -2.6540   16.1100 N.pl3 139  ARG139      0.1354
    147  NH2       16.6670   -1.5050   18.0870 N.pl3 139  ARG139      0.1354
    148  N         10.9320   -4.2980   15.9710 N.am  140  ASN140     -0.1974
    149  CA         9.9200   -4.0330   16.9940 C.3   140  ASN140      0.1688
    150  C          8.5260   -3.7370   16.4490 C.2   140  ASN140      0.2292
    151  O          7.6240   -3.3760   17.2090 O.2   140  ASN140     -0.2864
    152  CB        10.4220   -2.8920   17.8800 C.3   140  ASN140      0.1181
    153  CG        11.6230   -3.3030   18.7140 C.2   140  ASN140      0.2629
    154  OD1       11.7650   -4.4790   19.0940 O.2   140  ASN140     -0.2716
    155  ND2       12.4920   -2.3480   19.0070 N.am  140  ASN140     -0.0877
    156  N          5.4250   -5.6800   14.1120 N.3   142  MET142     -0.1245
    157  CA         4.9760   -7.0380   13.8020 C.3   142  MET142      0.1570
    158  C          3.8970   -7.0810   12.7300 C.2   142  MET142      0.2261
    159  O          3.2670   -6.0710   12.4300 O.2   142  MET142     -0.2867
    160  CB         4.4820   -7.7110   15.0660 C.3   142  MET142      0.0387
    161  CG         5.5230   -7.6640   16.1610 C.3   142  MET142      0.0595
    162  SD         5.3670   -9.0060   17.3210 S.3   142  MET142     -0.1393
    163  CE         6.1120  -10.3430   16.4060 C.3   142  MET142      0.0692
    164  N          4.8530   -2.3700   17.8300 N.3   152  ALA152     -0.1231
    165  CA         4.8420   -3.2140   19.0220 C.3   152  ALA152      0.1694
    166  C          5.9680   -2.7760   19.9670 C.2   152  ALA152      0.2592
    167  O          6.4470   -1.6440   19.8530 O.2   152  ALA152     -0.2718
    168  CB         4.9770   -4.6750   18.6120 C.3   152  ALA152      0.0304
    169  N          6.3620   -3.6410   20.9080 N.am  153  ASP153     -0.1974
    170  CA         7.4850   -3.3820   21.8200 C.3   153  ASP153      0.1709
    171  C          7.2980   -2.1000   22.6500 C.2   153  ASP153      0.2293
    172  O          8.1780   -1.2500   22.7080 O.2   153  ASP153     -0.2864
    173  CB         8.8100   -3.3330   21.0380 C.3   153  ASP153      0.1436
    174  CG        10.0250   -3.1380   21.9360 C.2   153  ASP153      0.3671
    175  OD1       10.1230   -3.8270   22.9700 O.co2 153  ASP153     -0.2456
    176  OD2       10.8700   -2.2720   21.6060 O.co2 153  ASP153     -0.2456
    177  N          4.9300   -4.9410   26.9850 N.3   157  ALA157     -0.1245
    178  CA         5.6400   -5.7150   25.9600 C.3   157  ALA157      0.1562
    179  C          7.0630   -5.2100   25.6670 C.2   157  ALA157      0.2260
    180  O          7.7500   -5.7950   24.8340 O.2   157  ALA157     -0.2867
    181  CB         4.8290   -5.7410   24.6690 C.3   157  ALA157      0.0290
    182  N         14.4970   -7.4900   22.0420 N.3   161  TYR161     -0.1227
    183  CA        14.2150   -8.7570   21.3500 C.3   161  TYR161      0.1736
    184  C         15.3420   -9.2680   20.4280 C.2   161  TYR161      0.2595
    185  O         15.2990  -10.4130   19.9720 O.2   161  TYR161     -0.2718
    186  CB        12.8730   -8.6720   20.6110 C.3   161  TYR161      0.0548
    187  CG        11.6910   -8.6170   21.5600 C.ar  161  TYR161     -0.0200
    188  CD1       11.2910   -9.7520   22.2660 C.ar  161  TYR161     -0.0009
    189  CD2       10.9820   -7.4320   21.7650 C.ar  161  TYR161     -0.0009
    190  CE1       10.2210   -9.7160   23.1470 C.ar  161  TYR161      0.0417
    191  CE2        9.9050   -7.3880   22.6470 C.ar  161  TYR161      0.0417
    192  CZ         9.5290   -8.5360   23.3330 C.ar  161  TYR161      0.1957
    193  OH         8.4670   -8.5060   24.2060 O.3   161  TYR161     -0.2866
    194  N         16.3250   -8.4120   20.1510 N.am  162  ASP162     -0.1974
    195  CA        17.5860   -8.8140   19.5240 C.3   162  ASP162      0.1709
    196  C         18.6960   -8.0100   20.1920 C.2   162  ASP162      0.2293
    197  O         18.8850   -6.8300   19.8880 O.2   162  ASP162     -0.2864
    198  CB        17.5470   -8.5690   18.0050 C.3   162  ASP162      0.1436
    199  CG        18.7210   -9.2080   17.2610 C.2   162  ASP162      0.3671
    200  OD1       19.6890   -9.6810   17.9090 O.co2 162  ASP162     -0.2456
    201  OD2       18.6660   -9.2320   16.0040 O.co2 162  ASP162     -0.2456
@<TRIPOS>BOND
     1   116   115   ar
     2   116   114   ar
     3   115   113   ar
     4   106   105    1
     5   114   112   ar
     6   132   131    2
     7   113   112   ar
     8   112   111    1
     9   131   130    1
    10   105   104    1
    11   111   108    1
    12   104   103    1
    13   130   129    1
    14   130   133    1
    15   108   107    1
    16   108   109    1
    17   110   109    2
    18   103   102    1
    19   133   134    1
    20   124   123    2
    21   107   100   am
    22   109   117   am
    23   135   134    2
    24   102    99    1
    25   101   100    2
    26   100    99    1
    27   134   136   am
    28   123   122    1
    29    99    98    1
    30   159   158    2
    31   117   118    1
    32   158   157    1
    33   120   119    2
    34   128   126   ar
    35   119   118    1
    36   119   121   am
    37    98    92   am
    38   122   121    1
    39   122   125    1
    40   126   127   ar
    41   126   125    1
    42   137   138    1
    43   157   156    1
    44   157   160    1
    45    92    93    2
    46    92    91    1
    47   138   141    1
    48   138   139    1
    49    96    97    1
    50    96    95    1
    51    91    94    1
    52    91    90    1
    53   160   161    1
    54    94    95    1
    55    87    85   ar
    56    87    88   ar
    57   141   142    1
    58    89    88    1
    59   139   148   am
    60   139   140    2
    61    85    83   ar
    62   148   149    1
    63   201   199   ar
    64    81    80    2
    65    88    86   ar
    66   146   145    1
    67   161   162    1
    68   142   143    1
    69    90    80   am
    70   163   162    1
    71   150   149    1
    72   150   151    2
    73    80    79    1
    74   149   152    1
    75   143   144    1
    76   199   200   ar
    77   199   198    1
    78    83    82    1
    79    83    84   ar
    80   145   144    2
    81   145   147    1
    82    86    84   ar
    83   164   165    1
    84   152   153    1
    85    82    79    1
    86   198   195    1
    87    79    78    1
    88    55    56    1
    89    39    40   ar
    90    39    37   ar
    91    61    60    1
    92   168   165    1
    93   153   155   am
    94   153   154    2
    95    40    38   ar
    96    78    73   am
    97    56    59    1
    98    56    57    1
    99   165   166    1
   100    75    76    1
   101    75    72    1
   102    74    73    2
   103    59    60    1
   104    73    72    1
   105     4     3    2
   106     7     5    1
   107    76    77    1
   108   195   194    1
   109   195   196    1
   110    37    36   ar
   111    60    62    1
   112   167   166    2
   113   197   196    2
   114    72    71    1
   115   166   169   am
   116   185   184    2
   117    38    36   ar
   118    57    58    2
   119   194   184   am
   120   184   183    1
   121     3     2    1
   122     3     9   am
   123     6     5    1
   124     6     8    1
   125     2     5    1
   126     2     1    1
   127    36    35    1
   128   186   183    1
   129   186   187    1
   130   169   170    1
   131    77    71    1
   132   173   170    1
   133   173   174    1
   134    71    65   am
   135   183   182    1
   136     9    10    1
   137    10    11    1
   138   187   189   ar
   139   187   188   ar
   140   176   174   ar
   141   189   191   ar
   142    45    42    1
   143   170   171    1
   144   174   175   ar
   145    35    32    1
   146    65    66    2
   147    65    64    1
   148    41    42    1
   149   188   190   ar
   150   191   192   ar
   151   171   172    2
   152    42    43    1
   153    32    31    1
   154    32    33    1
   155    11    13   am
   156    11    12    2
   157    13    14    1
   158    67    64    1
   159    67    68    1
   160   190   192   ar
   161    16    15    2
   162    29    28    1
   163   192   193    1
   164    64    63    1
   165    33    34    2
   166    28    30    1
   167    28    25    1
   168    69    68    1
   169    43    44    2
   170    14    15    1
   171    14    17    1
   172    68    70    1
   173    27    26    2
   174    17    18    1
   175   181   178    1
   176    26    25    1
   177   180   179    2
   178    25    24    1
   179   179   178    1
   180    18    19    1
   181   178   177    1
   182    19    20    1
   183    52    53    1
   184    52    51    1
   185    46    47    1
   186    50    51    1
   187    50    47    1
   188    53    54    1
   189    47    48    1
   190    20    21    2
   191    22    21    1
   192    21    23    1
   193    48    49    2
