@<TRIPOS>MOLECULE
tmp/5uanB01.pdb
 207 195 0 0 0
SMALL
GASTEIGER

@<TRIPOS>ATOM
      1  N         -8.7870   27.0080  -52.5520 N.3    92  PHE92      -0.1241
      2  CA        -9.8720   26.0370  -52.5390 C.3    92  PHE92       0.1605
      3  C        -11.1810   26.7550  -52.2390 C.2    92  PHE92       0.2264
      4  O        -11.4960   27.0080  -51.0690 O.2    92  PHE92      -0.2867
      5  CB        -9.6070   24.9420  -51.5040 C.3    92  PHE92       0.0534
      6  CG       -10.5080   23.7460  -51.6400 C.ar   92  PHE92      -0.0203
      7  CD1      -10.2560   22.7810  -52.6020 C.ar   92  PHE92      -0.0042
      8  CD2      -11.5980   23.5800  -50.8000 C.ar   92  PHE92      -0.0042
      9  CE1      -11.0770   21.6770  -52.7300 C.ar   92  PHE92      -0.0003
     10  CE2      -12.4240   22.4770  -50.9230 C.ar   92  PHE92      -0.0003
     11  CZ       -12.1620   21.5250  -51.8900 C.ar   92  PHE92      -0.0000
     12  N        -13.7350    9.6460  -65.5300 N.3   118  TRP118     -0.1241
     13  CA       -12.3500    9.4410  -65.1250 C.3   118  TRP118      0.1605
     14  C        -11.5370   10.5240  -65.8210 C.2   118  TRP118      0.2264
     15  O        -10.5300   10.9860  -65.2750 O.2   118  TRP118     -0.2867
     16  CB       -11.7690    8.0610  -65.4320 C.3   118  TRP118      0.0550
     17  CG       -10.2810    8.0600  -65.5920 C.ar  118  TRP118      0.0003
     18  CD1       -9.5790    7.7940  -66.7310 C.ar  118  TRP118      0.0946
     19  CD2       -9.3100    8.3570  -64.5820 C.ar  118  TRP118      0.0152
     20  NE1       -8.2300    7.9000  -66.4910 N.ar  118  TRP118     -0.2442
     21  CE2       -8.0390    8.2460  -65.1790 C.ar  118  TRP118      0.0810
     22  CE3       -9.3930    8.7070  -63.2310 C.ar  118  TRP118      0.0012
     23  CZ2       -6.8620    8.4680  -64.4710 C.ar  118  TRP118      0.0191
     24  CZ3       -8.2240    8.9270  -62.5310 C.ar  118  TRP118      0.0001
     25  CH2       -6.9750    8.8070  -63.1510 C.ar  118  TRP118      0.0015
     26  N        -12.6500   13.8980  -64.0950 N.3   121  PHE121     -0.1241
     27  CA       -12.1050   13.7800  -62.7470 C.3   121  PHE121      0.1605
     28  C        -10.5830   13.8290  -62.7500 C.2   121  PHE121      0.2264
     29  O         -9.9750   14.2410  -61.7560 O.2   121  PHE121     -0.2867
     30  CB       -12.5890   12.4840  -62.0920 C.3   121  PHE121      0.0534
     31  CG       -11.9390   12.1950  -60.7660 C.ar  121  PHE121     -0.0203
     32  CD1      -12.4030   12.7950  -59.6080 C.ar  121  PHE121     -0.0042
     33  CD2      -10.8620   11.3260  -60.6790 C.ar  121  PHE121     -0.0042
     34  CE1      -11.8060   12.5350  -58.3890 C.ar  121  PHE121     -0.0003
     35  CE2      -10.2600   11.0630  -59.4630 C.ar  121  PHE121     -0.0003
     36  CZ       -10.7340   11.6680  -58.3160 C.ar  121  PHE121     -0.0000
     37  N         -9.6230   17.4980  -63.1870 N.3   124  LEU124     -0.1231
     38  CA        -9.9460   18.1270  -61.9100 C.3   124  LEU124      0.1693
     39  C         -8.9150   17.7730  -60.8440 C.2   124  LEU124      0.2591
     40  O         -8.5060   18.6320  -60.0520 O.2   124  LEU124     -0.2718
     41  CB       -11.3460   17.7140  -61.4590 C.3   124  LEU124      0.0284
     42  CG       -12.5170   18.4320  -62.1290 C.3   124  LEU124      0.0019
     43  CD1      -13.8390   17.8050  -61.7160 C.3   124  LEU124      0.0001
     44  CD2      -12.4920   19.9120  -61.7810 C.3   124  LEU124      0.0001
     45  N         -8.4770   16.5120  -60.8160 N.am  125  ALA125     -0.1980
     46  CA        -7.4800   16.0930  -59.8370 C.3   125  ALA125      0.1597
     47  C         -6.1530   16.8060  -60.0600 C.2   125  ALA125      0.2287
     48  O         -5.5310   17.2820  -59.1020 O.2   125  ALA125     -0.2864
     49  CB        -7.2920   14.5770  -59.8930 C.3   125  ALA125      0.0319
     50  N         -6.5410   20.3840  -58.7920 N.3   128  CYS128     -0.1221
     51  CA        -6.5490   20.5020  -57.3400 C.3   128  CYS128      0.1808
     52  C         -5.1910   20.1730  -56.7340 C.2   128  CYS128      0.2601
     53  O         -4.8700   20.6680  -55.6500 O.2   128  CYS128     -0.2717
     54  CB        -7.6310   19.6060  -56.7410 C.3   128  CYS128      0.0970
     55  SG        -8.0020   19.9800  -55.0130 S.3   128  CYS128     -0.0800
     56  N         -4.3830   19.3460  -57.4030 N.am  129  ILE129     -0.1979
     57  CA        -3.0220   19.1070  -56.9260 C.3   129  ILE129      0.1595
     58  C         -2.1680   20.3560  -57.1120 C.2   129  ILE129      0.2287
     59  O         -1.3960   20.7390  -56.2190 O.2   129  ILE129     -0.2864
     60  CB        -2.4080   17.8860  -57.6360 C.3   129  ILE129      0.0276
     61  CG1       -3.1250   16.6050  -57.2090 C.3   129  ILE129      0.0022
     62  CG2       -0.9230   17.7780  -57.3310 C.3   129  ILE129      0.0022
     63  CD1       -2.6760   15.3720  -57.9650 C.3   129  ILE129      0.0001
     64  N         -2.5640   13.1340  -50.6940 N.3   159  LEU159     -0.1245
     65  CA        -3.8300   12.4080  -50.6380 C.3   159  LEU159      0.1561
     66  C         -4.6640   12.8270  -49.4330 C.2   159  LEU159      0.2260
     67  O         -5.8890   12.9440  -49.5360 O.2   159  LEU159     -0.2867
     68  CB        -3.5770   10.9020  -50.6150 C.3   159  LEU159      0.0270
     69  CG        -3.5320   10.2060  -51.9750 C.3   159  LEU159      0.0019
     70  CD1       -3.2840    8.7220  -51.7960 C.3   159  LEU159      0.0001
     71  CD2       -4.8300   10.4450  -52.7260 C.3   159  LEU159      0.0001
     72  N         -6.2990   15.9980  -50.2450 N.3   162  LEU162     -0.1231
     73  CA        -7.3740   15.7790  -51.2080 C.3   162  LEU162      0.1693
     74  C         -8.6240   15.2330  -50.5280 C.2   162  LEU162      0.2591
     75  O         -9.7390   15.6950  -50.7930 O.2   162  LEU162     -0.2718
     76  CB        -6.9020   14.8310  -52.3090 C.3   162  LEU162      0.0284
     77  CG        -5.9560   15.4330  -53.3470 C.3   162  LEU162      0.0019
     78  CD1       -5.3340   14.3480  -54.2040 C.3   162  LEU162      0.0001
     79  CD2       -6.7040   16.4260  -54.2140 C.3   162  LEU162      0.0001
     80  N         -8.4560   14.2480  -49.6450 N.am  163  ILE163     -0.1980
     81  CA        -9.6080   13.6420  -48.9870 C.3   163  ILE163      0.1595
     82  C        -10.2850   14.6420  -48.0610 C.2   163  ILE163      0.2287
     83  O        -11.5180   14.7390  -48.0320 O.2   163  ILE163     -0.2864
     84  CB        -9.1870   12.3700  -48.2310 C.3   163  ILE163      0.0276
     85  CG1       -8.5520   11.3720  -49.1970 C.3   163  ILE163      0.0022
     86  CG2      -10.3880   11.7460  -47.5420 C.3   163  ILE163      0.0022
     87  CD1       -7.7050   10.3250  -48.5260 C.3   163  ILE163      0.0001
     88  N        -10.2200   18.0060  -48.1980 N.3   165  ARG165     -0.1231
     89  CA       -10.8550   19.0580  -48.9860 C.3   165  ARG165      0.1694
     90  C        -12.1200   18.5520  -49.6680 C.2   165  ARG165      0.2591
     91  O        -13.1660   19.2100  -49.6260 O.2   165  ARG165     -0.2718
     92  CB        -9.8680   19.6060  -50.0180 C.3   165  ARG165      0.0321
     93  CG        -8.7550   20.4540  -49.4310 C.3   165  ARG165      0.0489
     94  CD        -7.9220   21.0900  -50.5270 C.3   165  ARG165      0.2205
     95  NE        -7.1270   22.1990  -50.0140 N.pl3 165  ARG165     -0.0865
     96  CZ        -6.4520   23.0500  -50.7780 C.cat 165  ARG165      0.5346
     97  NH1       -6.4730   22.9220  -52.0990 N.pl3 165  ARG165      0.1354
     98  NH2       -5.7580   24.0320  -50.2210 N.pl3 165  ARG165      0.1354
     99  N        -12.0460   17.3810  -50.3050 N.am  166  ILE166     -0.1980
    100  CA       -13.2130   16.8590  -51.0020 C.3   166  ILE166      0.1595
    101  C        -14.3030   16.4400  -50.0260 C.2   166  ILE166      0.2287
    102  O        -15.4800   16.4020  -50.3980 O.2   166  ILE166     -0.2864
    103  CB       -12.8170   15.6900  -51.9250 C.3   166  ILE166      0.0276
    104  CG1      -13.8290   15.5410  -53.0600 C.3   166  ILE166      0.0022
    105  CG2      -12.7130   14.3910  -51.1450 C.3   166  ILE166      0.0022
    106  CD1      -13.9650   16.7770  -53.9150 C.3   166  ILE166      0.0001
    107  N        -16.8870   19.3280  -56.8000 N.3   179  PHE179     -0.1227
    108  CA       -15.4910   19.5970  -57.1080 C.3   179  PHE179      0.1736
    109  C        -15.2710   21.1010  -57.2850 C.2   179  PHE179      0.2596
    110  O        -16.1660   21.9140  -57.0440 O.2   179  PHE179     -0.2718
    111  CB       -15.0690   18.7980  -58.3390 C.3   179  PHE179      0.0547
    112  CG       -15.0760   17.3100  -58.1250 C.ar  179  PHE179     -0.0202
    113  CD1      -13.9460   16.6610  -57.6600 C.ar  179  PHE179     -0.0042
    114  CD2      -16.2120   16.5620  -58.3840 C.ar  179  PHE179     -0.0042
    115  CE1      -13.9460   15.2940  -57.4590 C.ar  179  PHE179     -0.0003
    116  CE2      -16.2180   15.1930  -58.1850 C.ar  179  PHE179     -0.0003
    117  CZ       -15.0830   14.5590  -57.7220 C.ar  179  PHE179     -0.0000
    118  N        -14.0660   21.4870  -57.7100 N.am  180  SER180     -0.1952
    119  CA       -13.6660   22.8900  -57.7420 C.3   180  SER180      0.1924
    120  C        -14.3040   23.6840  -58.8740 C.2   180  SER180      0.2314
    121  O        -14.1770   24.9140  -58.8890 O.2   180  SER180     -0.2863
    122  CB       -12.1420   23.0020  -57.8500 C.3   180  SER180      0.2116
    123  OG       -11.5110   22.4660  -56.7020 O.3   180  SER180     -0.2180
    124  N        -13.7550    6.4770  -60.3600 N.3   194  GLY194     -0.1210
    125  CA       -12.4410    5.9420  -60.0590 C.3   194  GLY194      0.1956
    126  C        -12.1190    5.9260  -58.5790 C.2   194  GLY194      0.2611
    127  O        -10.9480    5.9320  -58.1890 O.2   194  GLY194     -0.2717
    128  N        -13.1540    5.9180  -57.7420 N.am  195  PHE195     -0.1976
    129  CA       -12.9590    5.7810  -56.3040 C.3   195  PHE195      0.1639
    130  C        -13.0390    4.3230  -55.8640 C.2   195  PHE195      0.2290
    131  O        -12.1760    3.8480  -55.1180 O.2   195  PHE195     -0.2864
    132  CB       -13.9900    6.6250  -55.5500 C.3   195  PHE195      0.0560
    133  CG       -13.5280    8.0200  -55.2510 C.ar  195  PHE195     -0.0200
    134  CD1      -13.5220    8.9930  -56.2390 C.ar  195  PHE195     -0.0042
    135  CD2      -13.1070    8.3620  -53.9770 C.ar  195  PHE195     -0.0042
    136  CE1      -13.0980   10.2790  -55.9610 C.ar  195  PHE195     -0.0003
    137  CE2      -12.6830    9.6460  -53.6920 C.ar  195  PHE195     -0.0003
    138  CZ       -12.6780   10.6050  -54.6850 C.ar  195  PHE195     -0.0000
    139  N        -12.6590    2.8260  -52.1160 N.3   198  LEU198     -0.1245
    140  CA       -12.4450    4.0080  -51.2890 C.3   198  LEU198      0.1561
    141  C        -13.7650    4.6770  -50.9340 C.2   198  LEU198      0.2260
    142  O        -13.9680    5.0910  -49.7850 O.2   198  LEU198     -0.2867
    143  CB       -11.5310    4.9970  -52.0100 C.3   198  LEU198      0.0270
    144  CG       -10.0210    4.7790  -51.9390 C.3   198  LEU198      0.0019
    145  CD1       -9.3220    5.7260  -52.8950 C.3   198  LEU198      0.0001
    146  CD2       -9.5320    4.9950  -50.5200 C.3   198  LEU198      0.0001
    147  N        -14.5490    6.9020  -47.6840 N.3   202  VAL202     -0.1245
    148  CA       -14.3820    8.3440  -47.8650 C.3   202  VAL202      0.1561
    149  C        -15.6520    9.0730  -47.4470 C.2   202  VAL202      0.2260
    150  O        -15.6260    9.9600  -46.5830 O.2   202  VAL202     -0.2867
    151  CB       -13.9960    8.6680  -49.3200 C.3   202  VAL202      0.0252
    152  CG1      -14.0170   10.1690  -49.5510 C.3   202  VAL202      0.0019
    153  CG2      -12.6230    8.0990  -49.6500 C.3   202  VAL202      0.0019
    154  N         -5.8150    4.5790  -50.4850 N.3   284  GLY284     -0.1225
    155  CA        -5.9730    5.2470  -51.7670 C.3   284  GLY284      0.1811
    156  C         -4.7080    5.2210  -52.6040 C.2   284  GLY284      0.2280
    157  O         -4.7660    5.0830  -53.8340 O.2   284  GLY284     -0.2866
    158  N         -4.8860    2.2660  -54.2950 N.3   287  ARG287     -0.1231
    159  CA        -6.0220    2.3570  -55.2050 C.3   287  ARG287      0.1694
    160  C         -5.5990    2.9550  -56.5400 C.2   287  ARG287      0.2591
    161  O         -6.1610    2.6050  -57.5870 O.2   287  ARG287     -0.2718
    162  CB        -7.1470    3.1800  -54.5760 C.3   287  ARG287      0.0321
    163  CG        -8.3990    3.2740  -55.4310 C.3   287  ARG287      0.0489
    164  CD        -9.0840    1.9240  -55.5680 C.3   287  ARG287      0.2205
    165  NE       -10.3090    2.0230  -56.3560 N.pl3 287  ARG287     -0.0865
    166  CZ       -10.3770    1.7920  -57.6630 C.cat 287  ARG287      0.5346
    167  NH1       -9.2890    1.4400  -58.3330 N.pl3 287  ARG287      0.1354
    168  NH2      -11.5340    1.9080  -58.2990 N.pl3 287  ARG287      0.1354
    169  N         -4.5880    3.8270  -56.5270 N.am  288  VAL288     -0.1980
    170  CA        -4.0520    4.3630  -57.7760 C.3   288  VAL288      0.1595
    171  C         -3.4450    3.2480  -58.6240 C.2   288  VAL288      0.2287
    172  O         -3.6960    3.1590  -59.8330 O.2   288  VAL288     -0.2864
    173  CB        -3.0300    5.4750  -57.4880 C.3   288  VAL288      0.0276
    174  CG1       -2.5450    6.0880  -58.7940 C.3   288  VAL288      0.0022
    175  CG2       -3.6510    6.5300  -56.5960 C.3   288  VAL288      0.0022
    176  N         -5.9790    1.4410  -60.2750 N.3   291  LEU291     -0.1245
    177  CA        -6.4700    2.1830  -61.4310 C.3   291  LEU291      0.1561
    178  C         -5.4790    2.2040  -62.5870 C.2   291  LEU291      0.2260
    179  O         -5.8560    2.6200  -63.6880 O.2   291  LEU291     -0.2867
    180  CB        -6.8100    3.6220  -61.0350 C.3   291  LEU291      0.0270
    181  CG        -8.1130    3.8700  -60.2750 C.3   291  LEU291      0.0019
    182  CD1       -8.2630    5.3480  -59.9550 C.3   291  LEU291      0.0001
    183  CD2       -9.2930    3.3720  -61.0880 C.3   291  LEU291      0.0001
    184  N         -1.7720    7.2080  -66.8430 N.3   299  MET299     -0.1245
    185  CA        -2.0660    8.1000  -65.7330 C.3   299  MET299      0.1570
    186  C         -1.5170    9.4930  -66.0290 C.2   299  MET299      0.2261
    187  O         -0.4030    9.6190  -66.5430 O.2   299  MET299     -0.2867
    188  CB        -1.4550    7.5640  -64.4400 C.3   299  MET299      0.0387
    189  CG        -1.9000    8.3020  -63.1840 C.3   299  MET299      0.0595
    190  SD        -3.6310    8.0060  -62.7720 S.3   299  MET299     -0.1393
    191  CE        -3.6440    6.2200  -62.6290 C.3   299  MET299      0.0692
    192  N         -0.4790   13.3560  -61.2880 N.3   303  ILE303     -0.1245
    193  CA        -1.1690   12.4270  -60.4010 C.3   303  ILE303      0.1561
    194  C         -0.2210   11.2920  -60.0340 C.2   303  ILE303      0.2260
    195  O         -0.0450   10.9690  -58.8540 O.2   303  ILE303     -0.2867
    196  CB        -2.4660   11.9000  -61.0370 C.3   303  ILE303      0.0252
    197  CG1       -3.4490   13.0490  -61.2700 C.3   303  ILE303      0.0019
    198  CG2       -3.0850   10.8230  -60.1630 C.3   303  ILE303      0.0019
    199  CD1       -4.7320   12.6270  -61.9450 C.3   303  ILE303      0.0001
    200  N          1.5830   10.7840  -56.4680 N.3   307  LEU307     -0.1245
    201  CA         1.0340    9.6470  -55.7420 C.3   307  LEU307      0.1561
    202  C          1.9350    8.4200  -55.8260 C.2   307  LEU307      0.2260
    203  O          1.5500    7.3440  -55.3540 O.2   307  LEU307     -0.2867
    204  CB        -0.3740    9.3230  -56.2510 C.3   307  LEU307      0.0270
    205  CG        -1.4650   10.3790  -56.0210 C.3   307  LEU307      0.0019
    206  CD1       -2.7830   10.0090  -56.6970 C.3   307  LEU307      0.0001
    207  CD2       -1.6890   10.6120  -54.5310 C.3   307  LEU307      0.0001
@<TRIPOS>BOND
     1   184   185    1
     2    18    20   ar
     3    18    17   ar
     4   187   186    2
     5    20    21   ar
     6   186   185    1
     7    14    15    2
     8    14    13    1
     9   185   188    1
    10    17    16    1
    11    17    19   ar
    12    12    13    1
    13    16    13    1
    14    21    19   ar
    15    21    23   ar
    16    19    22   ar
    17    23    25   ar
    18   188   189    1
    19    26    27    1
    20   179   178    2
    21    22    24   ar
    22    37    38    1
    23   189   190    1
    24    25    24   ar
    25   190   191    1
    26    28    27    1
    27    28    29    2
    28    27    30    1
    29   178   177    1
    30    42    44    1
    31    42    43    1
    32    42    41    1
    33    30    31    1
    34   199   197    1
    35    38    41    1
    36    38    39    1
    37   177   180    1
    38   177   176    1
    39   192   193    1
    40   197   196    1
    41   183   181    1
    42   196   193    1
    43   196   198    1
    44   180   181    1
    45    39    45   am
    46    39    40    2
    47    45    46    1
    48    31    33   ar
    49    31    32   ar
    50    33    35   ar
    51   193   194    1
    52   124   125    1
    53   181   182    1
    54    47    46    1
    55    47    48    2
    56   125   126    1
    57   194   195    2
    58    49    46    1
    59   172   171    2
    60    32    34   ar
    61    35    36   ar
    62   121   120    2
    63   120   119    1
    64   174   173    1
    65    50    51    1
    66   171   170    1
    67   126   127    2
    68   126   128   am
    69    34    36   ar
    70   114   116   ar
    71   114   112   ar
    72   111   112    1
    73   111   108    1
    74   167   166    1
    75   168   166    1
    76   116   117   ar
    77   112   113   ar
    78    63    61    1
    79   122   119    1
    80   122   123    1
    81   170   173    1
    82   170   169    1
    83   128   129    1
    84   119   118    1
    85   117   115   ar
    86   118   109   am
    87   166   165    2
    88   113   115   ar
    89    60    62    1
    90    60    61    1
    91    60    57    1
    92   161   160    2
    93   173   175    1
    94    56    57    1
    95    56    52   am
    96    51    54    1
    97    51    52    1
    98   109   108    1
    99   109   110    2
   100    58    57    1
   101    58    59    2
   102   108   107    1
   103    54    55    1
   104    52    53    2
   105   206   205    1
   106   160   169   am
   107   160   159    1
   108   200   201    1
   109   165   164    1
   110   129   130    1
   111   129   132    1
   112   204   205    1
   113   204   201    1
   114   134   136   ar
   115   134   133   ar
   116   205   207    1
   117   136   138   ar
   118   130   131    2
   119   202   201    1
   120   202   203    2
   121   164   163    1
   122   132   133    1
   123   163   162    1
   124   133   135   ar
   125   159   162    1
   126   159   158    1
   127   138   137   ar
   128    79    77    1
   129    78    77    1
   130   135   137   ar
   131   106   104    1
   132   157   156    2
   133    77    76    1
   134   104   103    1
   135   145   144    1
   136     9     7   ar
   137     9    11   ar
   138    71    69    1
   139   156   155    1
   140     7     6   ar
   141     1     2    1
   142     2     3    1
   143     2     5    1
   144    76    73    1
   145     3     4    2
   146   139   140    1
   147    97    96    1
   148   143   144    1
   149   143   140    1
   150    69    70    1
   151    69    68    1
   152   144   146    1
   153   103   105    1
   154   103   100    1
   155    11    10   ar
   156   155   154    1
   157     6     5    1
   158     6     8   ar
   159   140   141    1
   160    73    74    1
   161    73    72    1
   162   100    99    1
   163   100   101    1
   164   141   142    2
   165    10     8   ar
   166    75    74    2
   167    96    98    1
   168    96    95    2
   169    64    65    1
   170    65    68    1
   171    65    66    1
   172    74    80   am
   173    94    95    1
   174    94    93    1
   175   102   101    2
   176    99    90   am
   177    92    93    1
   178    92    89    1
   179    90    91    2
   180    90    89    1
   181   153   151    1
   182    80    81    1
   183   152   151    1
   184    67    66    2
   185   151   148    1
   186    85    87    1
   187    85    84    1
   188    81    84    1
   189    81    82    1
   190    89    88    1
   191    84    86    1
   192    82    83    2
   193   148   147    1
   194   148   149    1
   195   149   150    2
