@<TRIPOS>MOLECULE
tmp/5uapB03.pdb
 93 86 0 0 0
SMALL
GASTEIGER

@<TRIPOS>ATOM
      1  N        -12.8250  -11.6860   49.0580 N.3    15  LEU15      -0.1231
      2  CA       -13.7220  -10.6350   48.6070 C.3    15  LEU15       0.1693
      3  C        -14.9880  -10.5480   49.4160 C.2    15  LEU15       0.2591
      4  O        -15.4810   -9.4530   49.7140 O.2    15  LEU15      -0.2718
      5  CB       -14.0800  -10.7900   47.0990 C.3    15  LEU15       0.0284
      6  CG       -15.1110   -9.7770   46.5360 C.3    15  LEU15       0.0019
      7  CD1      -14.4870   -8.4170   46.5300 C.3    15  LEU15       0.0001
      8  CD2      -15.6090  -10.0410   45.1400 C.3    15  LEU15       0.0001
      9  N        -15.6020  -11.6930   49.7220 N.am   16  LEU16      -0.1980
     10  CA       -16.9490  -11.6340   50.2800 C.3    16  LEU16       0.1596
     11  C        -16.9470  -11.2590   51.7610 C.2    16  LEU16       0.2287
     12  O        -17.9510  -10.8570   52.3060 O.2    16  LEU16      -0.2864
     13  CB       -17.7170  -12.9600   50.0360 C.3    16  LEU16       0.0297
     14  CG       -17.8850  -13.2660   48.5400 C.3    16  LEU16       0.0022
     15  CD1      -18.7190  -14.5170   48.3660 C.3    16  LEU16       0.0001
     16  CD2      -18.5040  -12.0810   47.7850 C.3    16  LEU16       0.0001
     17  N        -14.9870   -8.6570   52.6700 N.3    18  MET18      -0.1230
     18  CA       -14.4220   -7.2840   52.7050 C.3    18  MET18       0.1702
     19  C        -15.5310   -6.3430   53.0170 C.2    18  MET18       0.2592
     20  O        -16.6900   -6.6940   52.8580 O.2    18  MET18      -0.2718
     21  CB       -13.8650   -6.8860   51.3650 C.3    18  MET18       0.0401
     22  CG       -12.7570   -7.7740   50.8980 C.3    18  MET18       0.0596
     23  SD       -11.2430   -7.7340   51.8700 S.3    18  MET18      -0.1393
     24  CE       -10.5190   -6.2420   51.2160 C.3    18  MET18       0.0692
     25  N        -15.1670   -5.1290   53.3990 N.am   19  ASP19      -0.1960
     26  CA       -16.1090   -4.0500   53.6790 C.3    19  ASP19       0.1840
     27  C        -16.1270   -3.1350   52.4840 C.2    19  ASP19       0.2621
     28  O        -15.0650   -2.7750   51.9580 O.2    19  ASP19      -0.2715
     29  CB       -15.6230   -3.2960   54.9060 C.3    19  ASP19       0.1450
     30  CG       -16.6180   -2.2580   55.3790 C.2    19  ASP19       0.3671
     31  OD1      -17.0420   -1.3890   54.5890 O.co2  19  ASP19      -0.2456
     32  OD2      -16.9880   -2.3280   56.5750 O.co2  19  ASP19      -0.2456
     33  N        -17.3120   -2.7290   52.0470 N.am   20  ARG20      -0.1977
     34  CA       -17.4060   -2.0250   50.7630 C.3    20  ARG20       0.1597
     35  C        -16.8690   -0.6200   50.8670 C.2    20  ARG20       0.2287
     36  O        -16.6970    0.0480   49.8930 O.2    20  ARG20      -0.2864
     37  CB       -18.8310   -1.9770   50.2440 C.3    20  ARG20       0.0334
     38  CG       -19.7060   -1.0440   51.0470 C.3    20  ARG20       0.0492
     39  CD       -21.1660   -1.4330   50.9330 C.3    20  ARG20       0.2205
     40  NE       -21.3560   -2.8060   51.4000 N.pl3  20  ARG20      -0.0865
     41  CZ       -21.4410   -3.1910   52.6900 C.cat  20  ARG20       0.5346
     42  NH1      -21.3250   -2.3330   53.7150 N.pl3  20  ARG20       0.1354
     43  NH2      -21.5820   -4.4930   52.9690 N.pl3  20  ARG20       0.1354
     44  N        -13.9390   -0.0260   51.8210 N.3    22  GLY22      -0.1210
     45  CA       -12.6020   -0.0800   51.2690 C.3    22  GLY22       0.1956
     46  C        -11.6750   -1.0850   51.8990 C.2    22  GLY22       0.2611
     47  O        -12.0400   -1.8190   52.8530 O.2    22  GLY22      -0.2717
     48  N        -10.4210   -1.0330   51.4710 N.am   23  LEU23      -0.1979
     49  CA        -9.4460   -1.9530   51.9760 C.3    23  LEU23       0.1596
     50  C         -9.1240   -1.7360   53.4470 C.2    23  LEU23       0.2287
     51  O         -9.0140   -2.6950   54.2030 O.2    23  LEU23      -0.2864
     52  CB        -8.1630   -1.9360   51.1540 C.3    23  LEU23       0.0297
     53  CG        -8.3410   -2.3040   49.6580 C.3    23  LEU23       0.0022
     54  CD1       -6.9790   -2.1370   48.9690 C.3    23  LEU23       0.0001
     55  CD2       -8.8430   -3.7290   49.5010 C.3    23  LEU23       0.0001
     56  N        -11.8680   -2.7760   55.7080 N.3    26  SER26      -0.1217
     57  CA       -11.8930   -4.2180   55.6730 C.3    26  SER26       0.1889
     58  C        -10.8830   -4.7990   56.6020 C.2    26  SER26       0.2288
     59  O        -11.1520   -5.7370   57.3750 O.2    26  SER26      -0.2866
     60  CB       -11.5800   -4.7160   54.2570 C.3    26  SER26       0.2089
     61  OG       -12.5810   -4.2880   53.3540 O.3    26  SER26      -0.2183
     62  N        -12.0370    3.5930   44.6730 N.3   183  VAL183     -0.1245
     63  CA       -12.6140    2.2850   44.9290 C.3   183  VAL183      0.1561
     64  C        -12.2210    1.3350   43.8290 C.2   183  VAL183      0.2260
     65  O        -11.8110    0.2040   44.1220 O.2   183  VAL183     -0.2867
     66  CB       -14.1420    2.4000   45.0920 C.3   183  VAL183      0.0252
     67  CG1      -14.7650    1.0380   45.2330 C.3   183  VAL183      0.0019
     68  CG2      -14.4710    3.1980   46.3580 C.3   183  VAL183      0.0019
     69  N         -8.6360    0.2000   44.4110 N.3   186  GLN186     -0.1231
     70  CA        -8.6170   -0.8160   45.4600 C.3   186  GLN186      0.1698
     71  C         -9.1010   -2.1620   44.9610 C.2   186  GLN186      0.2592
     72  O         -8.4790   -3.1860   45.2540 O.2   186  GLN186     -0.2718
     73  CB        -9.4670   -0.3820   46.6540 C.3   186  GLN186      0.0381
     74  CG        -8.8640    0.7910   47.3950 C.3   186  GLN186      0.0905
     75  CD        -9.8100    1.4110   48.3600 C.2   186  GLN186      0.2608
     76  OE1      -10.0610    0.8670   49.4490 O.2   186  GLN186     -0.2717
     77  NE2      -10.3360    2.5650   48.0050 N.am  186  GLN186     -0.0878
     78  N        -10.1530   -2.1440   44.1590 N.am  187  LEU187     -0.1980
     79  CA       -10.6600   -3.3780   43.4840 C.3   187  LEU187      0.1596
     80  C         -9.6220   -3.9720   42.5170 C.2   187  LEU187      0.2287
     81  O         -9.4440   -5.1630   42.4650 O.2   187  LEU187     -0.2864
     82  CB       -11.9510   -3.0830   42.7600 C.3   187  LEU187      0.0297
     83  CG       -12.6940   -4.3540   42.3480 C.3   187  LEU187      0.0022
     84  CD1      -13.3390   -4.9770   43.5760 C.3   187  LEU187      0.0001
     85  CD2      -13.7150   -4.1200   41.2420 C.3   187  LEU187      0.0001
     86  N         -7.1540   -6.1350   44.0100 N.3   190  LEU190     -0.1245
     87  CA        -7.6570   -7.5090   44.1480 C.3   190  LEU190      0.1561
     88  C         -7.6320   -8.2840   42.8110 C.2   190  LEU190      0.2260
     89  O         -7.1750   -9.4340   42.7550 O.2   190  LEU190     -0.2867
     90  CB        -9.1050   -7.4680   44.6540 C.3   190  LEU190      0.0270
     91  CG        -9.4360   -6.7300   45.9590 C.3   190  LEU190      0.0019
     92  CD1      -10.7090   -7.2450   46.5710 C.3   190  LEU190      0.0001
     93  CD2       -8.3530   -6.8220   46.9870 C.3   190  LEU190      0.0001
@<TRIPOS>BOND
     1    85    83    1
     2    83    82    1
     3    83    84    1
     4    81    80    2
     5    80    79    1
     6    89    88    2
     7    82    79    1
     8    88    87    1
     9    79    78    1
    10    64    65    2
    11    64    63    1
    12    86    87    1
    13    87    90    1
    14    78    71   am
    15    69    70    1
    16    90    91    1
    17    62    63    1
    18    63    66    1
    19    71    72    2
    20    71    70    1
    21    66    67    1
    22    66    68    1
    23     8     6    1
    24    70    73    1
    25    91    92    1
    26    91    93    1
    27     7     6    1
    28     6     5    1
    29    73    74    1
    30     5     2    1
    31    74    75    1
    32    16    14    1
    33    77    75   am
    34    75    76    2
    35    15    14    1
    36    14    13    1
    37     2     1    1
    38     2     3    1
    39    54    53    1
    40     3     4    2
    41     3     9   am
    42    55    53    1
    43    53    52    1
    44     9    10    1
    45    36    35    2
    46    13    10    1
    47    37    34    1
    48    37    38    1
    49    10    11    1
    50    34    35    1
    51    34    33    1
    52    22    21    1
    53    22    23    1
    54    39    38    1
    55    39    40    1
    56    52    49    1
    57    24    23    1
    58    45    44    1
    59    45    46    1
    60    21    18    1
    61    40    41    2
    62    48    46   am
    63    48    49    1
    64    11    12    2
    65    46    47    2
    66    28    27    2
    67    49    50    1
    68    33    27   am
    69    27    26    1
    70    17    18    1
    71    41    43    1
    72    41    42    1
    73    18    19    1
    74    20    19    2
    75    19    25   am
    76    61    60    1
    77    25    26    1
    78    50    51    2
    79    26    29    1
    80    60    57    1
    81    31    30   ar
    82    29    30    1
    83    30    32   ar
    84    57    56    1
    85    57    58    1
    86    58    59    2
