@<TRIPOS>MOLECULE
tmp/5uapB04.pdb
 124 116 0 0 0
SMALL
GASTEIGER

@<TRIPOS>ATOM
      1  N          2.0150   -1.9080   43.4490 N.3    73  ILE73      -0.1245
      2  CA         0.7060   -1.3190   43.5620 C.3    73  ILE73       0.1561
      3  C          0.1250   -1.5800   42.2290 C.2    73  ILE73       0.2260
      4  O          0.5960   -1.0450   41.2450 O.2    73  ILE73      -0.2867
      5  CB         0.7440    0.1830   43.8870 C.3    73  ILE73       0.0252
      6  CG1        1.2530    0.3810   45.3360 C.3    73  ILE73       0.0019
      7  CG2       -0.6100    0.8500   43.6850 C.3    73  ILE73       0.0019
      8  CD1        1.6500    1.8210   45.6570 C.3    73  ILE73       0.0001
      9  N         -0.3320    1.0340   39.3190 N.3    76  VAL76      -0.1245
     10  CA         0.8300    1.7080   38.6990 C.3    76  VAL76       0.1561
     11  C          1.9750    0.7500   38.2950 C.2    76  VAL76       0.2260
     12  O          2.8440    1.1590   37.5770 O.2    76  VAL76      -0.2867
     13  CB         1.4160    2.8300   39.5780 C.3    76  VAL76       0.0252
     14  CG1        0.3710    3.8950   39.8760 C.3    76  VAL76       0.0019
     15  CG2        1.9860    2.3240   40.8620 C.3    76  VAL76       0.0019
     16  N          5.4710    1.5520   36.2260 N.3    80  PHE80      -0.1241
     17  CA         6.7860    1.5030   36.8040 C.3    80  PHE80       0.1605
     18  C          7.6160    0.2630   36.5230 C.2    80  PHE80       0.2264
     19  O          8.7770    0.3690   36.3620 O.2    80  PHE80      -0.2867
     20  CB         6.7370    1.8190   38.2820 C.3    80  PHE80       0.0534
     21  CG         6.3370    3.2260   38.5610 C.ar   80  PHE80      -0.0203
     22  CD1        7.2400    4.2420   38.4500 C.ar   80  PHE80      -0.0042
     23  CD2        5.0610    3.5440   38.9120 C.ar   80  PHE80      -0.0042
     24  CE1        6.8910    5.4920   38.6830 C.ar   80  PHE80      -0.0003
     25  CE2        4.7270    4.8460   39.1300 C.ar   80  PHE80      -0.0003
     26  CZ         5.6610    5.8060   39.0350 C.ar   80  PHE80      -0.0000
     27  N         11.3410    3.8750   44.2130 N.3    86  ILE86      -0.1231
     28  CA        10.1490    3.4230   44.9640 C.3    86  ILE86       0.1692
     29  C          9.8500    1.9990   44.6420 C.2    86  ILE86       0.2592
     30  O          9.6950    1.1730   45.5440 O.2    86  ILE86      -0.2718
     31  CB         8.9260    4.2600   44.6430 C.3    86  ILE86       0.0266
     32  CG1        9.2140    5.7460   44.9080 C.3    86  ILE86       0.0019
     33  CG2        7.7170    3.7620   45.4470 C.3    86  ILE86       0.0020
     34  CD1        8.0690    6.6490   44.4350 C.3    86  ILE86       0.0001
     35  N          9.8530    1.6440   43.3620 N.am   87  PHE87      -0.1976
     36  CA         9.4050    0.3370   43.0070 C.3    87  PHE87       0.1639
     37  C         10.4720   -0.6820   42.7750 C.2    87  PHE87       0.2290
     38  O         10.1470   -1.8070   42.5020 O.2    87  PHE87      -0.2864
     39  CB         8.3930    0.4250   41.8920 C.3    87  PHE87       0.0560
     40  CG         7.1010    1.0730   42.3590 C.ar   87  PHE87      -0.0200
     41  CD1        6.3130    0.4470   43.2980 C.ar   87  PHE87      -0.0042
     42  CD2        6.7690    2.3800   41.9580 C.ar   87  PHE87      -0.0042
     43  CE1        5.1630    1.0780   43.7720 C.ar   87  PHE87      -0.0003
     44  CE2        5.6510    3.0050   42.4740 C.ar   87  PHE87      -0.0003
     45  CZ         4.8700    2.3720   43.3780 C.ar   87  PHE87      -0.0000
     46  N         -3.1680   10.3380   41.6580 N.3   177  PHE177     -0.1241
     47  CA        -3.2130    9.8990   43.0720 C.3   177  PHE177      0.1605
     48  C         -4.6570    9.5680   43.4540 C.2   177  PHE177      0.2264
     49  O         -4.9290    8.5560   44.1410 O.2   177  PHE177     -0.2867
     50  CB        -2.6110   10.9520   43.9510 C.3   177  PHE177      0.0534
     51  CG        -2.3010   10.5200   45.3630 C.ar  177  PHE177     -0.0203
     52  CD1       -1.8860    9.2440   45.6680 C.ar  177  PHE177     -0.0042
     53  CD2       -2.3660   11.4570   46.4040 C.ar  177  PHE177     -0.0042
     54  CE1       -1.5730    8.8840   46.9830 C.ar  177  PHE177     -0.0003
     55  CE2       -2.0230   11.1150   47.7180 C.ar  177  PHE177     -0.0003
     56  CZ        -1.6490    9.8140   48.0080 C.ar  177  PHE177     -0.0000
     57  N         -5.8560    6.2300   41.7970 N.3   180  ILE180     -0.1245
     58  CA        -5.1570    5.1330   42.4070 C.3   180  ILE180      0.1561
     59  C         -5.8240    4.7940   43.7240 C.2   180  ILE180      0.2260
     60  O         -5.8690    3.6450   44.0640 O.2   180  ILE180     -0.2867
     61  CB        -3.6710    5.5310   42.7040 C.3   180  ILE180      0.0252
     62  CG1       -2.9010    5.5130   41.4100 C.3   180  ILE180      0.0019
     63  CG2       -2.9990    4.5780   43.6850 C.3   180  ILE180      0.0019
     64  CD1       -1.5120    6.1460   41.4800 C.3   180  ILE180      0.0001
     65  N          9.3660    9.1690   39.9150 N.3   265  SER265     -0.1217
     66  CA         9.0950    8.6660   41.2310 C.3   265  SER265      0.1889
     67  C          9.3220    9.7820   42.2380 C.2   265  SER265      0.2288
     68  O          8.4870   10.0040   43.1140 O.2   265  SER265     -0.2866
     69  CB         9.9820    7.4700   41.5750 C.3   265  SER265      0.2089
     70  OG         9.4750    6.3550   40.8520 O.3   265  SER265     -0.2183
     71  N          6.5810   12.4120   41.8920 N.3   268  PHE268     -0.1227
     72  CA         5.2890   11.9310   42.3660 C.3   268  PHE268      0.1736
     73  C          5.2420   11.9080   43.8890 C.2   268  PHE268      0.2595
     74  O          4.3040   12.4220   44.4990 O.2   268  PHE268     -0.2718
     75  CB         4.9990   10.5360   41.8090 C.3   268  PHE268      0.0547
     76  CG         3.5350   10.2100   41.7240 C.ar  268  PHE268     -0.0202
     77  CD1        2.5990   10.9870   42.3860 C.ar  268  PHE268     -0.0042
     78  CD2        3.0950    9.1260   40.9830 C.ar  268  PHE268     -0.0042
     79  CE1        1.2520   10.6890   42.3110 C.ar  268  PHE268     -0.0003
     80  CE2        1.7490    8.8230   40.9040 C.ar  268  PHE268     -0.0003
     81  CZ         0.8260    9.6060   41.5680 C.ar  268  PHE268     -0.0000
     82  N          6.2600   11.3080   44.4970 N.am  269  ALA269     -0.1980
     83  CA         6.3430   11.2280   45.9230 C.3   269  ALA269      0.1597
     84  C          6.5930   12.6070   46.5270 C.2   269  ALA269      0.2287
     85  O          5.9600   12.9710   47.4260 O.2   269  ALA269     -0.2864
     86  CB         7.3580   10.2650   46.3330 C.3   269  ALA269      0.0319
     87  N          2.9940   15.0500   45.6940 N.3   272  GLU272     -0.1231
     88  CA         1.6120   14.7610   45.9850 C.3   272  GLU272      0.1699
     89  C          1.4280   14.4300   47.5020 C.2   272  GLU272      0.2592
     90  O          0.3870   14.6890   48.0670 O.2   272  GLU272     -0.2718
     91  CB         1.1220   13.6830   45.0720 C.3   272  GLU272      0.0402
     92  CG        -0.3030   13.7960   44.6130 C.3   272  GLU272      0.1161
     93  CD        -0.7180   15.1630   44.0840 C.2   272  GLU272      0.3649
     94  OE1       -1.8920   15.4520   44.3300 O.co2 272  GLU272     -0.2457
     95  OE2        0.1060   15.9500   43.5540 O.co2 272  GLU272     -0.2457
     96  N          2.4860   13.9910   48.1300 N.am  273  THR273     -0.1953
     97  CA         2.4520   13.6490   49.5480 C.3   273  THR273      0.1897
     98  C          2.3110   14.9400   50.3860 C.2   273  THR273      0.2313
     99  O          1.3100   15.1830   51.0990 O.2   273  THR273     -0.2863
    100  CB         3.7300   12.8810   49.9210 C.3   273  THR273      0.1794
    101  OG1        4.8910   13.6270   49.4940 O.3   273  THR273     -0.2208
    102  CG2        3.7690   11.5400   49.2980 C.3   273  THR273      0.0378
    103  N         -0.9060    7.7650   53.9030 N.3   334  LEU334     -0.1245
    104  CA        -0.8080    6.4490   53.3820 C.3   334  LEU334      0.1561
    105  C         -1.1500    5.4600   54.4790 C.2   334  LEU334      0.2260
    106  O         -0.2590    4.8480   55.0680 O.2   334  LEU334     -0.2867
    107  CB         0.6410    6.1860   52.8450 C.3   334  LEU334      0.0270
    108  CG         1.0850    7.2030   51.7510 C.3   334  LEU334      0.0019
    109  CD1        2.5590    7.1170   51.4300 C.3   334  LEU334      0.0001
    110  CD2        0.2930    7.1110   50.4910 C.3   334  LEU334      0.0001
    111  N          3.1700    1.7060   51.8790 N.3   338  VAL338     -0.1245
    112  CA         3.4450    1.2240   50.5300 C.3   338  VAL338      0.1561
    113  C          3.7990   -0.2490   50.6960 C.2   338  VAL338      0.2260
    114  O          4.5230   -0.6040   51.6130 O.2   338  VAL338     -0.2867
    115  CB         4.5480    2.0880   49.8530 C.3   338  VAL338      0.0252
    116  CG1        4.9300    1.6450   48.4390 C.3   338  VAL338      0.0019
    117  CG2        4.1130    3.5360   49.8290 C.3   338  VAL338      0.0019
    118  N         -4.9400    3.6980   48.8090 N.3   448  VAL448     -0.1245
    119  CA        -3.4850    3.8320   49.0090 C.3   448  VAL448      0.1561
    120  C         -3.1890    5.1960   49.6470 C.2   448  VAL448      0.2260
    121  O         -2.4100    5.2630   50.5850 O.2   448  VAL448     -0.2867
    122  CB        -2.6890    3.7800   47.6680 C.3   448  VAL448      0.0252
    123  CG1       -1.2180    4.1370   47.9150 C.3   448  VAL448      0.0019
    124  CG2       -2.7840    2.3780   47.0760 C.3   448  VAL448      0.0019
@<TRIPOS>BOND
     1    16    17    1
     2    19    18    2
     3    18    17    1
     4    17    20    1
     5    12    11    2
     6    20    21    1
     7    11    10    1
     8    22    21   ar
     9    22    24   ar
    10    21    23   ar
    11    24    26   ar
    12    10     9    1
    13    10    13    1
    14    23    25   ar
    15    26    25   ar
    16    13    14    1
    17    13    15    1
    18    65    66    1
    19    70    69    1
    20    80    78   ar
    21    80    81   ar
    22    78    76   ar
    23    66    69    1
    24    66    67    1
    25     4     3    2
    26    62    64    1
    27    62    61    1
    28    81    79   ar
    29    46    47    1
    30    76    75    1
    31    76    77   ar
    32    57    58    1
    33    75    72    1
    34    71    72    1
    35    39    40    1
    36    39    36    1
    37    42    40   ar
    38    42    44   ar
    39     3     2    1
    40    67    68    2
    41    79    77   ar
    42    40    41   ar
    43    72    73    1
    44    58    61    1
    45    58    59    1
    46    44    45   ar
    47    38    37    2
    48    61    63    1
    49    37    36    1
    50    36    35    1
    51    47    48    1
    52    47    50    1
    53    41    43   ar
    54    35    29   am
    55    45    43   ar
    56     1     2    1
    57    48    49    2
    58    95    93   ar
    59     2     5    1
    60     7     5    1
    61    59    60    2
    62     5     6    1
    63    73    82   am
    64    73    74    2
    65    50    51    1
    66    93    94   ar
    67    93    92    1
    68    27    28    1
    69    34    32    1
    70    82    83    1
    71    92    91    1
    72    29    28    1
    73    29    30    2
    74    31    32    1
    75    31    28    1
    76    31    33    1
    77    91    88    1
    78     6     8    1
    79    51    52   ar
    80    51    53   ar
    81    52    54   ar
    82    87    88    1
    83    83    86    1
    84    83    84    1
    85    88    89    1
    86    53    55   ar
    87    84    85    2
    88    54    56   ar
    89   124   122    1
    90    89    90    2
    91    89    96   am
    92   122   123    1
    93   122   119    1
    94    55    56   ar
    95    96    97    1
    96   116   115    1
    97   118   119    1
    98   119   120    1
    99   102   100    1
   100   101   100    1
   101    97   100    1
   102    97    98    1
   103   120   121    2
   104   117   115    1
   105   115   112    1
   106    98    99    2
   107   110   108    1
   108   112   113    1
   109   112   111    1
   110   113   114    2
   111   109   108    1
   112   108   107    1
   113   107   104    1
   114   104   103    1
   115   104   105    1
   116   105   106    2
