@<TRIPOS>MOLECULE
tmp/5uasB01.pdb
 115 110 0 0 0
SMALL
GASTEIGER

@<TRIPOS>ATOM
      1  N         58.4040   62.8940   17.9160 N.3    71  LYS71      -0.1245
      2  CA        59.0050   61.5990   18.1970 C.3    71  LYS71       0.1561
      3  C         59.7900   61.1170   16.9840 C.2    71  LYS71       0.2260
      4  O         59.4020   61.3330   15.8340 O.2    71  LYS71      -0.2867
      5  CB        57.9410   60.5790   18.5870 C.3    71  LYS71       0.0271
      6  CG        58.5330   59.3420   19.2190 C.3    71  LYS71       0.0035
      7  CD        57.4820   58.4850   19.8880 C.3    71  LYS71       0.0206
      8  CE        58.1370   57.2750   20.5280 C.3    71  LYS71       0.1093
      9  NZ        58.7950   56.4180   19.5030 N.3    71  LYS71      -0.1314
     10  N         52.8140   53.8080   14.4450 N.3    76  ASN76      -0.1240
     11  CA        51.4070   53.4190   14.4130 C.3    76  ASN76       0.1653
     12  C         50.9120   53.1410   13.0050 C.2    76  ASN76       0.2266
     13  O         49.7820   52.6560   12.8500 O.2    76  ASN76      -0.2867
     14  CB        50.5460   54.4890   15.0860 C.3    76  ASN76       0.1155
     15  CG        50.7770   54.5550   16.5980 C.2    76  ASN76       0.2627
     16  OD1       50.1410   53.8380   17.3550 O.2    76  ASN76      -0.2716
     17  ND2       51.7060   55.4010   17.0290 N.am   76  ASN76      -0.0877
     18  N         48.2610   57.6490   11.2860 N.3    96  HIS96      -0.1241
     19  CA        48.1240   57.9110   12.7160 C.3    96  HIS96       0.1621
     20  C         47.0330   58.9500   12.9290 C.2    96  HIS96       0.2264
     21  O         47.1900   59.9100   13.6870 O.2    96  HIS96      -0.2867
     22  CB        49.4500   58.3420   13.3440 C.3    96  HIS96       0.0745
     23  CG        49.4750   58.1840   14.8330 C.ar   96  HIS96       0.0817
     24  ND1       50.5920   58.4580   15.5910 N.ar   96  HIS96      -0.2268
     25  CD2       48.5090   57.7980   15.7040 C.ar   96  HIS96       0.1154
     26  CE1       50.3200   58.2340   16.8660 C.ar   96  HIS96       0.1986
     27  NE2       49.0590   57.8440   16.9640 N.ar   96  HIS96      -0.2212
     28  N         45.7530   63.5200   14.2710 N.3   111  HIS111     -0.1241
     29  CA        47.1130   63.6940   14.7850 C.3   111  HIS111      0.1621
     30  C         48.0560   63.9770   13.6170 C.2   111  HIS111      0.2264
     31  O         48.2190   65.1360   13.2290 O.2   111  HIS111     -0.2867
     32  CB        47.5580   62.4530   15.5640 C.3   111  HIS111      0.0745
     33  CG        48.8820   62.6160   16.2650 C.ar  111  HIS111      0.0817
     34  ND1       49.2370   63.7690   16.9350 N.ar  111  HIS111     -0.2268
     35  CD2       49.9120   61.7510   16.4320 C.ar  111  HIS111      0.1154
     36  CE1       50.4410   63.6170   17.4590 C.ar  111  HIS111      0.1986
     37  NE2       50.8650   62.3960   17.1800 N.ar  111  HIS111     -0.2212
     38  N         45.5990   51.8160   13.1630 N.3   141  TYR141     -0.1241
     39  CA        45.4010   50.4220   13.5890 C.3   141  TYR141      0.1605
     40  C         44.5980   49.5690   12.6020 C.2   141  TYR141      0.2264
     41  O         43.5970   48.9450   12.9630 O.2   141  TYR141     -0.2867
     42  CB        44.7680   50.3710   14.9980 C.3   141  TYR141      0.0534
     43  CG        45.6020   51.1120   16.0290 C.ar  141  TYR141     -0.0201
     44  CD1       46.9570   50.7780   16.2400 C.ar  141  TYR141     -0.0009
     45  CD2       45.0370   52.1440   16.7960 C.ar  141  TYR141     -0.0009
     46  CE1       47.7380   51.4690   17.1760 C.ar  141  TYR141      0.0417
     47  CE2       45.7820   52.8070   17.7420 C.ar  141  TYR141      0.0417
     48  CZ        47.1390   52.4730   17.9280 C.ar  141  TYR141      0.1957
     49  OH        47.9000   53.1800   18.8490 O.3   141  TYR141     -0.2866
     50  N         40.6810   52.5450   13.9100 N.3   157  ARG157     -0.1245
     51  CA        40.2070   53.7070   14.6550 C.3   157  ARG157      0.1563
     52  C         40.1510   54.9030   13.7030 C.2   157  ARG157      0.2260
     53  O         41.1470   55.2200   13.0430 O.2   157  ARG157     -0.2867
     54  CB        41.1420   53.9880   15.8380 C.3   157  ARG157      0.0307
     55  CG        40.7310   55.1990   16.6960 C.3   157  ARG157      0.0489
     56  CD        41.6970   55.4780   17.8120 C.3   157  ARG157      0.2205
     57  NE        42.9670   55.9390   17.2530 N.pl3 157  ARG157     -0.0865
     58  CZ        44.0870   56.0510   17.9480 C.cat 157  ARG157      0.5346
     59  NH1       44.1410   55.6850   19.2410 N.pl3 157  ARG157      0.1354
     60  NH2       45.1680   56.5110   17.3440 N.pl3 157  ARG157      0.1354
     61  N         42.6210   59.9030   15.7540 N.3   160  ALA160     -0.1231
     62  CA        43.5060   59.6730   16.9050 C.3   160  ALA160      0.1694
     63  C         42.6780   59.2260   18.1190 C.2   160  ALA160      0.2592
     64  O         41.6560   58.5500   17.9450 O.2   160  ALA160     -0.2718
     65  CB        44.3460   60.9240   17.1980 C.3   160  ALA160      0.0304
     66  N         43.1120   59.5370   19.3480 N.am  161  HIS161     -0.1976
     67  CA        42.4900   58.9030   20.5210 C.3   161  HIS161      0.1656
     68  C         40.9880   59.1110   20.5600 C.2   161  HIS161      0.2291
     69  O         40.2360   58.2170   20.9860 O.2   161  HIS161     -0.2864
     70  CB        43.0560   59.4760   21.8200 C.3   161  HIS161      0.0771
     71  CG        44.4170   58.9960   22.1370 C.ar  161  HIS161      0.0820
     72  ND1       44.9130   58.9850   23.4190 N.ar  161  HIS161     -0.2267
     73  CD2       45.3970   58.5110   21.3380 C.ar  161  HIS161      0.1154
     74  CE1       46.1430   58.5000   23.4000 C.ar  161  HIS161      0.1986
     75  NE2       46.4570   58.2040   22.1490 N.ar  161  HIS161     -0.2212
     76  N         40.6500   50.7310   22.3290 N.3   199  TYR199     -0.1241
     77  CA        41.5640   49.9870   21.4650 C.3   199  TYR199      0.1605
     78  C         40.9660   48.6090   21.2330 C.2   199  TYR199      0.2264
     79  O         40.7000   47.8840   22.1900 O.2   199  TYR199     -0.2867
     80  CB        42.9840   49.8450   22.0790 C.3   199  TYR199      0.0534
     81  CG        43.6740   51.1720   22.2540 C.ar  199  TYR199     -0.0201
     82  CD1       44.4260   51.7340   21.2270 C.ar  199  TYR199     -0.0009
     83  CD2       43.5410   51.8870   23.4330 C.ar  199  TYR199     -0.0009
     84  CE1       45.0610   52.9660   21.3780 C.ar  199  TYR199      0.0417
     85  CE2       44.1580   53.1240   23.5920 C.ar  199  TYR199      0.0417
     86  CZ        44.9270   53.6450   22.5590 C.ar  199  TYR199      0.1957
     87  OH        45.5190   54.8600   22.6890 O.3   199  TYR199     -0.2866
     88  N         47.1750   63.8200   30.5490 N.3   231  HIS231     -0.1241
     89  CA        46.9590   62.7560   29.5790 C.3   231  HIS231      0.1621
     90  C         48.0820   61.7250   29.6390 C.2   231  HIS231      0.2264
     91  O         49.2540   62.0580   29.4550 O.2   231  HIS231     -0.2867
     92  CB        46.8360   63.3250   28.1720 C.3   231  HIS231      0.0745
     93  CG        46.4460   62.2950   27.1670 C.ar  231  HIS231      0.0817
     94  ND1       47.3750   61.6030   26.4230 N.ar  231  HIS231     -0.2268
     95  CD2       45.2360   61.7750   26.8430 C.ar  231  HIS231      0.1154
     96  CE1       46.7510   60.7270   25.6550 C.ar  231  HIS231      0.1986
     97  NE2       45.4520   60.8250   25.8800 N.ar  231  HIS231     -0.2212
     98  N         48.5930   57.0400   28.9660 N.3   233  THR233     -0.1218
     99  CA        48.0470   55.9060   28.2190 C.3   233  THR233      0.1862
    100  C         47.1180   55.0280   29.0680 C.2   233  THR233      0.2287
    101  O         46.8860   53.8620   28.7190 O.2   233  THR233     -0.2866
    102  CB        49.1670   55.0360   27.6130 C.3   233  THR233      0.1770
    103  OG1       49.8890   54.3310   28.6390 O.3   233  THR233     -0.2211
    104  CG2       50.1440   55.8750   26.7720 C.3   233  THR233      0.0375
    105  N         44.6620   52.6820   30.4340 N.3   235  ARG235     -0.1245
    106  CA        43.6670   51.7800   29.8640 C.3   235  ARG235      0.1563
    107  C         43.2920   50.7480   30.9240 C.2   235  ARG235      0.2260
    108  O         44.1310   50.3690   31.7450 O.2   235  ARG235     -0.2867
    109  CB        44.2180   51.0650   28.6180 C.3   235  ARG235      0.0307
    110  CG        44.5250   52.0220   27.4730 C.3   235  ARG235      0.0489
    111  CD        45.6570   51.4990   26.5830 C.3   235  ARG235      0.2205
    112  NE        45.2640   50.2850   25.8510 N.pl3 235  ARG235     -0.0865
    113  CZ        45.7570   49.9130   24.6740 C.cat 235  ARG235      0.5346
    114  NH1       46.6790   50.6690   24.0800 N.pl3 235  ARG235      0.1354
    115  NH2       45.3040   48.8060   24.0720 N.pl3 235  ARG235      0.1354
@<TRIPOS>BOND
     1    18    19    1
     2    40    41    2
     3    40    39    1
     4    19    20    1
     5    19    22    1
     6    13    12    2
     7    20    21    2
     8    12    11    1
     9    53    52    2
    10    38    39    1
    11    31    30    2
    12    22    23    1
    13    39    42    1
    14    30    29    1
    15    52    51    1
    16    50    51    1
    17    28    29    1
    18    11    10    1
    19    11    14    1
    20    51    54    1
    21    29    32    1
    22    23    24   ar
    23    23    25   ar
    24    42    43    1
    25    14    15    1
    26    32    33    1
    27    24    26   ar
    28    25    27   ar
    29    61    62    1
    30     4     3    2
    31    54    55    1
    32    43    44   ar
    33    43    45   ar
    34    44    46   ar
    35    33    35   ar
    36    33    34   ar
    37    35    37   ar
    38    15    17   am
    39    15    16    2
    40    55    56    1
    41    45    47   ar
    42    26    27   ar
    43    62    65    1
    44    62    63    1
    45    34    36   ar
    46     3     2    1
    47    46    48   ar
    48    37    36   ar
    49    57    56    1
    50    57    58    2
    51    60    58    1
    52    47    48   ar
    53     1     2    1
    54    48    49    1
    55    64    63    2
    56    58    59    1
    57    63    66   am
    58     2     5    1
    59     5     6    1
    60     6     7    1
    61    66    67    1
    62     9     8    1
    63     7     8    1
    64    67    68    1
    65    67    70    1
    66    68    69    2
    67    82    84   ar
    68    82    81   ar
    69    78    77    1
    70    78    79    2
    71    73    71   ar
    72    73    75   ar
    73    84    86   ar
    74    77    80    1
    75    77    76    1
    76    70    71    1
    77    80    81    1
    78    71    72   ar
    79    75    74   ar
    80    81    83   ar
    81    86    87    1
    82    86    85   ar
    83    74    72   ar
    84    83    85   ar
    85   115   113    1
    86   114   113    1
    87   113   112    2
    88    96    97   ar
    89    96    94   ar
    90   112   111    1
    91    97    95   ar
    92    94    93   ar
    93   111   110    1
    94   104   102    1
    95    95    93   ar
    96    93    92    1
    97   110   109    1
    98   102    99    1
    99   102   103    1
   100    92    89    1
   101    99    98    1
   102    99   100    1
   103   109   106    1
   104   101   100    2
   105    91    90    2
   106    89    90    1
   107    89    88    1
   108   106   105    1
   109   106   107    1
   110   107   108    2
