@<TRIPOS>MOLECULE
tmp/5uasB02.pdb
 142 133 0 0 0
SMALL
GASTEIGER

@<TRIPOS>ATOM
      1  N         59.4410   50.2470   16.2720 N.3    13  ASN13      -0.1240
      2  CA        58.7790   48.9630   16.4690 C.3    13  ASN13       0.1653
      3  C         58.3140   48.4830   15.1010 C.2    13  ASN13       0.2266
      4  O         57.3440   49.0340   14.5650 O.2    13  ASN13      -0.2867
      5  CB        57.5750   49.1080   17.4090 C.3    13  ASN13       0.1155
      6  CG        57.9790   49.4370   18.8250 C.2    13  ASN13       0.2627
      7  OD1       58.9140   48.8620   19.3780 O.2    13  ASN13      -0.2716
      8  ND2       57.2710   50.3710   19.4280 N.am   13  ASN13      -0.0877
      9  N         53.7350   44.7170   15.3770 N.3    16  ALA16      -0.1245
     10  CA        52.9340   44.6670   16.6050 C.3    16  ALA16       0.1562
     11  C         51.7300   43.7800   16.3390 C.2    16  ALA16       0.2260
     12  O         51.3350   43.5520   15.1890 O.2    16  ALA16      -0.2867
     13  CB        52.4630   46.0530   17.0830 C.3    16  ALA16       0.0290
     14  N         48.6400   44.4100   17.0360 N.3    18  VAL18      -0.1245
     15  CA        47.4100   45.0820   16.5830 C.3    18  VAL18       0.1561
     16  C         47.3810   45.2790   15.0620 C.2    18  VAL18       0.2260
     17  O         46.3130   45.2210   14.4460 O.2    18  VAL18      -0.2867
     18  CB        47.2210   46.4050   17.3410 C.3    18  VAL18       0.0252
     19  CG1       48.2830   47.4250   16.9100 C.3    18  VAL18       0.0019
     20  CG2       45.8230   46.9530   17.0600 C.3    18  VAL18       0.0019
     21  N         58.4040   62.8940   17.9160 N.3    71  LYS71      -0.1245
     22  CA        59.0050   61.5990   18.1970 C.3    71  LYS71       0.1561
     23  C         59.7900   61.1170   16.9840 C.2    71  LYS71       0.2260
     24  O         59.4020   61.3330   15.8340 O.2    71  LYS71      -0.2867
     25  CB        57.9410   60.5790   18.5870 C.3    71  LYS71       0.0271
     26  CG        58.5330   59.3420   19.2190 C.3    71  LYS71       0.0035
     27  CD        57.4820   58.4850   19.8880 C.3    71  LYS71       0.0206
     28  CE        58.1370   57.2750   20.5280 C.3    71  LYS71       0.1093
     29  NZ        58.7950   56.4180   19.5030 N.3    71  LYS71      -0.1314
     30  N         57.2410   56.9960   14.8750 N.3    74  ASP74      -0.1225
     31  CA        55.8490   56.9880   15.3220 C.3    74  ASP74       0.1805
     32  C         55.3250   55.5600   15.5100 C.2    74  ASP74       0.2598
     33  O         54.8130   55.2240   16.5850 O.2    74  ASP74      -0.2718
     34  CB        55.0130   57.7950   14.3180 C.3    74  ASP74       0.1424
     35  CG        53.5240   57.8220   14.6580 C.2    74  ASP74       0.3668
     36  OD1       52.9020   56.7540   14.6690 O.co2  74  ASP74      -0.2456
     37  OD2       52.9890   58.9240   14.8990 O.co2  74  ASP74      -0.2456
     38  N         55.4750   54.7020   14.4950 N.am   75  ASN75      -0.1960
     39  CA        55.2380   53.2620   14.4960 C.3    75  ASN75       0.1819
     40  C         53.7630   52.8720   14.3380 C.2    75  ASN75       0.2621
     41  O         53.4810   51.6810   14.1200 O.2    75  ASN75      -0.2715
     42  CB        55.7640   52.5600   15.7620 C.3    75  ASN75       0.1195
     43  CG        57.2300   52.8130   15.9960 C.2    75  ASN75       0.2630
     44  OD1       58.0460   52.6250   15.1060 O.2    75  ASN75      -0.2716
     45  ND2       57.5710   53.2440   17.2060 N.am   75  ASN75      -0.0877
     46  N         52.8140   53.8080   14.4450 N.am   76  ASN76      -0.1972
     47  CA        51.4070   53.4190   14.4130 C.3    76  ASN76       0.1688
     48  C         50.9120   53.1410   13.0050 C.2    76  ASN76       0.2292
     49  O         49.7820   52.6560   12.8500 O.2    76  ASN76      -0.2864
     50  CB        50.5460   54.4890   15.0860 C.3    76  ASN76       0.1181
     51  CG        50.7770   54.5550   16.5980 C.2    76  ASN76       0.2629
     52  OD1       50.1410   53.8380   17.3550 O.2    76  ASN76      -0.2716
     53  ND2       51.7060   55.4010   17.0290 N.am   76  ASN76      -0.0877
     54  N         52.7800   51.0650   10.8380 N.3    78  LYS78      -0.1245
     55  CA        53.3950   49.8590   10.3040 C.3    78  LYS78       0.1561
     56  C         52.3300   49.0240    9.5730 C.2    78  LYS78       0.2260
     57  O         51.1270   49.1890    9.8080 O.2    78  LYS78      -0.2867
     58  CB        54.0730   49.0710   11.4430 C.3    78  LYS78       0.0271
     59  CG        53.0500   48.4550   12.4470 C.3    78  LYS78       0.0035
     60  CD        53.7580   47.6580   13.6060 C.3    78  LYS78       0.0206
     61  CE        54.2200   48.5640   14.7550 C.3    78  LYS78       0.1093
     62  NZ        53.0990   49.3620   15.3740 N.3    78  LYS78      -0.1314
     63  N         48.2610   57.6490   11.2860 N.3    96  HIS96      -0.1241
     64  CA        48.1240   57.9110   12.7160 C.3    96  HIS96       0.1621
     65  C         47.0330   58.9500   12.9290 C.2    96  HIS96       0.2264
     66  O         47.1900   59.9100   13.6870 O.2    96  HIS96      -0.2867
     67  CB        49.4500   58.3420   13.3440 C.3    96  HIS96       0.0745
     68  CG        49.4750   58.1840   14.8330 C.ar   96  HIS96       0.0817
     69  ND1       50.5920   58.4580   15.5910 N.ar   96  HIS96      -0.2268
     70  CD2       48.5090   57.7980   15.7040 C.ar   96  HIS96       0.1154
     71  CE1       50.3200   58.2340   16.8660 C.ar   96  HIS96       0.1986
     72  NE2       49.0590   57.8440   16.9640 N.ar   96  HIS96      -0.2212
     73  N         45.5990   51.8160   13.1630 N.3   141  TYR141     -0.1241
     74  CA        45.4010   50.4220   13.5890 C.3   141  TYR141      0.1605
     75  C         44.5980   49.5690   12.6020 C.2   141  TYR141      0.2264
     76  O         43.5970   48.9450   12.9630 O.2   141  TYR141     -0.2867
     77  CB        44.7680   50.3710   14.9980 C.3   141  TYR141      0.0534
     78  CG        45.6020   51.1120   16.0290 C.ar  141  TYR141     -0.0201
     79  CD1       46.9570   50.7780   16.2400 C.ar  141  TYR141     -0.0009
     80  CD2       45.0370   52.1440   16.7960 C.ar  141  TYR141     -0.0009
     81  CE1       47.7380   51.4690   17.1760 C.ar  141  TYR141      0.0417
     82  CE2       45.7820   52.8070   17.7420 C.ar  141  TYR141      0.0417
     83  CZ        47.1390   52.4730   17.9280 C.ar  141  TYR141      0.1957
     84  OH        47.9000   53.1800   18.8490 O.3   141  TYR141     -0.2866
     85  N         43.1120   59.5370   19.3480 N.3   161  HIS161     -0.1241
     86  CA        42.4900   58.9030   20.5210 C.3   161  HIS161      0.1621
     87  C         40.9880   59.1110   20.5600 C.2   161  HIS161      0.2264
     88  O         40.2360   58.2170   20.9860 O.2   161  HIS161     -0.2867
     89  CB        43.0560   59.4760   21.8200 C.3   161  HIS161      0.0745
     90  CG        44.4170   58.9960   22.1370 C.ar  161  HIS161      0.0817
     91  ND1       44.9130   58.9850   23.4190 N.ar  161  HIS161     -0.2268
     92  CD2       45.3970   58.5110   21.3380 C.ar  161  HIS161      0.1154
     93  CE1       46.1430   58.5000   23.4000 C.ar  161  HIS161      0.1986
     94  NE2       46.4570   58.2040   22.1490 N.ar  161  HIS161     -0.2212
     95  N         40.6500   50.7310   22.3290 N.3   199  TYR199     -0.1241
     96  CA        41.5640   49.9870   21.4650 C.3   199  TYR199      0.1605
     97  C         40.9660   48.6090   21.2330 C.2   199  TYR199      0.2264
     98  O         40.7000   47.8840   22.1900 O.2   199  TYR199     -0.2867
     99  CB        42.9840   49.8450   22.0790 C.3   199  TYR199      0.0534
    100  CG        43.6740   51.1720   22.2540 C.ar  199  TYR199     -0.0201
    101  CD1       44.4260   51.7340   21.2270 C.ar  199  TYR199     -0.0009
    102  CD2       43.5410   51.8870   23.4330 C.ar  199  TYR199     -0.0009
    103  CE1       45.0610   52.9660   21.3780 C.ar  199  TYR199      0.0417
    104  CE2       44.1580   53.1240   23.5920 C.ar  199  TYR199      0.0417
    105  CZ        44.9270   53.6450   22.5590 C.ar  199  TYR199      0.1957
    106  OH        45.5190   54.8600   22.6890 O.3   199  TYR199     -0.2866
    107  N         48.5930   57.0400   28.9660 N.3   233  THR233     -0.1218
    108  CA        48.0470   55.9060   28.2190 C.3   233  THR233      0.1862
    109  C         47.1180   55.0280   29.0680 C.2   233  THR233      0.2287
    110  O         46.8860   53.8620   28.7190 O.2   233  THR233     -0.2866
    111  CB        49.1670   55.0360   27.6130 C.3   233  THR233      0.1770
    112  OG1       49.8890   54.3310   28.6390 O.3   233  THR233     -0.2211
    113  CG2       50.1440   55.8750   26.7720 C.3   233  THR233      0.0375
    114  N         44.6620   52.6820   30.4340 N.3   235  ARG235     -0.1245
    115  CA        43.6670   51.7800   29.8640 C.3   235  ARG235      0.1563
    116  C         43.2920   50.7480   30.9240 C.2   235  ARG235      0.2260
    117  O         44.1310   50.3690   31.7450 O.2   235  ARG235     -0.2867
    118  CB        44.2180   51.0650   28.6180 C.3   235  ARG235      0.0307
    119  CG        44.5250   52.0220   27.4730 C.3   235  ARG235      0.0489
    120  CD        45.6570   51.4990   26.5830 C.3   235  ARG235      0.2205
    121  NE        45.2640   50.2850   25.8510 N.pl3 235  ARG235     -0.0865
    122  CZ        45.7570   49.9130   24.6740 C.cat 235  ARG235      0.5346
    123  NH1       46.6790   50.6690   24.0800 N.pl3 235  ARG235      0.1354
    124  NH2       45.3040   48.8060   24.0720 N.pl3 235  ARG235      0.1354
    125  N         46.9690   46.7520   28.0940 N.3   282  PHE282     -0.1241
    126  CA        47.4170   46.9220   26.7190 C.3   282  PHE282      0.1605
    127  C         46.8320   45.7380   25.9720 C.2   282  PHE282      0.2264
    128  O         47.0740   44.5850   26.3470 O.2   282  PHE282     -0.2867
    129  CB        48.9460   46.9310   26.6070 C.3   282  PHE282      0.0534
    130  CG        49.4430   47.2430   25.2050 C.ar  282  PHE282     -0.0203
    131  CD1       49.4240   48.5510   24.7330 C.ar  282  PHE282     -0.0042
    132  CD2       49.8840   46.2380   24.3690 C.ar  282  PHE282     -0.0042
    133  CE1       49.8510   48.8630   23.4460 C.ar  282  PHE282     -0.0003
    134  CE2       50.3400   46.5320   23.0710 C.ar  282  PHE282     -0.0003
    135  CZ        50.3290   47.8450   22.6210 C.ar  282  PHE282     -0.0000
    136  N         53.1910   55.7130   30.6380 N.3   308  THR308     -0.1218
    137  CA        52.6270   54.4450   30.1990 C.3   308  THR308      0.1862
    138  C         52.2910   53.5300   31.3690 C.2   308  THR308      0.2287
    139  O         51.9180   52.3710   31.1500 O.2   308  THR308     -0.2866
    140  CB        53.5980   53.7500   29.2560 C.3   308  THR308      0.1770
    141  OG1       54.8250   53.4900   29.9580 O.3   308  THR308     -0.2211
    142  CG2       53.8790   54.6530   28.0550 C.3   308  THR308      0.0375
@<TRIPOS>BOND
     1    56    57    2
     2    56    55    1
     3    55    54    1
     4    55    58    1
     5    63    64    1
     6    58    59    1
     7    59    60    1
     8    75    76    2
     9    75    74    1
    10    64    65    1
    11    64    67    1
    12    49    48    2
    13    65    66    2
    14    48    47    1
    15    73    74    1
    16    67    68    1
    17    74    77    1
    18    60    61    1
    19    41    40    2
    20    34    35    1
    21    34    31    1
    22    40    46   am
    23    40    39    1
    24    47    46    1
    25    47    50    1
    26    17    16    2
    27    38    39    1
    28    38    32   am
    29    39    42    1
    30     4     3    2
    31    35    36   ar
    32    35    37   ar
    33    61    62    1
    34    68    69   ar
    35    68    70   ar
    36    30    31    1
    37    77    78    1
    38    16    15    1
    39    50    51    1
    40     3     2    1
    41    44    43    2
    42    12    11    2
    43    31    32    1
    44     9    10    1
    45    32    33    2
    46    69    71   ar
    47    70    72   ar
    48    42    43    1
    49    24    23    2
    50    43    45   am
    51    78    79   ar
    52    78    80   ar
    53    79    81   ar
    54     1     2    1
    55    11    10    1
    56     2     5    1
    57    15    14    1
    58    15    18    1
    59    51    53   am
    60    51    52    2
    61    10    13    1
    62    80    82   ar
    63    71    72   ar
    64    19    18    1
    65    23    22    1
    66    20    18    1
    67    81    83   ar
    68     5     6    1
    69    82    83   ar
    70    21    22    1
    71    83    84    1
    72    22    25    1
    73    25    26    1
    74     6     7    2
    75     6     8   am
    76    26    27    1
    77    85    86    1
    78    29    28    1
    79    27    28    1
    80    86    87    1
    81    86    89    1
    82    87    88    2
    83   101   103   ar
    84   101   100   ar
    85    97    96    1
    86    97    98    2
    87    92    90   ar
    88    92    94   ar
    89   103   105   ar
    90    96    99    1
    91    96    95    1
    92    89    90    1
    93    99   100    1
    94    90    91   ar
    95    94    93   ar
    96   100   102   ar
    97   105   106    1
    98   105   104   ar
    99   135   134   ar
   100   135   133   ar
   101   134   132   ar
   102    93    91   ar
   103   102   104   ar
   104   133   131   ar
   105   124   122    1
   106   123   122    1
   107   132   130   ar
   108   122   121    2
   109   131   130   ar
   110   130   129    1
   111   121   120    1
   112   127   128    2
   113   127   126    1
   114   120   119    1
   115   129   126    1
   116   126   125    1
   117   113   111    1
   118   119   118    1
   119   111   108    1
   120   111   112    1
   121   142   140    1
   122   108   107    1
   123   108   109    1
   124   118   115    1
   125   110   109    2
   126   140   141    1
   127   140   137    1
   128   115   114    1
   129   115   116    1
   130   137   136    1
   131   137   138    1
   132   116   117    2
   133   139   138    2
