@<TRIPOS>MOLECULE
tmp/5uasB00.pdb
 86 84 0 0 0
SMALL
GASTEIGER

@<TRIPOS>ATOM
      1  N         48.2610   57.6490   11.2860 N.3    96  HIS96      -0.1241
      2  CA        48.1240   57.9110   12.7160 C.3    96  HIS96       0.1621
      3  C         47.0330   58.9500   12.9290 C.2    96  HIS96       0.2264
      4  O         47.1900   59.9100   13.6870 O.2    96  HIS96      -0.2867
      5  CB        49.4500   58.3420   13.3440 C.3    96  HIS96       0.0745
      6  CG        49.4750   58.1840   14.8330 C.ar   96  HIS96       0.0817
      7  ND1       50.5920   58.4580   15.5910 N.ar   96  HIS96      -0.2268
      8  CD2       48.5090   57.7980   15.7040 C.ar   96  HIS96       0.1154
      9  CE1       50.3200   58.2340   16.8660 C.ar   96  HIS96       0.1986
     10  NE2       49.0590   57.8440   16.9640 N.ar   96  HIS96      -0.2212
     11  N         45.7530   63.5200   14.2710 N.3   111  HIS111     -0.1241
     12  CA        47.1130   63.6940   14.7850 C.3   111  HIS111      0.1621
     13  C         48.0560   63.9770   13.6170 C.2   111  HIS111      0.2264
     14  O         48.2190   65.1360   13.2290 O.2   111  HIS111     -0.2867
     15  CB        47.5580   62.4530   15.5640 C.3   111  HIS111      0.0745
     16  CG        48.8820   62.6160   16.2650 C.ar  111  HIS111      0.0817
     17  ND1       49.2370   63.7690   16.9350 N.ar  111  HIS111     -0.2268
     18  CD2       49.9120   61.7510   16.4320 C.ar  111  HIS111      0.1154
     19  CE1       50.4410   63.6170   17.4590 C.ar  111  HIS111      0.1986
     20  NE2       50.8650   62.3960   17.1800 N.ar  111  HIS111     -0.2212
     21  N         40.6810   52.5450   13.9100 N.3   157  ARG157     -0.1245
     22  CA        40.2070   53.7070   14.6550 C.3   157  ARG157      0.1563
     23  C         40.1510   54.9030   13.7030 C.2   157  ARG157      0.2260
     24  O         41.1470   55.2200   13.0430 O.2   157  ARG157     -0.2867
     25  CB        41.1420   53.9880   15.8380 C.3   157  ARG157      0.0307
     26  CG        40.7310   55.1990   16.6960 C.3   157  ARG157      0.0489
     27  CD        41.6970   55.4780   17.8120 C.3   157  ARG157      0.2205
     28  NE        42.9670   55.9390   17.2530 N.pl3 157  ARG157     -0.0865
     29  CZ        44.0870   56.0510   17.9480 C.cat 157  ARG157      0.5346
     30  NH1       44.1410   55.6850   19.2410 N.pl3 157  ARG157      0.1354
     31  NH2       45.1680   56.5110   17.3440 N.pl3 157  ARG157      0.1354
     32  N         42.6210   59.9030   15.7540 N.3   160  ALA160     -0.1231
     33  CA        43.5060   59.6730   16.9050 C.3   160  ALA160      0.1694
     34  C         42.6780   59.2260   18.1190 C.2   160  ALA160      0.2592
     35  O         41.6560   58.5500   17.9450 O.2   160  ALA160     -0.2718
     36  CB        44.3460   60.9240   17.1980 C.3   160  ALA160      0.0304
     37  N         43.1120   59.5370   19.3480 N.am  161  HIS161     -0.1976
     38  CA        42.4900   58.9030   20.5210 C.3   161  HIS161      0.1656
     39  C         40.9880   59.1110   20.5600 C.2   161  HIS161      0.2291
     40  O         40.2360   58.2170   20.9860 O.2   161  HIS161     -0.2864
     41  CB        43.0560   59.4760   21.8200 C.3   161  HIS161      0.0771
     42  CG        44.4170   58.9960   22.1370 C.ar  161  HIS161      0.0820
     43  ND1       44.9130   58.9850   23.4190 N.ar  161  HIS161     -0.2267
     44  CD2       45.3970   58.5110   21.3380 C.ar  161  HIS161      0.1154
     45  CE1       46.1430   58.5000   23.4000 C.ar  161  HIS161      0.1986
     46  NE2       46.4570   58.2040   22.1490 N.ar  161  HIS161     -0.2212
     47  N         47.1750   63.8200   30.5490 N.3   231  HIS231     -0.1226
     48  CA        46.9590   62.7560   29.5790 C.3   231  HIS231      0.1752
     49  C         48.0820   61.7250   29.6390 C.2   231  HIS231      0.2597
     50  O         49.2540   62.0580   29.4550 O.2   231  HIS231     -0.2718
     51  CB        46.8360   63.3250   28.1720 C.3   231  HIS231      0.0759
     52  CG        46.4460   62.2950   27.1670 C.ar  231  HIS231      0.0818
     53  ND1       47.3750   61.6030   26.4230 N.ar  231  HIS231     -0.2268
     54  CD2       45.2360   61.7750   26.8430 C.ar  231  HIS231      0.1154
     55  CE1       46.7510   60.7270   25.6550 C.ar  231  HIS231      0.1986
     56  NE2       45.4520   60.8250   25.8800 N.ar  231  HIS231     -0.2212
     57  N         47.7010   60.4710   29.8750 N.am  232  THR232     -0.1939
     58  CA        48.5710   59.3000   29.9150 C.3   232  THR232      0.2028
     59  C         48.0320   58.2560   28.9500 C.2   232  THR232      0.2642
     60  O         47.0680   58.5350   28.2360 O.2   232  THR232     -0.2714
     61  CB        48.5880   58.7070   31.3150 C.3   232  THR232      0.1808
     62  OG1       47.2620   58.2250   31.6030 O.3   232  THR232     -0.2208
     63  CG2       48.9710   59.7610   32.3240 C.3   232  THR232      0.0379
     64  N         48.5930   57.0400   28.9660 N.am  233  THR233     -0.1950
     65  CA        48.0470   55.9060   28.2190 C.3   233  THR233      0.1897
     66  C         47.1180   55.0280   29.0680 C.2   233  THR233      0.2313
     67  O         46.8860   53.8620   28.7190 O.2   233  THR233     -0.2863
     68  CB        49.1670   55.0360   27.6130 C.3   233  THR233      0.1794
     69  OG1       49.8890   54.3310   28.6390 O.3   233  THR233     -0.2208
     70  CG2       50.1440   55.8750   26.7720 C.3   233  THR233      0.0378
     71  N         54.1980   57.6520   32.3790 N.3   307  LYS307     -0.1231
     72  CA        53.1730   58.0320   31.4110 C.3   307  LYS307      0.1693
     73  C         52.4640   56.8080   30.8300 C.2   307  LYS307      0.2592
     74  O         51.2570   56.8540   30.5630 O.2   307  LYS307     -0.2718
     75  CB        53.7960   58.8710   30.2980 C.3   307  LYS307      0.0285
     76  CG        52.8660   59.0900   29.1210 C.3   307  LYS307      0.0035
     77  CD        53.5170   59.9180   28.0190 C.3   307  LYS307      0.0206
     78  CE        53.2320   61.4020   28.1970 C.3   307  LYS307      0.1093
     79  NZ        53.3230   62.1280   26.8980 N.3   307  LYS307     -0.1314
     80  N         53.1910   55.7130   30.6380 N.am  308  THR308     -0.1953
     81  CA        52.6270   54.4450   30.1990 C.3   308  THR308      0.1897
     82  C         52.2910   53.5300   31.3690 C.2   308  THR308      0.2313
     83  O         51.9180   52.3710   31.1500 O.2   308  THR308     -0.2863
     84  CB        53.5980   53.7500   29.2560 C.3   308  THR308      0.1794
     85  OG1       54.8250   53.4900   29.9580 O.3   308  THR308     -0.2208
     86  CG2       53.8790   54.6530   28.0550 C.3   308  THR308      0.0378
@<TRIPOS>BOND
     1     1     2    1
     2     2     3    1
     3     2     5    1
     4     3     4    2
     5    24    23    2
     6    14    13    2
     7     5     6    1
     8    13    12    1
     9    23    22    1
    10    21    22    1
    11    11    12    1
    12    22    25    1
    13    12    15    1
    14     6     7   ar
    15     6     8   ar
    16    15    16    1
    17     7     9   ar
    18     8    10   ar
    19    32    33    1
    20    25    26    1
    21    16    18   ar
    22    16    17   ar
    23    18    20   ar
    24    26    27    1
    25     9    10   ar
    26    33    36    1
    27    33    34    1
    28    17    19   ar
    29    20    19   ar
    30    28    27    1
    31    28    29    2
    32    31    29    1
    33    35    34    2
    34    29    30    1
    35    34    37   am
    36    37    38    1
    37    38    39    1
    38    38    41    1
    39    39    40    2
    40    44    42   ar
    41    44    46   ar
    42    41    42    1
    43    42    43   ar
    44    46    45   ar
    45    45    43   ar
    46    55    56   ar
    47    55    53   ar
    48    56    54   ar
    49    53    52   ar
    50    70    68    1
    51    54    52   ar
    52    79    78    1
    53    52    51    1
    54    68    65    1
    55    68    69    1
    56    77    78    1
    57    77    76    1
    58    86    84    1
    59    51    48    1
    60    65    64    1
    61    65    66    1
    62    60    59    2
    63    67    66    2
    64    59    64   am
    65    59    58    1
    66    76    75    1
    67    84    85    1
    68    84    81    1
    69    50    49    2
    70    48    49    1
    71    48    47    1
    72    49    57   am
    73    57    58    1
    74    58    61    1
    75    81    80    1
    76    81    82    1
    77    75    72    1
    78    74    73    2
    79    80    73   am
    80    73    72    1
    81    83    82    2
    82    61    62    1
    83    61    63    1
    84    72    71    1
