@<TRIPOS>MOLECULE
tmp/5uauC02.pdb
 76 69 0 0 0
SMALL
GASTEIGER

@<TRIPOS>ATOM
      1  N        -28.0590   68.0350  -32.7140 N.3    70  PRO70      -0.2116
      2  CA       -27.5680   69.1570  -31.8900 C.3    70  PRO70       0.1372
      3  C        -27.2810   70.4340  -32.6650 C.2    70  PRO70       0.2244
      4  O        -27.5400   71.5280  -32.1500 O.2    70  PRO70      -0.2868
      5  CB       -26.2990   68.5760  -31.2520 C.3    70  PRO70       0.0268
      6  CG       -26.5810   67.0990  -31.1570 C.3    70  PRO70       0.0207
      7  CD       -27.3670   66.7700  -32.4020 C.3    70  PRO70       0.0892
      8  N        -27.8270   66.2620  -27.6970 N.3    95  ALA95      -0.1245
      9  CA       -26.5910   65.9780  -26.9860 C.3    95  ALA95       0.1562
     10  C        -25.6970   67.2090  -26.9620 C.2    95  ALA95       0.2260
     11  O        -25.5730   67.9280  -27.9590 O.2    95  ALA95      -0.2867
     12  CB       -25.8510   64.8120  -27.6420 C.3    95  ALA95       0.0290
     13  N        -31.0740   63.9770  -21.0930 N.3   119  MET119     -0.1230
     14  CA       -30.4080   62.9480  -21.8810 C.3   119  MET119      0.1702
     15  C        -31.1560   61.6500  -21.6060 C.2   119  MET119      0.2593
     16  O        -31.1430   61.1510  -20.4790 O.2   119  MET119     -0.2718
     17  CB       -28.9240   62.8230  -21.5270 C.3   119  MET119      0.0401
     18  CG       -28.2330   61.5830  -22.1700 C.3   119  MET119      0.0596
     19  SD       -28.5010   61.4750  -23.9460 S.3   119  MET119     -0.1393
     20  CE       -27.8490   63.0490  -24.5140 C.3   119  MET119      0.0692
     21  N        -31.8380   61.1340  -22.6170 N.am  120  THR120     -0.1953
     22  CA       -32.6030   59.9000  -22.5010 C.3   120  THR120      0.1897
     23  C        -32.0480   58.9240  -23.5400 C.2   120  THR120      0.2313
     24  O        -30.9920   59.1620  -24.1310 O.2   120  THR120     -0.2863
     25  CB       -34.1020   60.1860  -22.6480 C.3   120  THR120      0.1794
     26  OG1      -34.8680   59.0200  -22.3170 O.3   120  THR120     -0.2208
     27  CG2      -34.4360   60.6390  -24.0590 C.3   120  THR120      0.0378
     28  N        -24.3170   60.9550  -21.0820 N.3   169  THR169     -0.1218
     29  CA       -24.4320   60.6620  -22.5100 C.3   169  THR169      0.1862
     30  C        -23.5220   59.5070  -22.9130 C.2   169  THR169      0.2287
     31  O        -23.9280   58.6070  -23.6630 O.2   169  THR169     -0.2866
     32  CB       -24.1010   61.9160  -23.3210 C.3   169  THR169      0.1770
     33  OG1      -25.0420   62.9440  -22.9820 O.3   169  THR169     -0.2211
     34  CG2      -24.1700   61.6290  -24.8170 C.3   169  THR169      0.0375
     35  N        -26.6630   57.1570  -22.5210 N.3   173  GLY173     -0.1210
     36  CA       -27.1080   57.6440  -23.8180 C.3   173  GLY173      0.1956
     37  C        -26.6020   56.7820  -24.9620 C.2   173  GLY173      0.2612
     38  O        -27.3630   56.4020  -25.8590 O.2   173  GLY173     -0.2717
     39  N        -25.3030   56.4740  -24.9540 N.am  174  SER174     -0.1952
     40  CA       -24.6940   55.6100  -25.9550 C.3   174  SER174      0.1924
     41  C        -24.7850   54.1360  -25.5810 C.2   174  SER174      0.2314
     42  O        -24.5840   53.2790  -26.4460 O.2   174  SER174     -0.2863
     43  CB       -23.2110   55.9780  -26.1530 C.3   174  SER174      0.2116
     44  OG       -23.0370   57.3230  -26.6330 O.3   174  SER174     -0.2180
     45  N        -17.2070   58.6430  -25.9510 N.3   259  SER259     -0.1217
     46  CA       -18.5130   59.2600  -26.1860 C.3   259  SER259      0.1889
     47  C        -18.6420   60.5870  -25.4420 C.2   259  SER259      0.2288
     48  O        -19.1280   61.5810  -25.9980 O.2   259  SER259     -0.2866
     49  CB       -19.6270   58.3010  -25.7650 C.3   259  SER259      0.2089
     50  OG       -20.9010   58.9020  -25.9280 O.3   259  SER259     -0.2183
     51  N        -16.4230   63.2550  -27.1290 N.3   262  ARG262     -0.1231
     52  CA       -17.0250   63.7220  -28.3750 C.3   262  ARG262      0.1694
     53  C        -18.2010   64.6560  -28.1030 C.2   262  ARG262      0.2592
     54  O        -18.3830   65.6610  -28.8020 O.2   262  ARG262     -0.2718
     55  CB       -17.4750   62.5270  -29.2190 C.3   262  ARG262      0.0321
     56  CG       -18.1410   62.9240  -30.5260 C.3   262  ARG262      0.0489
     57  CD       -17.2260   63.7960  -31.3620 C.3   262  ARG262      0.2205
     58  NE       -17.7240   63.9760  -32.7200 N.pl3 262  ARG262     -0.0865
     59  CZ       -17.1510   64.7650  -33.6260 C.cat 262  ARG262      0.5346
     60  NH1      -16.0550   65.4460  -33.3190 N.pl3 262  ARG262      0.1354
     61  NH2      -17.6680   64.8720  -34.8430 N.pl3 262  ARG262      0.1354
     62  N        -19.0050   64.3360  -27.0900 N.am  263  THR263     -0.1953
     63  CA       -20.1300   65.1860  -26.7300 C.3   263  THR263      0.1897
     64  C        -19.6520   66.5850  -26.3640 C.2   263  THR263      0.2313
     65  O        -20.2790   67.5800  -26.7450 O.2   263  THR263     -0.2863
     66  CB       -20.9160   64.5460  -25.5830 C.3   263  THR263      0.1794
     67  OG1      -21.4900   63.3020  -26.0240 O.3   263  THR263     -0.2208
     68  CG2      -22.0320   65.4670  -25.0990 C.3   263  THR263      0.0378
     69  N        -18.5790   68.3080  -29.7370 N.3   266  LEU266     -0.1245
     70  CA       -19.7150   68.7570  -30.5360 C.3   266  LEU266      0.1561
     71  C        -20.2150   70.1150  -30.0610 C.2   266  LEU266      0.2260
     72  O        -20.5810   70.9710  -30.8750 O.2   266  LEU266     -0.2867
     73  CB       -20.8440   67.7250  -30.4840 C.3   266  LEU266      0.0270
     74  CG       -20.5690   66.3120  -31.0240 C.3   266  LEU266      0.0019
     75  CD1      -21.7090   65.3690  -30.6720 C.3   266  LEU266      0.0001
     76  CD2      -20.3090   66.3100  -32.5270 C.3   266  LEU266      0.0001
@<TRIPOS>BOND
     1    61    59    1
     2    59    60    1
     3    59    58    2
     4    58    57    1
     5     1     7    1
     6     1     2    1
     7     3     4    2
     8     3     2    1
     9    76    74    1
    10     7     6    1
    11     2     5    1
    12    57    56    1
    13     5     6    1
    14    74    75    1
    15    74    73    1
    16    72    71    2
    17    70    73    1
    18    70    71    1
    19    70    69    1
    20    56    55    1
    21    55    52    1
    22    54    53    2
    23    52    53    1
    24    52    51    1
    25    53    62   am
    26    11    10    2
    27     8     9    1
    28    12     9    1
    29    62    63    1
    30     9    10    1
    31    65    64    2
    32    63    64    1
    33    63    66    1
    34    44    43    1
    35    42    41    2
    36    46    45    1
    37    46    49    1
    38    46    47    1
    39    43    40    1
    40    67    66    1
    41    48    47    2
    42    40    41    1
    43    40    39    1
    44    50    49    1
    45    38    37    2
    46    66    68    1
    47    37    39   am
    48    37    36    1
    49    34    32    1
    50    20    19    1
    51    24    23    2
    52    27    25    1
    53    19    18    1
    54    36    35    1
    55    31    30    2
    56    23    22    1
    57    32    33    1
    58    32    29    1
    59    30    29    1
    60    25    22    1
    61    25    26    1
    62    21    22    1
    63    21    15   am
    64    29    28    1
    65    18    17    1
    66    14    15    1
    67    14    17    1
    68    14    13    1
    69    15    16    2
