@<TRIPOS>MOLECULE
tmp/5uavD00.pdb
 67 61 0 0 0
SMALL
GASTEIGER

@<TRIPOS>ATOM
      1  N        -20.8720   19.3940  -10.9860 N.3    78  PRO78      -0.2116
      2  CA       -20.8410   18.2510  -11.9240 C.3    78  PRO78       0.1372
      3  C        -20.1230   17.0100  -11.4050 C.2    78  PRO78       0.2244
      4  O        -20.6100   15.8850  -11.5990 O.2    78  PRO78      -0.2868
      5  CB       -20.1190   18.8360  -13.1460 C.3    78  PRO78       0.0268
      6  CG       -20.4620   20.3000  -13.1080 C.3    78  PRO78       0.0207
      7  CD       -20.4990   20.6640  -11.6440 C.3    78  PRO78       0.0892
      8  N        -23.8230   21.5650  -15.0830 N.3   103  ALA103     -0.1245
      9  CA       -23.1170   21.8490  -16.3280 C.3   103  ALA103      0.1562
     10  C        -22.4540   20.5870  -16.8710 C.2   103  ALA103      0.2260
     11  O        -21.8430   19.8190  -16.1240 O.2   103  ALA103     -0.2867
     12  CB       -22.0590   22.9320  -16.0950 C.3   103  ALA103      0.0290
     13  N        -30.2720   23.6730  -18.4440 N.3   127  MET127     -0.1230
     14  CA       -29.2840   24.7010  -18.1640 C.3   127  MET127      0.1702
     15  C        -30.0750   25.9810  -17.9420 C.2   127  MET127      0.2593
     16  O        -31.0010   26.2760  -18.7000 O.2   127  MET127     -0.2718
     17  CB       -28.2650   24.8490  -19.3030 C.3   127  MET127      0.0401
     18  CG       -27.2240   25.9640  -19.0960 C.3   127  MET127      0.0596
     19  SD       -26.4980   26.0560  -17.4400 S.3   127  MET127     -0.1393
     20  CE       -25.8370   24.4070  -17.1770 C.3   127  MET127      0.0692
     21  N        -29.7690   26.6860  -16.8630 N.am  128  THR128     -0.1939
     22  CA       -30.5240   27.8870  -16.5000 C.3   128  THR128      0.2028
     23  C        -29.4850   28.9250  -16.0910 C.2   128  THR128      0.2642
     24  O        -28.3290   28.8590  -16.5220 O.2   128  THR128     -0.2714
     25  CB       -31.5970   27.5470  -15.4430 C.3   128  THR128      0.1808
     26  OG1      -32.4670   28.6700  -15.2400 O.3   128  THR128     -0.2208
     27  CG2      -30.9840   27.1200  -14.1100 C.3   128  THR128      0.0379
     28  N        -29.8830   29.9280  -15.3140 N.am  129  ASN129     -0.1971
     29  CA       -28.9060   30.8920  -14.8320 C.3   129  ASN129      0.1688
     30  C        -29.4680   31.5710  -13.5950 C.2   129  ASN129      0.2292
     31  O        -30.6460   31.4230  -13.2600 O.2   129  ASN129     -0.2864
     32  CB       -28.4970   31.9020  -15.9280 C.3   129  ASN129      0.1181
     33  CG       -29.6740   32.6770  -16.5330 C.2   129  ASN129      0.2629
     34  OD1      -30.7960   32.6200  -16.0480 O.2   129  ASN129     -0.2716
     35  ND2      -29.3940   33.4160  -17.6170 N.am  129  ASN129     -0.0877
     36  N        -24.7520   26.7770  -22.1190 N.3   177  THR177     -0.1218
     37  CA       -24.0250   27.0340  -20.8770 C.3   177  THR177      0.1862
     38  C        -23.0130   28.1580  -21.0590 C.2   177  THR177      0.2287
     39  O        -22.9080   29.0560  -20.2090 O.2   177  THR177     -0.2866
     40  CB       -23.3260   25.7490  -20.4050 C.3   177  THR177      0.1770
     41  OG1      -24.2930   24.6980  -20.2680 O.3   177  THR177     -0.2211
     42  CG2      -22.6160   25.9710  -19.0690 C.3   177  THR177      0.0375
     43  N        -25.7580   30.5460  -19.5270 N.3   181  GLY181     -0.1210
     44  CA       -25.3640   30.0660  -18.2080 C.3   181  GLY181      0.1956
     45  C        -24.2900   30.9360  -17.5770 C.2   181  GLY181      0.2612
     46  O        -24.4340   31.4060  -16.4430 O.2   181  GLY181     -0.2717
     47  N        -23.1980   31.1730  -18.3170 N.am  182  SER182     -0.1952
     48  CA       -22.1340   32.0730  -17.8760 C.3   182  SER182      0.1924
     49  C        -22.4450   33.5400  -18.1530 C.2   182  SER182      0.2314
     50  O        -21.7920   34.4180  -17.5730 O.2   182  SER182     -0.2863
     51  CB       -20.8170   31.6850  -18.5710 C.3   182  SER182      0.2116
     52  OG       -20.4070   30.3820  -18.1710 O.3   182  SER182     -0.2180
     53  N        -16.9140   23.4500  -20.2640 N.3   271  THR271     -0.1218
     54  CA       -18.0380   22.5940  -19.8990 C.3   271  THR271      0.1862
     55  C        -17.8550   21.2000  -20.4930 C.2   271  THR271      0.2287
     56  O        -18.0080   20.1890  -19.7950 O.2   271  THR271     -0.2866
     57  CB       -19.3460   23.2300  -20.3730 C.3   271  THR271      0.1770
     58  OG1      -19.5520   24.4800  -19.6970 O.3   271  THR271     -0.2211
     59  CG2      -20.5450   22.3190  -20.0920 C.3   271  THR271      0.0375
     60  N        -14.8370   19.1620  -18.6930 N.3   274  LEU274     -0.1245
     61  CA       -15.1390   18.5470  -17.4070 C.3   274  LEU274      0.1561
     62  C        -15.8920   17.2360  -17.5880 C.2   274  LEU274      0.2260
     63  O        -15.6660   16.2720  -16.8470 O.2   274  LEU274     -0.2867
     64  CB       -15.9530   19.5160  -16.5480 C.3   274  LEU274      0.0270
     65  CG       -15.2880   20.8560  -16.1930 C.3   274  LEU274      0.0019
     66  CD1      -16.2780   21.8240  -15.5410 C.3   274  LEU274      0.0001
     67  CD2      -14.0820   20.6360  -15.2930 C.3   274  LEU274      0.0001
@<TRIPOS>BOND
     1    36    37    1
     2    38    37    1
     3    38    39    2
     4    37    40    1
     5    55    54    1
     6    55    56    2
     7    40    41    1
     8    40    42    1
     9    57    59    1
    10    57    54    1
    11    57    58    1
    12    53    54    1
    13    43    44    1
    14    17    18    1
    15    17    14    1
    16    18    19    1
    17    16    15    2
    18    60    61    1
    19    51    52    1
    20    51    48    1
    21    13    14    1
    22    47    48    1
    23    47    45   am
    24    44    45    1
    25    14    15    1
    26    49    48    1
    27    49    50    2
    28    15    21   am
    29    35    33   am
    30    62    61    1
    31    62    63    2
    32    45    46    2
    33    19    20    1
    34    61    64    1
    35    10     9    1
    36    10    11    2
    37    21    22    1
    38    64    65    1
    39    33    34    2
    40    33    32    1
    41    24    23    2
    42    22    23    1
    43    22    25    1
    44     9    12    1
    45     9     8    1
    46    65    66    1
    47    65    67    1
    48    23    28   am
    49    32    29    1
    50    25    26    1
    51    25    27    1
    52    28    29    1
    53    29    30    1
    54    30    31    2
    55     5     6    1
    56     5     2    1
    57     6     7    1
    58     2     3    1
    59     2     1    1
    60     7     1    1
    61     4     3    2
