@<TRIPOS>MOLECULE
tmp/5ub6B00.pdb
 121 111 0 0 0
SMALL
GASTEIGER

@<TRIPOS>ATOM
      1  N        -47.9660    9.1810  -37.0760 N.3     8  ARG8       -0.1245
      2  CA       -47.3230    8.3600  -36.0540 C.3     8  ARG8        0.1563
      3  C        -46.8810    9.3020  -34.9190 C.2     8  ARG8        0.2260
      4  O        -46.5460   10.4470  -35.1740 O.2     8  ARG8       -0.2867
      5  CB       -46.1070    7.6090  -36.6240 C.3     8  ARG8        0.0307
      6  CG       -45.2970    6.8700  -35.5700 C.3     8  ARG8        0.0489
      7  CD       -44.5820    5.6300  -36.0760 C.3     8  ARG8        0.2205
      8  NE       -44.2940    4.6100  -35.0280 N.pl3   8  ARG8       -0.0865
      9  CZ       -45.1320    3.6380  -34.6300 C.cat   8  ARG8        0.5346
     10  NH1      -46.3410    3.5080  -35.1600 N.pl3   8  ARG8        0.1354
     11  NH2      -44.7670    2.7760  -33.6850 N.pl3   8  ARG8        0.1354
     12  N        -48.9500    1.1720  -31.0370 N.3    65  THR65      -0.1218
     13  CA       -49.0610    0.0940  -30.0580 C.3    65  THR65       0.1862
     14  C        -50.2650    0.3970  -29.2240 C.2    65  THR65       0.2287
     15  O        -50.7490    1.5400  -29.1830 O.2    65  THR65      -0.2866
     16  CB       -47.8000   -0.0780  -29.1940 C.3    65  THR65       0.1770
     17  OG1      -47.5750    1.1210  -28.4550 O.3    65  THR65      -0.2211
     18  CG2      -46.5770   -0.3670  -30.0710 C.3    65  THR65       0.0375
     19  N        -50.5810    3.3330  -26.2590 N.3    68  ALA68      -0.1245
     20  CA       -50.6150    4.6340  -26.9070 C.3    68  ALA68       0.1562
     21  C        -51.9510    4.8580  -27.6080 C.2    68  ALA68       0.2260
     22  O        -52.5010    5.9510  -27.5130 O.2    68  ALA68      -0.2867
     23  CB       -49.4520    4.7730  -27.9020 C.3    68  ALA68       0.0290
     24  N        -47.2430   -7.3360  -36.0770 N.3    86  ARG86      -0.1245
     25  CA       -45.9290   -6.8870  -36.5240 C.3    86  ARG86       0.1563
     26  C        -44.8520   -7.9350  -36.2160 C.2    86  ARG86       0.2260
     27  O        -44.8410   -8.5570  -35.1400 O.2    86  ARG86      -0.2867
     28  CB       -45.5610   -5.5920  -35.8150 C.3    86  ARG86       0.0307
     29  CG       -46.4460   -4.4100  -36.1750 C.3    86  ARG86       0.0489
     30  CD       -45.9650   -3.2020  -35.4200 C.3    86  ARG86       0.2205
     31  NE       -46.7840   -2.0390  -35.7220 N.pl3  86  ARG86      -0.0865
     32  CZ       -46.8220   -0.9150  -34.9930 C.cat  86  ARG86       0.5346
     33  NH1      -46.1000   -0.7800  -33.8520 N.pl3  86  ARG86       0.1354
     34  NH2      -47.6200    0.0740  -35.4060 N.pl3  86  ARG86       0.1354
     35  N        -47.6450   -8.6970  -27.4410 N.3    92  PHE92      -0.1241
     36  CA       -46.3750   -8.6030  -26.7650 C.3    92  PHE92       0.1605
     37  C        -46.5880   -8.3290  -25.2970 C.2    92  PHE92       0.2264
     38  O        -47.7260   -8.1980  -24.8660 O.2    92  PHE92      -0.2867
     39  CB       -45.4210   -7.6100  -27.4580 C.3    92  PHE92       0.0534
     40  CG       -45.7400   -6.1080  -27.3110 C.ar   92  PHE92      -0.0203
     41  CD1      -46.9920   -5.6000  -26.9760 C.ar   92  PHE92      -0.0042
     42  CD2      -44.7330   -5.1930  -27.6230 C.ar   92  PHE92      -0.0042
     43  CE1      -47.2040   -4.2320  -26.9210 C.ar   92  PHE92      -0.0003
     44  CE2      -44.9590   -3.8320  -27.5880 C.ar   92  PHE92      -0.0003
     45  CZ       -46.1990   -3.3440  -27.2360 C.ar   92  PHE92      -0.0000
     46  N        -39.0410    4.5750  -20.8180 N.3   118  GLN118     -0.1231
     47  CA       -38.6580    5.1510  -22.1030 C.3   118  GLN118      0.1698
     48  C        -39.2980    6.5260  -22.2960 C.2   118  GLN118      0.2592
     49  O        -38.6530    7.5380  -22.0830 O.2   118  GLN118     -0.2718
     50  CB       -39.0360    4.1800  -23.2010 C.3   118  GLN118      0.0381
     51  CG       -38.3160    2.8620  -23.0980 C.3   118  GLN118      0.0905
     52  CD       -38.8270    1.8400  -24.1130 C.2   118  GLN118      0.2608
     53  OE1      -39.1910    2.2100  -25.1930 O.2   118  GLN118     -0.2717
     54  NE2      -38.8400    0.5500  -23.7500 N.am  118  GLN118     -0.0878
     55  N        -40.5620    6.5560  -22.6850 N.am  119  ASN119     -0.1974
     56  CA       -41.3290    7.8030  -22.8160 C.3   119  ASN119      0.1688
     57  C        -42.8000    7.5510  -22.4480 C.2   119  ASN119      0.2292
     58  O        -43.3230    6.4110  -22.5390 O.2   119  ASN119     -0.2864
     59  CB       -41.2210    8.3860  -24.2370 C.3   119  ASN119      0.1181
     60  CG       -41.9470    7.5360  -25.2750 C.2   119  ASN119      0.2629
     61  OD1      -43.1730    7.5500  -25.3910 O.2   119  ASN119     -0.2716
     62  ND2      -41.1950    6.7790  -26.0020 N.am  119  ASN119     -0.0877
     63  N        -45.5460    7.9660  -23.9290 N.3   121  SER121     -0.1202
     64  CA       -46.4700    7.4370  -24.9130 C.3   121  SER121      0.2020
     65  C        -46.1660    5.9640  -25.2420 C.2   121  SER121      0.2619
     66  O        -46.7760    5.4330  -26.1690 O.2   121  SER121     -0.2717
     67  CB       -46.4230    8.2640  -26.2120 C.3   121  SER121      0.2103
     68  OG       -46.9070    9.5850  -25.9720 O.3   121  SER121     -0.2182
     69  N        -45.2080    5.3410  -24.5230 N.am  122  SER122     -0.1937
     70  CA       -44.7660    3.9760  -24.8030 C.3   122  SER122      0.2055
     71  C        -45.6600    2.9660  -24.1040 C.2   122  SER122      0.2644
     72  O        -45.8490    3.0140  -22.8520 O.2   122  SER122     -0.2714
     73  CB       -43.3400    3.7540  -24.3100 C.3   122  SER122      0.2130
     74  OG       -42.8550    2.4800  -24.6410 O.3   122  SER122     -0.2179
     75  N        -46.1800    2.0230  -24.8830 N.am  123  THR123     -0.1936
     76  CA       -46.8770    0.8800  -24.2890 C.3   123  THR123      0.2028
     77  C        -45.9780    0.0150  -23.3970 C.2   123  THR123      0.2642
     78  O        -46.1960   -0.1210  -22.1830 O.2   123  THR123     -0.2714
     79  CB       -47.5270    0.0290  -25.3880 C.3   123  THR123      0.1808
     80  OG1      -48.4510    0.8610  -26.0880 O.3   123  THR123     -0.2208
     81  CG2      -48.2450   -1.1930  -24.8150 C.3   123  THR123      0.0379
     82  N        -44.9630   -0.5570  -24.0080 N.am  124  SER124     -0.1949
     83  CA       -44.1380   -1.5890  -23.3650 C.3   124  SER124      0.1924
     84  C        -43.0590   -0.9460  -22.4670 C.2   124  SER124      0.2314
     85  O        -42.4820   -1.6250  -21.6310 O.2   124  SER124     -0.2863
     86  CB       -43.5000   -2.4560  -24.4400 C.3   124  SER124      0.2116
     87  OG       -42.5250   -1.7040  -25.1800 O.3   124  SER124     -0.2180
     88  N        -34.4290    2.9670  -25.8150 N.3   163  LYS163     -0.1245
     89  CA       -34.3030    1.5960  -25.3630 C.3   163  LYS163      0.1561
     90  C        -32.8750    1.2750  -24.9170 C.2   163  LYS163      0.2260
     91  O        -32.6690    0.5890  -23.9020 O.2   163  LYS163     -0.2867
     92  CB       -34.7370    0.6380  -26.4540 C.3   163  LYS163      0.0271
     93  CG       -36.2310    0.7500  -26.7180 C.3   163  LYS163      0.0035
     94  CD       -36.6470    0.2920  -28.0910 C.3   163  LYS163      0.0206
     95  CE       -38.1400    0.4650  -28.1900 C.3   163  LYS163      0.1093
     96  NZ       -38.6190   -0.2760  -29.3810 N.3   163  LYS163     -0.1314
     97  N        -40.0590   -4.2970  -24.0110 N.3   181  SER181     -0.1217
     98  CA       -40.8550   -5.3740  -24.5380 C.3   181  SER181      0.1889
     99  C        -40.0410   -6.6450  -24.7340 C.2   181  SER181      0.2288
    100  O        -38.8760   -6.6000  -25.0330 O.2   181  SER181     -0.2866
    101  CB       -41.5510   -4.9620  -25.8580 C.3   181  SER181      0.2089
    102  OG       -40.6910   -5.0460  -26.9500 O.3   181  SER181     -0.2183
    103  N        -38.3940   -6.3680  -28.0780 N.3   184  ASP184     -0.1239
    104  CA       -37.1420   -5.6220  -27.9730 C.3   184  ASP184      0.1674
    105  C        -36.0210   -6.4880  -27.4490 C.2   184  ASP184      0.2266
    106  O        -34.8660   -6.3330  -27.8620 O.2   184  ASP184     -0.2867
    107  CB       -37.2700   -4.4710  -26.9870 C.3   184  ASP184      0.1410
    108  CG       -38.1620   -3.3790  -27.4610 C.2   184  ASP184      0.3668
    109  OD1      -38.3440   -3.1810  -28.6870 O.co2 184  ASP184     -0.2456
    110  OD2      -38.6660   -2.6840  -26.5660 O.co2 184  ASP184     -0.2456
    111  N        -50.4110   -6.3820  -29.8510 N.3   210  ARG210     -0.1245
    112  CA       -49.1770   -5.7350  -30.2660 C.3   210  ARG210      0.1563
    113  C        -49.4380   -4.3010  -30.7690 C.2   210  ARG210      0.2260
    114  O        -48.7750   -3.3280  -30.3590 O.2   210  ARG210     -0.2867
    115  CB       -48.5700   -6.6360  -31.3620 C.3   210  ARG210      0.0307
    116  CG       -47.2300   -6.2720  -31.9550 C.3   210  ARG210      0.0489
    117  CD       -46.1040   -6.3310  -30.9480 C.3   210  ARG210      0.2205
    118  NE       -44.9200   -5.7330  -31.5590 N.pl3 210  ARG210     -0.0865
    119  CZ       -44.7050   -4.4280  -31.6430 C.cat 210  ARG210      0.5346
    120  NH1      -45.5700   -3.5500  -31.1290 N.pl3 210  ARG210      0.1354
    121  NH2      -43.6000   -4.0030  -32.2410 N.pl3 210  ARG210      0.1354
@<TRIPOS>BOND
     1     1     2    1
     2     5     2    1
     3     5     6    1
     4    25    26    1
     5    25    24    1
     6    25    28    1
     7    26    27    2
     8    29    28    1
     9    29    30    1
    10     7     6    1
    11     7     8    1
    12     2     3    1
    13    31    30    1
    14    31    32    2
    15    34    32    1
    16     4     3    2
    17    10     9    1
    18     8     9    2
    19    32    33    1
    20     9    11    1
    21   121   119    1
    22   116   115    1
    23   116   117    1
    24   119   118    2
    25   119   120    1
    26   118   117    1
    27   115   112    1
    28    12    13    1
    29   113   114    2
    30   113   112    1
    31   112   111    1
    32    18    16    1
    33    13    14    1
    34    13    16    1
    35    96    95    1
    36    14    15    2
    37    16    17    1
    38   109   108   ar
    39    95    94    1
    40    94    93    1
    41   103   104    1
    42   104   105    1
    43   104   107    1
    44    23    20    1
    45   106   105    2
    46    42    44   ar
    47    42    40   ar
    48    21    22    2
    49    21    20    1
    50    44    45   ar
    51   108   107    1
    52   108   110   ar
    53    39    40    1
    54    39    36    1
    55    35    36    1
    56    40    41   ar
    57    45    43   ar
    58    41    43   ar
    59   102   101    1
    60    20    19    1
    61    36    37    1
    62    93    92    1
    63    92    89    1
    64    67    68    1
    65    67    64    1
    66    66    65    2
    67    80    79    1
    68    62    60   am
    69   101    98    1
    70    88    89    1
    71    61    60    2
    72    79    81    1
    73    79    76    1
    74    89    90    1
    75    37    38    2
    76    60    59    1
    77    65    64    1
    78    65    69   am
    79    53    52    2
    80    87    86    1
    81   100    99    2
    82    90    91    2
    83    64    63    1
    84    75    76    1
    85    75    71   am
    86    70    69    1
    87    70    73    1
    88    70    71    1
    89    99    98    1
    90    74    73    1
    91    98    97    1
    92    86    83    1
    93    76    77    1
    94    59    56    1
    95    52    54   am
    96    52    51    1
    97    71    72    2
    98    82    77   am
    99    82    83    1
   100    77    78    2
   101    83    84    1
   102    50    51    1
   103    50    47    1
   104    56    55    1
   105    56    57    1
   106    55    48   am
   107    58    57    2
   108    84    85    2
   109    48    47    1
   110    48    49    2
   111    47    46    1
