@<TRIPOS>MOLECULE
tmp/5ub7A00.pdb
 144 135 0 0 0
SMALL
GASTEIGER

@<TRIPOS>ATOM
      1  N          5.6220   -7.8150    4.9220 N.3     8  ARG8       -0.1245
      2  CA         6.7990   -7.5560    5.7470 C.3     8  ARG8        0.1563
      3  C          6.6900   -8.2570    7.0880 C.2     8  ARG8        0.2260
      4  O          5.6140   -8.7080    7.4650 O.2     8  ARG8       -0.2867
      5  CB         6.9980   -6.0600    5.9850 C.3     8  ARG8        0.0307
      6  CG         5.8930   -5.3720    6.7780 C.3     8  ARG8        0.0489
      7  CD         6.3570   -4.0060    7.2450 C.3     8  ARG8        0.2205
      8  NE         7.0250   -4.0800    8.5250 N.pl3   8  ARG8       -0.0865
      9  CZ         7.8000   -3.1320    9.0380 C.cat   8  ARG8        0.5346
     10  NH1        8.0480   -1.9920    8.3850 N.pl3   8  ARG8        0.1354
     11  NH2        8.3590   -3.3350   10.2320 N.pl3   8  ARG8        0.1354
     12  N          0.4970   -1.8220    9.7000 N.3    16  HIS16      -0.1241
     13  CA         1.3290   -2.0500    8.5230 C.3    16  HIS16       0.1621
     14  C          0.5310   -2.4280    7.2680 C.2    16  HIS16       0.2264
     15  O          0.9350   -2.0690    6.1620 O.2    16  HIS16      -0.2867
     16  CB         2.4770   -3.0250    8.8370 C.3    16  HIS16       0.0745
     17  CG         3.5370   -2.4430    9.7360 C.ar   16  HIS16       0.0817
     18  ND1        3.9900   -1.1440    9.6200 N.ar   16  HIS16      -0.2268
     19  CD2        4.2500   -2.9930   10.7470 C.ar   16  HIS16       0.1154
     20  CE1        4.9280   -0.9200   10.5200 C.ar   16  HIS16       0.1986
     21  NE2        5.1050   -2.0280   11.2160 N.ar   16  HIS16      -0.2212
     22  N         11.8670   -4.1660    3.6260 N.3    64  GLU64      -0.1231
     23  CA        12.4540   -4.3690    4.9650 C.3    64  GLU64       0.1699
     24  C         13.6170   -3.4420    5.2010 C.2    64  GLU64       0.2592
     25  O         14.3200   -3.0730    4.2720 O.2    64  GLU64      -0.2718
     26  CB        13.0050   -5.8080    5.1140 C.3    64  GLU64       0.0402
     27  CG        11.9660   -6.8990    5.2040 C.3    64  GLU64       0.1161
     28  CD        11.1180   -6.7870    6.4420 C.2    64  GLU64       0.3649
     29  OE1       11.5940   -6.2000    7.4210 O.co2  64  GLU64      -0.2457
     30  OE2        9.9840   -7.3050    6.4370 O.co2  64  GLU64      -0.2457
     31  N         13.8660   -3.1360    6.4660 N.am   65  THR65      -0.1953
     32  CA        15.1290   -2.5560    6.8390 C.3    65  THR65       0.1897
     33  C         16.1640   -3.6220    6.5690 C.2    65  THR65       0.2313
     34  O         15.8500   -4.8220    6.4640 O.2    65  THR65      -0.2863
     35  CB        15.1420   -2.1110    8.2750 C.3    65  THR65       0.1794
     36  OG1       14.7240   -3.1910    9.0980 O.3    65  THR65      -0.2208
     37  CG2       14.1790   -0.9530    8.4500 C.3    65  THR65       0.0378
     38  N         16.9530   -6.7850    8.9210 N.3    68  ALA68      -0.1245
     39  CA        15.8920   -7.7640    8.7900 C.3    68  ALA68       0.1562
     40  C         15.9850   -8.4390    7.4490 C.2    68  ALA68       0.2260
     41  O         15.7960   -9.6540    7.3370 O.2    68  ALA68      -0.2867
     42  CB        14.5430   -7.1270    8.9350 C.3    68  ALA68       0.0290
     43  N         13.8940    6.1350    2.3770 N.3    86  ARG86      -0.1245
     44  CA        12.7000    6.4870    3.1650 C.3    86  ARG86       0.1563
     45  C         12.8680    7.8370    3.8730 C.2    86  ARG86       0.2260
     46  O         13.9270    8.1150    4.4460 O.2    86  ARG86      -0.2867
     47  CB        12.4300    5.4030    4.2060 C.3    86  ARG86       0.0307
     48  CG        11.8360    4.1360    3.6110 C.3    86  ARG86       0.0489
     49  CD        11.6770    3.0810    4.6790 C.3    86  ARG86       0.2205
     50  NE        11.2150    1.8270    4.1060 N.pl3  86  ARG86      -0.0865
     51  CZ        10.9670    0.7160    4.7970 C.cat  86  ARG86       0.5346
     52  NH1       11.1180    0.6710    6.1150 N.pl3  86  ARG86       0.1354
     53  NH2       10.5590   -0.3610    4.1540 N.pl3  86  ARG86       0.1354
     54  N         20.6080    5.0010    7.6510 N.3    92  PHE92      -0.1241
     55  CA        20.2930    5.3570    9.0100 C.3    92  PHE92       0.1605
     56  C         21.2590    4.6730    9.9510 C.2    92  PHE92       0.2264
     57  O         22.1710    3.9030    9.5190 O.2    92  PHE92      -0.2867
     58  CB        18.7870    5.1770    9.3380 C.3    92  PHE92       0.0534
     59  CG        18.3100    3.7520    9.5850 C.ar   92  PHE92      -0.0203
     60  CD1       18.9440    2.6300    9.0600 C.ar   92  PHE92      -0.0042
     61  CD2       17.1400    3.5580   10.3260 C.ar   92  PHE92      -0.0042
     62  CE1       18.4600    1.3690    9.3210 C.ar   92  PHE92      -0.0003
     63  CE2       16.6390    2.2960   10.5670 C.ar   92  PHE92      -0.0003
     64  CZ        17.3080    1.2030   10.0620 C.ar   92  PHE92      -0.0000
     65  N         14.1990   -3.7970   21.1140 N.3   118  GLN118     -0.1245
     66  CA        12.8920   -3.9250   20.5100 C.3   118  GLN118      0.1566
     67  C         12.4400   -5.3810   20.3230 C.2   118  GLN118      0.2260
     68  O         11.7080   -5.9070   21.1500 O.2   118  GLN118     -0.2867
     69  CB        12.8300   -3.1010   19.2240 C.3   118  GLN118      0.0367
     70  CG        12.5910   -1.6270   19.5570 C.3   118  GLN118      0.0905
     71  CD        13.0470   -0.6460   18.4830 C.2   118  GLN118      0.2608
     72  OE1       12.5820   -0.6670   17.3520 O.2   118  GLN118     -0.2717
     73  NE2       13.9550    0.2460   18.8620 N.am  118  GLN118     -0.0878
     74  N         13.7820   -9.0140   15.0700 N.3   121  SER121     -0.1202
     75  CA        13.8110   -8.6330   13.6730 C.3   121  SER121      0.2020
     76  C         14.1560   -7.1450   13.4280 C.2   121  SER121      0.2619
     77  O         14.2580   -6.7470   12.2730 O.2   121  SER121     -0.2717
     78  CB        12.4570   -8.9570   13.0490 C.3   121  SER121      0.2103
     79  OG        12.0770  -10.3080   13.3070 O.3   121  SER121     -0.2182
     80  N         14.3290   -6.3370   14.4840 N.am  122  SER122     -0.1937
     81  CA        14.5760   -4.8820   14.3240 C.3   122  SER122      0.2055
     82  C         16.0370   -4.6250   13.9780 C.2   122  SER122      0.2644
     83  O         16.9720   -5.0600   14.6930 O.2   122  SER122     -0.2714
     84  CB        14.2260   -4.1340   15.6000 C.3   122  SER122      0.2130
     85  OG        14.4690   -2.7520   15.5020 O.3   122  SER122     -0.2179
     86  N         16.2330   -3.9290   12.8640 N.am  123  THR123     -0.1936
     87  CA        17.5550   -3.5350   12.4150 C.3   123  THR123      0.2028
     88  C         18.1430   -2.4900   13.3960 C.2   123  THR123      0.2642
     89  O         19.2160   -2.6960   13.9480 O.2   123  THR123     -0.2714
     90  CB        17.4980   -2.9910   10.9670 C.3   123  THR123      0.1808
     91  OG1       17.1470   -4.0430   10.0450 O.3   123  THR123     -0.2208
     92  CG2       18.8010   -2.3950   10.5730 C.3   123  THR123      0.0379
     93  N         17.4360   -1.3960   13.6220 N.am  124  SER124     -0.1949
     94  CA        17.9500   -0.3090   14.4640 C.3   124  SER124      0.1924
     95  C         17.7740   -0.5110   15.9630 C.2   124  SER124      0.2314
     96  O         18.4700    0.1230   16.7810 O.2   124  SER124     -0.2863
     97  CB        17.3190    1.0270   14.0730 C.3   124  SER124      0.2116
     98  OG        15.9360    1.0770   14.3770 O.3   124  SER124     -0.2180
     99  N          9.0220    0.6150   19.9180 N.3   163  LYS163     -0.1245
    100  CA         9.8480    1.8000   19.9820 C.3   163  LYS163      0.1561
    101  C          9.4740    2.7410   21.1320 C.2   163  LYS163      0.2260
    102  O         10.3770    3.2440   21.8360 O.2   163  LYS163     -0.2867
    103  CB         9.8410    2.4980   18.6380 C.3   163  LYS163      0.0271
    104  CG        10.6720    1.7030   17.6500 C.3   163  LYS163      0.0035
    105  CD        10.5720    2.1140   16.2000 C.3   163  LYS163      0.0206
    106  CE        11.5480    1.2230   15.4270 C.3   163  LYS163      0.1093
    107  NZ        11.7580    1.6120   14.0260 N.3   163  LYS163     -0.1314
    108  N         16.4240    8.2620   13.0340 N.3   183  VAL183     -0.1231
    109  CA        15.1200    8.6630   12.5040 C.3   183  VAL183      0.1692
    110  C         14.0690    8.6060   13.5970 C.2   183  VAL183      0.2592
    111  O         13.2390    9.5200   13.7350 O.2   183  VAL183     -0.2718
    112  CB        14.6910    7.7500   11.3330 C.3   183  VAL183      0.0266
    113  CG1       13.2530    8.0340   10.9010 C.3   183  VAL183      0.0020
    114  CG2       15.6400    7.9290   10.1480 C.3   183  VAL183      0.0020
    115  N         14.1070    7.5120   14.3620 N.am  184  ASP184     -0.1974
    116  CA        13.2360    7.3330   15.5230 C.3   184  ASP184      0.1709
    117  C         13.3550    8.4500   16.5290 C.2   184  ASP184      0.2293
    118  O         12.3690    8.7960   17.1610 O.2   184  ASP184     -0.2864
    119  CB        13.5650    6.0230   16.2250 C.3   184  ASP184      0.1436
    120  CG        12.9870    4.8130   15.5410 C.2   184  ASP184      0.3671
    121  OD1       11.9480    4.9690   14.8550 O.co2 184  ASP184     -0.2456
    122  OD2       13.5540    3.6930   15.7400 O.co2 184  ASP184     -0.2456
    123  N         19.2000    2.1510    4.5710 N.3   210  ARG210     -0.1245
    124  CA        17.9450    2.3710    5.2960 C.3   210  ARG210      0.1563
    125  C         16.9420    1.2160    5.1440 C.2   210  ARG210      0.2260
    126  O         16.2400    0.9020    6.0930 O.2   210  ARG210     -0.2867
    127  CB        17.3530    3.7140    4.8010 C.3   210  ARG210      0.0307
    128  CG        15.9940    4.1540    5.3240 C.3   210  ARG210      0.0489
    129  CD        16.0820    4.8270    6.6680 C.3   210  ARG210      0.2205
    130  NE        14.7740    5.0150    7.2770 N.pl3 210  ARG210     -0.0865
    131  CZ        14.0290    4.0460    7.8120 C.cat 210  ARG210      0.5346
    132  NH1       14.4310    2.7620    7.8140 N.pl3 210  ARG210      0.1354
    133  NH2       12.8360    4.3560    8.3260 N.pl3 210  ARG210      0.1354
    134  N          5.5940    3.5030    4.0940 N.3   248  PHE248     -0.1241
    135  CA         6.6760    3.8700    5.0120 C.3   248  PHE248      0.1605
    136  C          7.4400    5.1230    4.5420 C.2   248  PHE248      0.2264
    137  O          8.6420    5.2310    4.7340 O.2   248  PHE248     -0.2867
    138  CB         7.6430    2.6900    5.2080 C.3   248  PHE248      0.0534
    139  CG         6.9650    1.3350    5.2750 C.ar  248  PHE248     -0.0203
    140  CD1        6.3000    0.9200    6.4320 C.ar  248  PHE248     -0.0042
    141  CD2        7.0010    0.4650    4.1890 C.ar  248  PHE248     -0.0042
    142  CE1        5.6750   -0.3230    6.4890 C.ar  248  PHE248     -0.0003
    143  CE2        6.3740   -0.7810    4.2410 C.ar  248  PHE248     -0.0003
    144  CZ         5.7180   -1.1810    5.3960 C.ar  248  PHE248     -0.0000
@<TRIPOS>BOND
     1    43    44    1
     2    44    45    1
     3    44    47    1
     4    48    47    1
     5    48    49    1
     6    22    23    1
     7    45    46    2
     8   134   135    1
     9    50    49    1
    10    50    51    2
    11    53    51    1
    12   141   143   ar
    13   141   139   ar
    14   143   144   ar
    15    25    24    2
    16   136   137    2
    17   136   135    1
    18   123   124    1
    19    51    52    1
    20   127   124    1
    21   127   128    1
    22     1     2    1
    23    23    26    1
    24    23    24    1
    25   135   138    1
    26    26    27    1
    27   125   124    1
    28   125   126    2
    29    24    31   am
    30    27    28    1
    31   138   139    1
    32   139   140   ar
    33   128   129    1
    34   144   142   ar
    35     2     5    1
    36     2     3    1
    37     5     6    1
    38    15    14    2
    39   140   142   ar
    40    30    28   ar
    41    28    29   ar
    42    34    33    2
    43    31    32    1
    44    33    32    1
    45   129   130    1
    46     6     7    1
    47    32    35    1
    48     3     4    2
    49     7     8    1
    50    14    13    1
    51   130   131    2
    52    41    40    2
    53    40    39    1
    54    54    55    1
    55   131   132    1
    56   131   133    1
    57    35    37    1
    58    35    36    1
    59    10     9    1
    60    13    16    1
    61    13    12    1
    62     8     9    2
    63    39    38    1
    64    39    42    1
    65    16    17    1
    66    55    58    1
    67    55    56    1
    68     9    11    1
    69    60    62   ar
    70    60    59   ar
    71    62    64   ar
    72    58    59    1
    73    57    56    2
    74    59    61   ar
    75    18    17   ar
    76    18    20   ar
    77    17    19   ar
    78    91    90    1
    79    64    63   ar
    80   114   112    1
    81    61    63   ar
    82    20    21   ar
    83    92    90    1
    84    19    21   ar
    85   113   112    1
    86    90    87    1
    87   112   109    1
    88    77    76    2
    89    87    86    1
    90    87    88    1
    91   109   108    1
    92   109   110    1
    93    86    82   am
    94    78    79    1
    95    78    75    1
    96    88    93   am
    97    88    89    2
    98    76    75    1
    99    76    80   am
   100   110   111    2
   101   110   115   am
   102    93    94    1
   103    75    74    1
   104    82    81    1
   105    82    83    2
   106   107   106    1
   107    97    98    1
   108    97    94    1
   109    81    80    1
   110    81    84    1
   111   115   116    1
   112    94    95    1
   113   121   120   ar
   114   106   105    1
   115    85    84    1
   116   116   119    1
   117   116   117    1
   118   120   122   ar
   119   120   119    1
   120    95    96    2
   121   105   104    1
   122   117   118    2
   123    72    71    2
   124   104   103    1
   125    71    73   am
   126    71    70    1
   127   103   100    1
   128    69    70    1
   129    69    66    1
   130    99   100    1
   131   100   101    1
   132    67    66    1
   133    67    68    2
   134    66    65    1
   135   101   102    2
