@<TRIPOS>MOLECULE
tmp/5ub7B00.pdb
 201 190 0 0 0
SMALL
GASTEIGER

@<TRIPOS>ATOM
      1  N         47.8600   -9.0560  -37.2900 N.3     8  ARG8       -0.1231
      2  CA        47.2580   -8.2970  -36.2010 C.3     8  ARG8        0.1694
      3  C         46.6530   -9.1590  -35.0890 C.2     8  ARG8        0.2592
      4  O         46.0950  -10.2120  -35.3290 O.2     8  ARG8       -0.2718
      5  CB        46.1880   -7.3340  -36.7150 C.3     8  ARG8        0.0321
      6  CG        45.6050   -6.5090  -35.5770 C.3     8  ARG8        0.0489
      7  CD        44.9180   -5.2530  -36.0090 C.3     8  ARG8        0.2205
      8  NE        44.5450   -4.4210  -34.8580 N.pl3   8  ARG8       -0.0865
      9  CZ        45.3210   -3.4930  -34.2920 C.cat   8  ARG8        0.5346
     10  NH1       46.5430   -3.2220  -34.7460 N.pl3   8  ARG8        0.1354
     11  NH2       44.8680   -2.8180  -33.2510 N.pl3   8  ARG8        0.1354
     12  N         46.7460   -8.6470  -33.8730 N.am    9  ILE9       -0.1966
     13  CA        46.1060   -9.2240  -32.6890 C.3     9  ILE9        0.1727
     14  C         44.6440   -8.8310  -32.6460 C.2     9  ILE9        0.2616
     15  O         44.3740   -7.6390  -32.7020 O.2     9  ILE9       -0.2715
     16  CB        46.7700   -8.6730  -31.4330 C.3     9  ILE9        0.0290
     17  CG1       48.2750   -8.9710  -31.4940 C.3     9  ILE9        0.0022
     18  CG2       46.1050   -9.2710  -30.2050 C.3     9  ILE9        0.0023
     19  CD1       49.1150   -8.2060  -30.5120 C.3     9  ILE9        0.0001
     20  N         43.7120   -9.7910  -32.5450 N.am   10  SER10      -0.1950
     21  CA        42.2700   -9.4640  -32.3700 C.3    10  SER10       0.1924
     22  C         41.4100  -10.5770  -31.7550 C.2    10  SER10       0.2314
     23  O         41.3040  -11.6570  -32.3360 O.2    10  SER10      -0.2863
     24  CB        41.6560   -9.0400  -33.7080 C.3    10  SER10       0.2116
     25  OG        41.4770  -10.1420  -34.5790 O.3    10  SER10      -0.2180
     26  N         38.8720   -8.6840  -39.1800 N.3    12  HIS12      -0.1241
     27  CA        39.8780   -7.6200  -39.4270 C.3    12  HIS12       0.1621
     28  C         40.5770   -7.7440  -40.7860 C.2    12  HIS12       0.2264
     29  O         41.1990   -6.7870  -41.2340 O.2    12  HIS12      -0.2867
     30  CB        40.9820   -7.6670  -38.3570 C.3    12  HIS12       0.0745
     31  CG        40.6750   -6.8870  -37.1240 C.ar   12  HIS12       0.0817
     32  ND1       41.6480   -6.5540  -36.2080 N.ar   12  HIS12      -0.2268
     33  CD2       39.5170   -6.3660  -36.6570 C.ar   12  HIS12       0.1154
     34  CE1       41.1020   -5.8700  -35.2200 C.ar   12  HIS12       0.1986
     35  NE2       39.8110   -5.7370  -35.4720 N.ar   12  HIS12      -0.2212
     36  N         40.4590   -4.9250  -43.2690 N.3    15  GLN15      -0.1245
     37  CA        41.2940   -3.7920  -42.8770 C.3    15  GLN15       0.1566
     38  C         42.7750   -3.8790  -43.3340 C.2    15  GLN15       0.2260
     39  O         43.3770   -2.8670  -43.6510 O.2    15  GLN15      -0.2867
     40  CB        41.1980   -3.5890  -41.3610 C.3    15  GLN15       0.0367
     41  CG        39.7720   -3.3140  -40.9040 C.3    15  GLN15       0.0905
     42  CD        39.7260   -2.8010  -39.4880 C.2    15  GLN15       0.2608
     43  OE1       39.7950   -3.5830  -38.5400 O.2    15  GLN15      -0.2717
     44  NE2       39.6220   -1.4790  -39.3310 N.am   15  GLN15      -0.0878
     45  N         50.4490   -1.9410  -34.2300 N.3    60  GLU60      -0.1231
     46  CA        49.8290   -2.0990  -32.9260 C.3    60  GLU60       0.1699
     47  C         49.8590   -0.8330  -32.1640 C.2    60  GLU60       0.2592
     48  O         50.6590    0.0500  -32.4670 O.2    60  GLU60      -0.2718
     49  CB        50.5600   -3.1330  -32.1000 C.3    60  GLU60       0.0402
     50  CG        50.3730   -4.5660  -32.5610 C.3    60  GLU60       0.1161
     51  CD        48.9640   -5.0940  -32.3560 C.2    60  GLU60       0.3649
     52  OE1       48.2080   -4.5710  -31.4820 O.co2  60  GLU60      -0.2457
     53  OE2       48.6160   -6.0380  -33.1000 O.co2  60  GLU60      -0.2457
     54  N         49.0060   -0.7500  -31.1370 N.am   61  THR61      -0.1953
     55  CA        49.1170    0.2940  -30.1250 C.3    61  THR61       0.1897
     56  C         50.3660   -0.0030  -29.3190 C.2    61  THR61       0.2313
     57  O         50.8350   -1.1490  -29.2640 O.2    61  THR61      -0.2863
     58  CB        47.8980    0.3370  -29.1820 C.3    61  THR61       0.1794
     59  OG1       47.6720   -0.9790  -28.6540 O.3    61  THR61      -0.2208
     60  CG2       46.6590    0.7850  -29.9320 C.3    61  THR61       0.0378
     61  N         50.6720   -2.8820  -26.2900 N.3    64  ALA64      -0.1245
     62  CA        50.6740   -4.1780  -26.9690 C.3    64  ALA64       0.1562
     63  C         52.0150   -4.4360  -27.6850 C.2    64  ALA64       0.2260
     64  O         52.5740   -5.5410  -27.5950 O.2    64  ALA64      -0.2867
     65  CB        49.5040   -4.2630  -27.9460 C.3    64  ALA64       0.0290
     66  N         47.1280    7.6670  -36.1320 N.3    82  ARG82      -0.1245
     67  CA        45.7800    7.1690  -36.4590 C.3    82  ARG82       0.1563
     68  C         44.7240    8.2160  -36.1330 C.2    82  ARG82       0.2260
     69  O         44.7900    8.8690  -35.0860 O.2    82  ARG82      -0.2867
     70  CB        45.4560    5.8760  -35.6930 C.3    82  ARG82       0.0307
     71  CG        46.2760    4.6800  -36.1140 C.3    82  ARG82       0.0489
     72  CD        45.9080    3.4800  -35.2720 C.3    82  ARG82       0.2205
     73  NE        46.6850    2.3180  -35.6700 N.pl3  82  ARG82      -0.0865
     74  CZ        46.6710    1.1350  -35.0590 C.cat  82  ARG82       0.5346
     75  NH1       45.9000    0.8960  -33.9830 N.pl3  82  ARG82       0.1354
     76  NH2       47.4480    0.1800  -35.5430 N.pl3  82  ARG82       0.1354
     77  N         47.6670    9.0190  -27.5590 N.3    88  PHE88      -0.1241
     78  CA        46.4060    8.8880  -26.8390 C.3    88  PHE88       0.1605
     79  C         46.7190    8.6240  -25.3730 C.2    88  PHE88       0.2264
     80  O         47.9040    8.4470  -24.9880 O.2    88  PHE88      -0.2867
     81  CB        45.4460    7.8640  -27.4910 C.3    88  PHE88       0.0534
     82  CG        45.8350    6.3980  -27.3660 C.ar   88  PHE88      -0.0203
     83  CD1       47.1230    5.9540  -27.0540 C.ar   88  PHE88      -0.0042
     84  CD2       44.8610    5.4320  -27.6370 C.ar   88  PHE88      -0.0042
     85  CE1       47.4090    4.6010  -26.9950 C.ar   88  PHE88      -0.0003
     86  CE2       45.1570    4.0880  -27.5880 C.ar   88  PHE88      -0.0003
     87  CZ        46.4230    3.6690  -27.2610 C.ar   88  PHE88      -0.0000
     88  N         39.3310   -4.1650  -20.7960 N.3   114  GLN114     -0.1231
     89  CA        39.0020   -4.7430  -22.0930 C.3   114  GLN114      0.1698
     90  C         39.6080   -6.1340  -22.1880 C.2   114  GLN114      0.2592
     91  O         38.9530   -7.1040  -21.7940 O.2   114  GLN114     -0.2718
     92  CB        39.4200   -3.7990  -23.2350 C.3   114  GLN114      0.0381
     93  CG        38.6160   -2.5130  -23.2270 C.3   114  GLN114      0.0905
     94  CD        39.0960   -1.4760  -24.2260 C.2   114  GLN114      0.2608
     95  OE1       39.3430   -1.7710  -25.4010 O.2   114  GLN114     -0.2717
     96  NE2       39.1910   -0.2380  -23.7720 N.am  114  GLN114     -0.0878
     97  N         40.8400   -6.2290  -22.6810 N.am  115  ASN115     -0.1974
     98  CA        41.5870   -7.5050  -22.7720 C.3   115  ASN115      0.1688
     99  C         43.0660   -7.3100  -22.3880 C.2   115  ASN115      0.2292
    100  O         43.5680   -6.1880  -22.3580 O.2   115  ASN115     -0.2864
    101  CB        41.4660   -8.1040  -24.1810 C.3   115  ASN115      0.1181
    102  CG        42.1500   -7.2380  -25.2480 C.2   115  ASN115      0.2629
    103  OD1       43.3920   -7.2500  -25.3900 O.2   115  ASN115     -0.2716
    104  ND2       41.3390   -6.4620  -25.9910 N.am  115  ASN115     -0.0877
    105  N         45.7750   -7.6980  -23.8650 N.3   117  SER117     -0.1202
    106  CA        46.5910   -7.1210  -24.9520 C.3   117  SER117      0.2020
    107  C         46.2090   -5.6930  -25.3170 C.2   117  SER117      0.2619
    108  O         46.7060   -5.1360  -26.3230 O.2   117  SER117     -0.2717
    109  CB        46.4220   -7.9990  -26.2060 C.3   117  SER117      0.2103
    110  OG        47.0320   -9.2620  -26.0060 O.3   117  SER117     -0.2182
    111  N         45.2960   -5.1090  -24.5450 N.am  118  SER118     -0.1937
    112  CA        44.8630   -3.7600  -24.8060 C.3   118  SER118      0.2055
    113  C         45.7870   -2.7300  -24.1420 C.2   118  SER118      0.2644
    114  O         46.0700   -2.7800  -22.9080 O.2   118  SER118     -0.2714
    115  CB        43.4430   -3.5440  -24.3090 C.3   118  SER118      0.2130
    116  OG        43.0400   -2.1980  -24.5240 O.3   118  SER118     -0.2179
    117  N         46.2290   -1.7740  -24.9440 N.am  119  THR119     -0.1936
    118  CA        46.9720   -0.6480  -24.3840 C.3   119  THR119      0.2028
    119  C         46.0320    0.1990  -23.5480 C.2   119  THR119      0.2642
    120  O         46.1780    0.2670  -22.3420 O.2   119  THR119     -0.2714
    121  CB        47.6560    0.1850  -25.4780 C.3   119  THR119      0.1808
    122  OG1       48.6160   -0.6460  -26.1540 O.3   119  THR119     -0.2208
    123  CG2       48.3440    1.4140  -24.8920 C.3   119  THR119      0.0379
    124  N         45.0540    0.8260  -24.1830 N.am  120  SER120     -0.1949
    125  CA        44.2210    1.8170  -23.4800 C.3   120  SER120      0.1924
    126  C         43.1530    1.1990  -22.5550 C.2   120  SER120      0.2314
    127  O         42.5610    1.9040  -21.7410 O.2   120  SER120     -0.2863
    128  CB        43.5660    2.7760  -24.4740 C.3   120  SER120      0.2116
    129  OG        42.6570    2.0780  -25.3170 O.3   120  SER120     -0.2180
    130  N         35.8320   -7.4590  -22.1120 N.3   157  GLY157     -0.1210
    131  CA        35.9610   -7.6030  -23.5570 C.3   157  GLY157      0.1956
    132  C         35.8000   -6.2940  -24.2930 C.2   157  GLY157      0.2613
    133  O         36.7000   -5.4510  -24.2740 O.2   157  GLY157     -0.2717
    134  N         34.6710   -6.1020  -24.9630 N.am  158  SER158     -0.1938
    135  CA        34.5790   -4.9800  -25.8860 C.3   158  SER158      0.2055
    136  C         34.4480   -3.6370  -25.1760 C.2   158  SER158      0.2642
    137  O         34.0930   -3.5480  -23.9840 O.2   158  SER158     -0.2714
    138  CB        33.4030   -5.1440  -26.8200 C.3   158  SER158      0.2130
    139  OG        32.2310   -5.0200  -26.0670 O.3   158  SER158     -0.2179
    140  N         34.7020   -2.5950  -25.9580 N.am  159  LYS159     -0.1977
    141  CA        34.5080   -1.2280  -25.5100 C.3   159  LYS159      0.1596
    142  C         33.0390   -0.9350  -25.1530 C.2   159  LYS159      0.2287
    143  O         32.7550   -0.2600  -24.1460 O.2   159  LYS159     -0.2864
    144  CB        34.9950   -0.2670  -26.5860 C.3   159  LYS159      0.0298
    145  CG        36.4940   -0.3440  -26.8000 C.3   159  LYS159      0.0038
    146  CD        36.8550    0.4490  -28.0180 C.3   159  LYS159      0.0206
    147  CE        38.2090    0.0520  -28.5210 C.3   159  LYS159      0.1093
    148  NZ        38.9060    1.2080  -29.1470 N.3   159  LYS159     -0.1314
    149  N         40.0450    4.7810  -24.1150 N.3   177  SER177     -0.1217
    150  CA        40.9480    5.8420  -24.5500 C.3   177  SER177      0.1889
    151  C         40.1630    7.1420  -24.7100 C.2   177  SER177      0.2288
    152  O         38.9630    7.1340  -24.9300 O.2   177  SER177     -0.2866
    153  CB        41.6580    5.4890  -25.8560 C.3   177  SER177      0.2089
    154  OG        40.7870    5.4630  -26.9780 O.3   177  SER177     -0.2183
    155  N         40.3300    8.8010  -27.3050 N.3   179  VAL179     -0.1231
    156  CA        39.9200    8.6560  -28.6890 C.3   179  VAL179      0.1692
    157  C         38.5390    7.9680  -28.7440 C.2   179  VAL179      0.2592
    158  O         37.5750    8.5210  -29.3350 O.2   179  VAL179     -0.2718
    159  CB        41.0480    7.9210  -29.5090 C.3   179  VAL179      0.0266
    160  CG1       40.6250    7.5710  -30.9400 C.3   179  VAL179      0.0020
    161  CG2       42.3560    8.7420  -29.4890 C.3   179  VAL179      0.0020
    162  N         38.4370    6.7930  -28.1200 N.am  180  ASP180     -0.1974
    163  CA        37.1250    6.1280  -27.9210 C.3   180  ASP180      0.1709
    164  C         36.0200    7.0940  -27.4140 C.2   180  ASP180      0.2293
    165  O         34.9110    7.1090  -27.9400 O.2   180  ASP180     -0.2864
    166  CB        37.2300    4.9680  -26.9220 C.3   180  ASP180      0.1436
    167  CG        38.1210    3.8650  -27.3930 C.2   180  ASP180      0.3671
    168  OD1       38.2650    3.6650  -28.6130 O.co2 180  ASP180     -0.2456
    169  OD2       38.6860    3.1810  -26.5150 O.co2 180  ASP180     -0.2456
    170  N         31.8080    3.8680  -30.7590 N.3   186  HIS186     -0.1241
    171  CA        31.7960    3.0000  -29.5540 C.3   186  HIS186      0.1621
    172  C         31.5060    3.7910  -28.2620 C.2   186  HIS186      0.2264
    173  O         31.7030    3.2790  -27.1420 O.2   186  HIS186     -0.2867
    174  CB        33.1100    2.2050  -29.4510 C.3   186  HIS186      0.0745
    175  CG        33.4640    1.4660  -30.7120 C.ar  186  HIS186      0.0817
    176  ND1       34.0480    2.0830  -31.8010 N.ar  186  HIS186     -0.2268
    177  CD2       33.2910    0.1700  -31.0680 C.ar  186  HIS186      0.1154
    178  CE1       34.2190    1.2010  -32.7700 C.ar  186  HIS186      0.1986
    179  NE2       33.7730    0.0310  -32.3490 N.ar  186  HIS186     -0.2212
    180  N         50.5130    6.7650  -30.0500 N.3   206  ARG206     -0.1245
    181  CA        49.2730    6.1280  -30.4790 C.3   206  ARG206      0.1563
    182  C         49.4860    4.6970  -30.9550 C.2   206  ARG206      0.2260
    183  O         48.8290    3.7760  -30.4680 O.2   206  ARG206     -0.2867
    184  CB        48.6370    6.9750  -31.5760 C.3   206  ARG206      0.0307
    185  CG        47.2670    6.5480  -32.0230 C.3   206  ARG206      0.0489
    186  CD        46.2330    6.6890  -30.9220 C.3   206  ARG206      0.2205
    187  NE        44.9730    6.1530  -31.3960 N.pl3 206  ARG206     -0.0865
    188  CZ        44.7650    4.8710  -31.5900 C.cat 206  ARG206      0.5346
    189  NH1       45.7040    3.9880  -31.3170 N.pl3 206  ARG206      0.1354
    190  NH2       43.6020    4.4740  -32.0490 N.pl3 206  ARG206      0.1354
    191  N         43.0510    0.7160  -40.0010 N.3   244  PHE244     -0.1241
    192  CA        42.8140    1.3500  -38.6740 C.3   244  PHE244      0.1605
    193  C         42.8370    2.8660  -38.7180 C.2   244  PHE244      0.2264
    194  O         43.2510    3.5010  -37.7520 O.2   244  PHE244     -0.2867
    195  CB        43.8300    0.8080  -37.6460 C.3   244  PHE244      0.0534
    196  CG        43.9990   -0.6660  -37.7620 C.ar  244  PHE244     -0.0203
    197  CD1       42.9140   -1.4890  -37.5270 C.ar  244  PHE244     -0.0042
    198  CD2       45.1810   -1.2200  -38.2550 C.ar  244  PHE244     -0.0042
    199  CE1       43.0230   -2.8440  -37.6920 C.ar  244  PHE244     -0.0003
    200  CE2       45.2960   -2.5830  -38.4230 C.ar  244  PHE244     -0.0003
    201  CZ        44.2080   -3.3920  -38.1630 C.ar  244  PHE244     -0.0000
@<TRIPOS>BOND
     1    39    38    2
     2    38    37    1
     3    36    37    1
     4    37    40    1
     5    40    41    1
     6    29    28    2
     7    41    42    1
     8    28    27    1
     9   191   192    1
    10    42    44   am
    11    42    43    2
    12    27    26    1
    13    27    30    1
    14   193   192    1
    15   193   194    2
    16   192   195    1
    17   200   198   ar
    18   200   201   ar
    19    30    31    1
    20   198   196   ar
    21   201   199   ar
    22   196   195    1
    23   196   197   ar
    24   199   197   ar
    25     1     2    1
    26    31    33   ar
    27    31    32   ar
    28     5     2    1
    29     5     6    1
    30    33    35   ar
    31    67    68    1
    32    67    66    1
    33    67    70    1
    34    32    34   ar
    35     2     3    1
    36    68    69    2
    37    71    70    1
    38    71    72    1
    39     7     6    1
    40     7     8    1
    41    73    72    1
    42    73    74    2
    43    76    74    1
    44    35    34   ar
    45     4     3    2
    46     3    12   am
    47    74    75    1
    48     8     9    2
    49    10     9    1
    50    25    24    1
    51     9    11    1
    52    45    46    1
    53    12    13    1
    54    24    21    1
    55    53    51   ar
    56    46    47    1
    57    46    49    1
    58   178   179   ar
    59   178   176   ar
    60    15    14    2
    61    13    14    1
    62    13    16    1
    63    14    20   am
    64    50    51    1
    65    50    49    1
    66    20    21    1
    67    48    47    2
    68    21    22    1
    69    51    52   ar
    70   179   177   ar
    71    23    22    2
    72    47    54   am
    73   190   188    1
    74   185   184    1
    75   185   186    1
    76   176   175   ar
    77   188   187    2
    78   188   189    1
    79   184   181    1
    80    17    16    1
    81    17    19    1
    82    16    18    1
    83   187   186    1
    84    54    55    1
    85   177   175   ar
    86   182   181    1
    87   182   183    2
    88   160   159    1
    89   170   171    1
    90   175   174    1
    91   181   180    1
    92    55    56    1
    93    55    58    1
    94    60    58    1
    95   171   174    1
    96   171   172    1
    97   159   161    1
    98   159   156    1
    99   158   157    2
   100    56    57    2
   101    58    59    1
   102   148   147    1
   103   157   156    1
   104   157   162   am
   105   156   155    1
   106   168   167   ar
   107   147   146    1
   108   172   173    2
   109   162   163    1
   110   146   145    1
   111    65    62    1
   112   165   164    2
   113   163   164    1
   114   163   166    1
   115    63    64    2
   116    63    62    1
   117    84    86   ar
   118    84    82   ar
   119    86    87   ar
   120    77    78    1
   121    81    82    1
   122    81    78    1
   123   167   166    1
   124   167   169   ar
   125    82    83   ar
   126    87    85   ar
   127    83    85   ar
   128   154   153    1
   129    62    61    1
   130    78    79    1
   131   138   139    1
   132   138   135    1
   133   145   144    1
   134   144   141    1
   135   108   107    2
   136   109   110    1
   137   109   106    1
   138   122   121    1
   139   104   102   am
   140   140   141    1
   141   140   136   am
   142   135   136    1
   143   135   134    1
   144   153   150    1
   145   141   142    1
   146   121   123    1
   147   121   118    1
   148    95    94    2
   149   103   102    2
   150    79    80    2
   151   129   128    1
   152   107   106    1
   153   107   111   am
   154   102   101    1
   155   136   137    2
   156   142   143    2
   157   134   132   am
   158   106   105    1
   159   117   118    1
   160   117   113   am
   161   152   151    2
   162   112   111    1
   163   112   115    1
   164   112   113    1
   165   151   150    1
   166   150   149    1
   167   116   115    1
   168   128   125    1
   169   118   119    1
   170   132   133    2
   171   132   131    1
   172    94    96   am
   173    94    93    1
   174   124   119   am
   175   124   125    1
   176   101    98    1
   177   113   114    2
   178   131   130    1
   179   119   120    2
   180   125   126    1
   181    92    93    1
   182    92    89    1
   183    98    97    1
   184    98    99    1
   185    97    90   am
   186   126   127    2
   187    99   100    2
   188    90    89    1
   189    90    91    2
   190    89    88    1
