@<TRIPOS>MOLECULE
tmp/5ub8A00.pdb
 152 145 0 0 0
SMALL
GASTEIGER

@<TRIPOS>ATOM
      1  N         31.9480   24.2840   12.3650 N.3    17  SER17      -0.1202
      2  CA        32.4560   23.1180   11.6590 C.3    17  SER17       0.2020
      3  C         32.1780   23.2430   10.1660 C.2    17  SER17       0.2619
      4  O         31.0760   23.6190    9.7540 O.2    17  SER17      -0.2717
      5  CB        31.8150   21.8450   12.2130 C.3    17  SER17       0.2103
      6  OG        32.1110   20.7220   11.3980 O.3    17  SER17      -0.2182
      7  N         33.1920   22.9470    9.3570 N.am   18  GLY18      -0.1942
      8  CA        33.0400   22.9160    7.9200 C.3    18  GLY18       0.2014
      9  C         33.3690   24.2010    7.1900 C.2    18  GLY18       0.2639
     10  O         33.2980   24.2210    5.9550 O.2    18  GLY18      -0.2714
     11  N         33.7300   25.2730    7.9000 N.am   19  VAL19      -0.1963
     12  CA        34.0210   26.5350    7.2240 C.3    19  VAL19       0.1727
     13  C         35.4020   26.5460    6.5790 C.2    19  VAL19       0.2617
     14  O         35.6760   27.4130    5.7400 O.2    19  VAL19      -0.2715
     15  CB        33.8970   27.7290    8.1850 C.3    19  VAL19       0.0290
     16  CG1       32.4700   27.8540    8.6980 C.3    19  VAL19       0.0023
     17  CG2       34.8820   27.5950    9.3350 C.3    19  VAL19       0.0023
     18  N         36.2810   25.6190    6.9480 N.am   20  GLY20      -0.1940
     19  CA        37.5850   25.5320    6.3200 C.3    20  GLY20       0.2014
     20  C         38.7360   25.9610    7.2060 C.2    20  GLY20       0.2639
     21  O         39.7560   26.4440    6.7080 O.2    20  GLY20      -0.2714
     22  N         38.5900   25.7860    8.5210 N.am   21  LYS21      -0.1963
     23  CA        39.6510   26.1790    9.4440 C.3    21  LYS21       0.1728
     24  C         40.9030   25.3370    9.2370 C.2    21  LYS21       0.2617
     25  O         42.0090   25.8720    9.0890 O.2    21  LYS21      -0.2715
     26  CB        39.1640   26.0570   10.8870 C.3    21  LYS21       0.0311
     27  CG        38.3380   27.2300   11.3650 C.3    21  LYS21       0.0038
     28  CD        37.7040   26.9300   12.7070 C.3    21  LYS21       0.0206
     29  CE        36.4380   26.1130   12.5370 C.3    21  LYS21       0.1093
     30  NZ        36.6720   24.6480   12.4480 N.3    21  LYS21      -0.1314
     31  N         40.7490   24.0100    9.2330 N.am   22  SER22      -0.1936
     32  CA        41.9010   23.1280    9.0870 C.3    22  SER22       0.2055
     33  C         42.5610   23.2830    7.7240 C.2    22  SER22       0.2643
     34  O         43.7880   23.1800    7.6160 O.2    22  SER22      -0.2714
     35  CB        41.4810   21.6760    9.3120 C.3    22  SER22       0.2130
     36  OG        40.8480   21.5220   10.5710 O.3    22  SER22      -0.2179
     37  N         41.7730   23.5310    6.6770 N.am   23  ASN23      -0.1971
     38  CA        42.3480   23.7180    5.3510 C.3    23  ASN23       0.1688
     39  C         43.0230   25.0760    5.2130 C.2    23  ASN23       0.2292
     40  O         43.9590   25.2160    4.4180 O.2    23  ASN23      -0.2864
     41  CB        41.2730   23.5430    4.2800 C.3    23  ASN23       0.1181
     42  CG        41.0450   22.0890    3.9210 C.2    23  ASN23       0.2629
     43  OD1       41.9100   21.4410    3.3290 O.2    23  ASN23      -0.2716
     44  ND2       39.8780   21.5650    4.2800 N.am   23  ASN23      -0.0877
     45  N         45.8070   21.2670    0.4790 N.3    33  PHE33      -0.1227
     46  CA        44.3730   21.4070    0.6840 C.3    33  PHE33       0.1736
     47  C         43.7130   20.0760    0.3590 C.2    33  PHE33       0.2595
     48  O         44.0720   19.4250   -0.6250 O.2    33  PHE33      -0.2718
     49  CB        43.8000   22.5330   -0.1860 C.3    33  PHE33       0.0547
     50  CG        42.2980   22.5690   -0.2290 C.ar   33  PHE33      -0.0202
     51  CD1       41.6060   21.9800   -1.2740 C.ar   33  PHE33      -0.0042
     52  CD2       41.5800   23.2030    0.7690 C.ar   33  PHE33      -0.0042
     53  CE1       40.2250   22.0160   -1.3150 C.ar   33  PHE33      -0.0003
     54  CE2       40.1990   23.2400    0.7340 C.ar   33  PHE33      -0.0003
     55  CZ        39.5210   22.6470   -0.3100 C.ar   33  PHE33      -0.0000
     56  N         42.7510   19.6780    1.1880 N.am   34  ASN34      -0.1960
     57  CA        42.1100   18.3750    1.0660 C.3    34  ASN34       0.1819
     58  C         40.5990   18.5390    1.0240 C.2    34  ASN34       0.2621
     59  O         40.0250   19.2590    1.8470 O.2    34  ASN34      -0.2715
     60  CB        42.5040   17.4590    2.2310 C.3    34  ASN34       0.1195
     61  CG        43.9600   17.6100    2.6250 C.2    34  ASN34       0.2630
     62  OD1       44.2730   18.1090    3.7070 O.2    34  ASN34      -0.2716
     63  ND2       44.8580   17.1780    1.7490 N.am   34  ASN34      -0.0877
     64  N         39.9610   17.8670    0.0670 N.am   35  LEU35      -0.1963
     65  CA        38.5030   17.7810    0.0140 C.3    35  LEU35       0.1728
     66  C         38.0640   16.7150    1.0090 C.2    35  LEU35       0.2616
     67  O         38.0780   15.5200    0.7020 O.2    35  LEU35      -0.2715
     68  CB        38.0290   17.4530   -1.3970 C.3    35  LEU35       0.0311
     69  CG        37.5470   18.6120   -2.2720 C.3    35  LEU35       0.0022
     70  CD1       38.7230   19.3470   -2.8940 C.3    35  LEU35       0.0001
     71  CD2       36.5980   18.1100   -3.3480 C.3    35  LEU35       0.0001
     72  N         37.6750   17.1530    2.2060 N.am   36  GLU36      -0.1977
     73  CA        37.2800   16.2590    3.2940 C.3    36  GLU36       0.1602
     74  C         38.3450   15.1980    3.5590 C.2    36  GLU36       0.2287
     75  O         39.4600   15.5240    3.9670 O.2    36  GLU36      -0.2864
     76  CB        35.9350   15.5960    2.9890 C.3    36  GLU36       0.0415
     77  CG        35.1940   15.1150    4.2270 C.3    36  GLU36       0.1163
     78  CD        34.9420   16.2290    5.2280 C.2    36  GLU36       0.3649
     79  OE1       34.5430   17.3340    4.8040 O.co2  36  GLU36      -0.2457
     80  OE2       35.1460   15.9990    6.4390 O.co2  36  GLU36      -0.2457
     81  N         41.3830   23.3510   15.6930 N.3    59  THR59      -0.1218
     82  CA        40.6060   22.3630   16.4220 C.3    59  THR59       0.1862
     83  C         40.7850   20.9750   15.8140 C.2    59  THR59       0.2287
     84  O         41.3020   20.8040   14.7060 O.2    59  THR59      -0.2866
     85  CB        39.1240   22.7310   16.4220 C.3    59  THR59       0.1770
     86  OG1       38.5980   22.5960   15.0950 O.3    59  THR59      -0.2211
     87  CG2       38.9330   24.1610   16.8950 C.3    59  THR59       0.0375
     88  N         37.9660   19.3460   15.4160 N.3    61  GLY61      -0.1225
     89  CA        36.6100   19.1870   14.9370 C.3    61  GLY61       0.1811
     90  C         35.5440   19.1060   16.0080 C.2    61  GLY61       0.2280
     91  O         34.3720   18.8920   15.6720 O.2    61  GLY61      -0.2866
     92  N         34.1950   21.3910   17.7440 N.3    63  GLU63      -0.1245
     93  CA        33.2430   22.4950   17.6930 C.3    63  GLU63       0.1567
     94  C         31.9730   22.1390   16.9340 C.2    63  GLU63       0.2260
     95  O         31.0060   22.9090   16.9820 O.2    63  GLU63      -0.2867
     96  CB        33.8990   23.7260   17.0600 C.3    63  GLU63       0.0388
     97  CG        34.0870   23.6390   15.5500 C.3    63  GLU63       0.1160
     98  CD        35.2900   22.8020   15.1530 C.2    63  GLU63       0.3649
     99  OE1       35.9640   22.2550   16.0520 O.co2  63  GLU63      -0.2457
    100  OE2       35.5650   22.6920   13.9390 O.co2  63  GLU63      -0.2457
    101  N         35.8120   32.5140    4.1740 N.3   116  ASN116     -0.1225
    102  CA        36.4990   31.5030    3.3880 C.3   116  ASN116      0.1785
    103  C         35.6210   31.0140    2.2350 C.2   116  ASN116      0.2597
    104  O         34.4370   31.3470    2.1280 O.2   116  ASN116     -0.2718
    105  CB        36.9170   30.3340    4.2800 C.3   116  ASN116      0.1169
    106  CG        37.9470   29.4370    3.6240 C.2   116  ASN116      0.2627
    107  OD1       38.7760   29.8970    2.8370 O.2   116  ASN116     -0.2716
    108  ND2       37.8960   28.1480    3.9380 N.am  116  ASN116     -0.0877
    109  N         36.2340   30.2080    1.3620 N.am  117  LYS117     -0.1980
    110  CA        35.5580   29.5880    0.2200 C.3   117  LYS117      0.1596
    111  C         35.0280   30.6350   -0.7540 C.2   117  LYS117      0.2287
    112  O         33.9100   30.5300   -1.2620 O.2   117  LYS117     -0.2864
    113  CB        34.4410   28.6460    0.6790 C.3   117  LYS117      0.0298
    114  CG        34.8260   27.7840    1.8680 C.3   117  LYS117      0.0038
    115  CD        34.0240   26.4980    1.9230 C.3   117  LYS117      0.0206
    116  CE        33.9890   25.9470    3.3400 C.3   117  LYS117      0.1093
    117  NZ        33.3140   24.6200    3.4210 N.3   117  LYS117     -0.1314
    118  N         35.8310   30.8870   -3.6530 N.3   119  ASP119     -0.1225
    119  CA        35.7570   30.2830   -4.9760 C.3   119  ASP119      0.1805
    120  C         34.3470   29.8440   -5.3430 C.2   119  ASP119      0.2597
    121  O         34.0600   29.6580   -6.5310 O.2   119  ASP119     -0.2718
    122  CB        36.7040   29.0820   -5.0610 C.3   119  ASP119      0.1424
    123  CG        36.5600   28.1420   -3.8800 C.2   119  ASP119      0.3668
    124  OD1       36.9030   28.5480   -2.7500 O.co2 119  ASP119     -0.2456
    125  OD2       36.1000   26.9980   -4.0810 O.co2 119  ASP119     -0.2456
    126  N         33.4650   29.6750   -4.3590 N.am  120  LEU120     -0.1979
    127  CA        32.0840   29.2680   -4.6180 C.3   120  LEU120      0.1596
    128  C         31.1900   30.4980   -4.7900 C.2   120  LEU120      0.2287
    129  O         30.2440   30.7360   -4.0390 O.2   120  LEU120     -0.2864
    130  CB        31.5810   28.3650   -3.4980 C.3   120  LEU120      0.0297
    131  CG        32.5020   27.2110   -3.1000 C.3   120  LEU120      0.0022
    132  CD1       32.2690   26.8030   -1.6530 C.3   120  LEU120      0.0001
    133  CD2       32.3150   26.0240   -4.0350 C.3   120  LEU120      0.0001
    134  N         40.1960   31.9180    0.1110 N.3   146  SER146     -0.1202
    135  CA        39.8710   30.6070   -0.4420 C.3   146  SER146      0.2020
    136  C         41.0430   29.6810   -0.1580 C.2   146  SER146      0.2619
    137  O         42.0920   29.7910   -0.8000 O.2   146  SER146     -0.2717
    138  CB        39.5880   30.6830   -1.9410 C.3   146  SER146      0.2103
    139  OG        39.4420   29.3850   -2.4910 O.3   146  SER146     -0.2182
    140  N         40.8720   28.7780    0.8100 N.am  147  ALA147     -0.1965
    141  CA        41.8940   27.7670    1.0530 C.3   147  ALA147      0.1728
    142  C         42.0520   26.8460   -0.1470 C.2   147  ALA147      0.2616
    143  O         43.1330   26.2880   -0.3650 O.2   147  ALA147     -0.2715
    144  CB        41.5500   26.9590    2.3040 C.3   147  ALA147      0.0334
    145  N         40.9900   26.6860   -0.9390 N.am  148  LEU148     -0.1977
    146  CA        41.0520   25.8160   -2.1080 C.3   148  LEU148      0.1596
    147  C         41.9720   26.3920   -3.1780 C.2   148  LEU148      0.2287
    148  O         42.8340   25.6870   -3.7140 O.2   148  LEU148     -0.2864
    149  CB        39.6420   25.5950   -2.6610 C.3   148  LEU148      0.0297
    150  CG        39.4880   24.8380   -3.9820 C.3   148  LEU148      0.0022
    151  CD1       38.3300   23.8600   -3.8920 C.3   148  LEU148      0.0001
    152  CD2       39.2760   25.8010   -5.1430 C.3   148  LEU148      0.0001
@<TRIPOS>BOND
     1   121   120    2
     2   120   119    1
     3   120   126   am
     4   152   150    1
     5   122   119    1
     6   122   123    1
     7   119   118    1
     8   128   127    1
     9   128   129    2
    10   127   126    1
    11   127   130    1
    12   125   123   ar
    13   133   131    1
    14   150   151    1
    15   150   149    1
    16   123   124   ar
    17   148   147    2
    18   130   131    1
    19    71    69    1
    20   147   146    1
    21   131   132    1
    22    70    69    1
    23   149   146    1
    24   139   138    1
    25    69    68    1
    26   146   145    1
    27   138   135    1
    28    68    65    1
    29    53    51   ar
    30    53    55   ar
    31    51    50   ar
    32   112   111    2
    33   145   142   am
    34   137   136    2
    35   111   110    1
    36    48    47    2
    37   135   136    1
    38   135   134    1
    39   143   142    2
    40    55    54   ar
    41    50    49    1
    42    50    52   ar
    43    49    46    1
    44   136   140   am
    45   142   141    1
    46    65    64    1
    47    65    66    1
    48    64    58   am
    49   110   113    1
    50   110   109    1
    51    47    46    1
    52    47    56   am
    53    45    46    1
    54   113   114    1
    55    67    66    2
    56    54    52   ar
    57   140   141    1
    58    66    72   am
    59    58    57    1
    60    58    59    2
    61   141   144    1
    62    57    56    1
    63    57    60    1
    64   109   103   am
    65    63    61   am
    66   114   115    1
    67   115   116    1
    68   104   103    2
    69    72    73    1
    70    60    61    1
    71   103   102    1
    72    61    62    2
    73   107   106    2
    74    76    73    1
    75    76    77    1
    76    73    74    1
    77    43    42    2
    78   116   117    1
    79   102   101    1
    80   102   105    1
    81    74    75    2
    82   106   108   am
    83   106   105    1
    84    42    44   am
    85    42    41    1
    86    77    78    1
    87    41    38    1
    88    40    39    2
    89    79    78   ar
    90    39    38    1
    91    78    80   ar
    92    38    37    1
    93    14    13    2
    94    10     9    2
    95    19    18    1
    96    19    20    1
    97    13    18   am
    98    13    12    1
    99    37    33   am
   100    21    20    2
   101     9    11   am
   102     9     8    1
   103    20    22   am
   104    12    11    1
   105    12    15    1
   106    34    33    2
   107    33    32    1
   108     8     7    1
   109    15    16    1
   110    15    17    1
   111    22    23    1
   112    32    31    1
   113    32    35    1
   114    25    24    2
   115    31    24   am
   116    24    23    1
   117    35    36    1
   118     7     3   am
   119    23    26    1
   120     4     3    2
   121     3     2    1
   122    26    27    1
   123    27    28    1
   124     6     5    1
   125     2     5    1
   126     2     1    1
   127    30    29    1
   128    29    28    1
   129   100    98   ar
   130    84    83    2
   131    89    88    1
   132    89    90    1
   133    86    85    1
   134    98    97    1
   135    98    99   ar
   136    97    96    1
   137    91    90    2
   138    81    82    1
   139    83    82    1
   140    85    82    1
   141    85    87    1
   142    94    95    2
   143    94    93    1
   144    96    93    1
   145    93    92    1
