@<TRIPOS>MOLECULE
tmp/5ubbA00.pdb
 205 201 0 0 0
SMALL
GASTEIGER

@<TRIPOS>ATOM
      1  N        -66.7550  140.4200  175.6170 N.3    11  TYR11      -0.1241
      2  CA       -67.2540  141.4480  174.6960 C.3    11  TYR11       0.1605
      3  C        -67.5420  140.9200  173.3000 C.2    11  TYR11       0.2264
      4  O        -68.6000  141.2300  172.7460 O.2    11  TYR11      -0.2867
      5  CB       -66.3160  142.6680  174.6550 C.3    11  TYR11       0.0534
      6  CG       -66.3750  143.4740  175.9340 C.ar   11  TYR11      -0.0201
      7  CD1      -67.5500  144.1020  176.3280 C.ar   11  TYR11      -0.0009
      8  CD2      -65.2730  143.5610  176.7780 C.ar   11  TYR11      -0.0009
      9  CE1      -67.6230  144.8260  177.5130 C.ar   11  TYR11       0.0417
     10  CE2      -65.3310  144.2830  177.9730 C.ar   11  TYR11       0.0417
     11  CZ       -66.5130  144.9170  178.3340 C.ar   11  TYR11       0.1957
     12  OH       -66.6340  145.6360  179.4990 O.3    11  TYR11      -0.2866
     13  N        -71.0270  139.3120  173.0280 N.3    14  ALA14      -0.1245
     14  CA       -72.1940  140.2010  173.0870 C.3    14  ALA14       0.1562
     15  C        -72.4630  140.7380  171.6990 C.2    14  ALA14       0.2260
     16  O        -73.6160  140.8060  171.3000 O.2    14  ALA14      -0.2867
     17  CB       -71.9760  141.3340  174.0640 C.3    14  ALA14       0.0290
     18  N        -76.0090  140.3020  169.6000 N.3    18  TYR18      -0.1241
     19  CA       -76.7750  141.4330  169.0800 C.3    18  TYR18       0.1605
     20  C        -76.8350  141.4860  167.5390 C.2    18  TYR18       0.2264
     21  O        -77.7260  142.1310  166.9790 O.2    18  TYR18      -0.2867
     22  CB       -76.2730  142.7480  169.7030 C.3    18  TYR18       0.0534
     23  CG       -76.7720  142.8680  171.1280 C.ar   18  TYR18      -0.0201
     24  CD1      -78.1300  143.0250  171.4020 C.ar   18  TYR18      -0.0009
     25  CD2      -75.8960  142.7650  172.2070 C.ar   18  TYR18      -0.0009
     26  CE1      -78.6090  143.0410  172.7140 C.ar   18  TYR18       0.0417
     27  CE2      -76.3600  142.8240  173.5260 C.ar   18  TYR18       0.0417
     28  CZ       -77.7180  142.9430  173.7720 C.ar   18  TYR18       0.1957
     29  OH       -78.1860  143.0500  175.0610 O.3    18  TYR18      -0.2866
     30  N        -87.1930  143.0990  170.0570 N.3    27  GLY27      -0.1210
     31  CA       -85.7930  142.7030  170.1170 C.3    27  GLY27       0.1956
     32  C        -85.0590  143.4350  171.2270 C.2    27  GLY27       0.2611
     33  O        -84.1730  142.8630  171.8610 O.2    27  GLY27      -0.2717
     34  N        -85.4340  144.6950  171.4870 N.am   28  MET28      -0.1979
     35  CA       -84.8390  145.5010  172.5570 C.3    28  MET28       0.1605
     36  C        -85.2540  144.9760  173.9510 C.2    28  MET28       0.2287
     37  O        -84.4630  145.0500  174.8930 O.2    28  MET28      -0.2864
     38  CB       -85.2340  146.9950  172.4050 C.3    28  MET28       0.0413
     39  CG       -84.8110  147.6240  171.0600 C.3    28  MET28       0.0598
     40  SD       -83.0170  147.6770  170.7050 S.3    28  MET28      -0.1393
     41  CE       -82.8210  146.2590  169.6350 C.3    28  MET28       0.0692
     42  N        -78.6630  158.7770  175.5730 N.3    64  ASP64      -0.1225
     43  CA       -79.2350  157.4390  175.7300 C.3    64  ASP64       0.1805
     44  C        -78.1280  156.3770  175.4430 C.2    64  ASP64       0.2598
     45  O        -77.7840  156.1230  174.2800 O.2    64  ASP64      -0.2718
     46  CB       -80.4540  157.2930  174.8060 C.3    64  ASP64       0.1424
     47  CG       -81.2750  156.0270  174.9230 C.2    64  ASP64       0.3668
     48  OD1      -80.9940  155.2180  175.8390 O.co2  64  ASP64      -0.2456
     49  OD2      -82.2450  155.8730  174.1330 O.co2  64  ASP64      -0.2456
     50  N        -77.5220  155.8230  176.5380 N.am   65  CYS65      -0.1956
     51  CA       -76.4190  154.8450  176.5010 C.3    65  CYS65       0.1843
     52  C        -76.9040  153.4110  176.2940 C.2    65  CYS65       0.2626
     53  O        -77.7780  152.9610  177.0220 O.2    65  CYS65      -0.2714
     54  CB       -75.5430  154.9780  177.7360 C.3    65  CYS65       0.0997
     55  SG       -74.9550  156.6590  178.0230 S.3    65  CYS65      -0.0797
     56  N        -76.3500  152.7190  175.2910 N.am   66  GLY66      -0.1940
     57  CA       -76.8050  151.3830  174.9050 C.3    66  GLY66       0.2014
     58  C        -78.2260  151.5640  174.4150 C.2    66  GLY66       0.2640
     59  O        -79.1360  150.8410  174.8200 O.2    66  GLY66      -0.2714
     60  N        -78.4250  152.6180  173.6060 N.am   67  SER67      -0.1935
     61  CA       -79.7190  153.0840  173.0780 C.3    67  SER67       0.2055
     62  C        -80.5140  152.0640  172.3230 C.2    67  SER67       0.2643
     63  O        -81.7540  152.0890  172.3380 O.2    67  SER67      -0.2714
     64  CB       -79.4900  154.2640  172.1440 C.3    67  SER67       0.2130
     65  OG       -78.8500  153.8160  170.9610 O.3    67  SER67      -0.2179
     66  N        -79.8000  151.2290  171.5760 N.am   68  GLY68      -0.1954
     67  CA       -80.4470  150.3140  170.6530 C.3    68  GLY68       0.1869
     68  C        -81.0310  151.1970  169.5660 C.2    68  GLY68       0.2309
     69  O        -80.3940  152.1700  169.1510 O.2    68  GLY68      -0.2863
     70  N        -85.6270  153.1230  172.0270 N.3    71  ARG71      -0.1231
     71  CA       -86.8950  152.8910  172.7310 C.3    71  ARG71       0.1694
     72  C        -87.0680  153.9020  173.8710 C.2    71  ARG71       0.2591
     73  O        -88.1390  154.4790  174.0090 O.2    71  ARG71      -0.2718
     74  CB       -86.9610  151.4560  173.2720 C.3    71  ARG71       0.0321
     75  CG       -88.3430  151.0180  173.7620 C.3    71  ARG71       0.0489
     76  CD       -88.2760  149.6310  174.4170 C.3    71  ARG71       0.2205
     77  NE       -87.3730  149.6120  175.5800 N.pl3  71  ARG71      -0.0865
     78  CZ       -87.7460  149.9260  176.8160 C.cat  71  ARG71       0.5346
     79  NH1      -89.0130  150.2330  177.0770 N.pl3  71  ARG71       0.1354
     80  NH2      -86.8660  149.8940  177.8090 N.pl3  71  ARG71       0.1354
     81  N        -86.0150  154.1120  174.6710 N.am   72  VAL72      -0.1980
     82  CA       -86.0550  155.0670  175.7720 C.3    72  VAL72       0.1595
     83  C        -86.0800  156.5050  175.2180 C.2    72  VAL72       0.2287
     84  O        -86.8790  157.3080  175.6780 O.2    72  VAL72      -0.2864
     85  CB       -84.9500  154.8280  176.8370 C.3    72  VAL72       0.0276
     86  CG1      -85.1070  155.8170  178.0030 C.3    72  VAL72       0.0022
     87  CG2      -84.9950  153.3790  177.3530 C.3    72  VAL72       0.0022
     88  N        -74.5160  153.4950  170.9630 N.3    88  ASP88      -0.1225
     89  CA       -74.6560  152.0460  170.9260 C.3    88  ASP88       0.1805
     90  C        -73.5160  151.4620  170.1040 C.2    88  ASP88       0.2598
     91  O        -73.1250  152.0620  169.1100 O.2    88  ASP88      -0.2718
     92  CB       -76.0120  151.6520  170.3120 C.3    88  ASP88       0.1424
     93  CG       -76.4380  150.2580  170.7250 C.2    88  ASP88       0.3668
     94  OD1      -76.0010  149.2910  170.0710 O.co2  88  ASP88      -0.2456
     95  OD2      -77.2110  150.1380  171.7070 O.co2  88  ASP88      -0.2456
     96  N        -73.0340  150.2570  170.4610 N.am   89  MET89      -0.1965
     97  CA       -71.9760  149.6270  169.6690 C.3    89  MET89       0.1736
     98  C        -72.4970  149.1210  168.3200 C.2    89  MET89       0.2616
     99  O        -71.7020  148.8790  167.4100 O.2    89  MET89      -0.2715
    100  CB       -71.3020  148.4780  170.4610 C.3    89  MET89       0.0427
    101  CG       -72.1970  147.2800  170.6730 C.3    89  MET89       0.0599
    102  SD       -71.3680  145.9980  171.6100 S.3    89  MET89      -0.1393
    103  CE       -72.6630  144.7480  171.6300 C.3    89  MET89       0.0692
    104  N        -73.8120  148.9320  168.1980 N.am   90  MET90      -0.1977
    105  CA       -74.3960  148.3390  166.9860 C.3    90  MET90       0.1605
    106  C        -74.8600  149.3390  165.9690 C.2    90  MET90       0.2287
    107  O        -75.8240  150.0660  166.2250 O.2    90  MET90      -0.2864
    108  CB       -75.5230  147.3620  167.3340 C.3    90  MET90       0.0413
    109  CG       -75.0770  146.2160  168.2700 C.3    90  MET90       0.0598
    110  SD       -73.7760  145.1340  167.6020 S.3    90  MET90      -0.1393
    111  CE       -74.6960  144.2650  166.3840 C.3    90  MET90       0.0692
    112  N        -78.6060  149.0540  164.8440 N.3    93  PHE93      -0.1241
    113  CA       -79.6260  149.6580  165.7030 C.3    93  PHE93       0.1605
    114  C        -79.6410  151.1700  165.5130 C.2    93  PHE93       0.2264
    115  O        -80.7100  151.7850  165.4900 O.2    93  PHE93      -0.2867
    116  CB       -79.3630  149.2780  167.1760 C.3    93  PHE93       0.0534
    117  CG       -79.4440  147.7990  167.4970 C.ar   93  PHE93      -0.0203
    118  CD1      -80.2290  146.9410  166.7300 C.ar   93  PHE93      -0.0042
    119  CD2      -78.7730  147.2720  168.5940 C.ar   93  PHE93      -0.0042
    120  CE1      -80.2850  145.5770  167.0160 C.ar   93  PHE93      -0.0003
    121  CE2      -78.8410  145.9040  168.8860 C.ar   93  PHE93      -0.0003
    122  CZ       -79.5970  145.0690  168.0970 C.ar   93  PHE93      -0.0000
    123  N        -70.1460  153.4800  169.2200 N.3   112  TYR112     -0.1227
    124  CA       -69.0130  153.1420  170.0870 C.3   112  TYR112      0.1736
    125  C        -69.4590  152.1420  171.1480 C.2   112  TYR112      0.2596
    126  O        -70.6140  152.1890  171.5920 O.2   112  TYR112     -0.2718
    127  CB       -68.5430  154.3770  170.8780 C.3   112  TYR112      0.0548
    128  CG       -67.9300  155.4790  170.0550 C.ar  112  TYR112     -0.0200
    129  CD1      -68.6980  156.5430  169.6020 C.ar  112  TYR112     -0.0009
    130  CD2      -66.5800  155.4600  169.7240 C.ar  112  TYR112     -0.0009
    131  CE1      -68.1400  157.5660  168.8420 C.ar  112  TYR112      0.0417
    132  CE2      -66.0210  156.4530  168.9170 C.ar  112  TYR112      0.0417
    133  CZ       -66.8000  157.5200  168.5080 C.ar  112  TYR112      0.1957
    134  OH       -66.2740  158.5160  167.7330 O.3   112  TYR112     -0.2866
    135  N        -68.5060  151.3120  171.6420 N.am  113  SER113     -0.1938
    136  CA       -68.7760  150.4210  172.7680 C.3   113  SER113      0.2055
    137  C        -68.5960  151.3240  173.9630 C.2   113  SER113      0.2643
    138  O        -67.6770  152.1350  173.9480 O.2   113  SER113     -0.2714
    139  CB       -67.7790  149.2650  172.7970 C.3   113  SER113      0.2130
    140  OG       -68.1780  148.2700  171.8650 O.3   113  SER113     -0.2179
    141  N        -69.4820  151.2510  174.9600 N.am  114  LEU114     -0.1963
    142  CA       -69.4300  152.1450  176.1190 C.3   114  LEU114      0.1728
    143  C        -68.0710  152.1650  176.8130 C.2   114  LEU114      0.2616
    144  O        -67.5880  153.2500  177.1380 O.2   114  LEU114     -0.2715
    145  CB       -70.5540  151.8780  177.1270 C.3   114  LEU114      0.0311
    146  CG       -72.0180  151.9410  176.6630 C.3   114  LEU114      0.0022
    147  CD1      -72.9320  151.8420  177.8430 C.3   114  LEU114      0.0001
    148  CD2      -72.3330  153.2000  175.8970 C.3   114  LEU114      0.0001
    149  N        -67.4100  150.9810  176.9490 N.am  115  GLN115     -0.1977
    150  CA       -66.0640  150.8690  177.5500 C.3   115  GLN115      0.1601
    151  C        -64.9870  151.5870  176.7140 C.2   115  GLN115      0.2287
    152  O        -63.8610  151.7530  177.1720 O.2   115  GLN115     -0.2864
    153  CB       -65.6880  149.3980  177.8560 C.3   115  GLN115      0.0394
    154  CG       -65.2910  148.5300  176.6510 C.3   115  GLN115      0.0908
    155  CD       -66.4720  147.9290  175.9290 C.2   115  GLN115      0.2608
    156  OE1      -67.6290  148.3570  176.0730 O.2   115  GLN115     -0.2717
    157  NE2      -66.2060  146.9290  175.1060 N.am  115  GLN115     -0.0878
    158  N        -79.8110  152.3050  180.4380 N.3   130  GLN130     -0.1231
    159  CA       -80.8030  151.2670  180.7200 C.3   130  GLN130      0.1698
    160  C        -80.5420  149.9130  180.0420 C.2   130  GLN130      0.2592
    161  O        -80.3290  149.8430  178.8260 O.2   130  GLN130     -0.2718
    162  CB       -82.2030  151.7560  180.3850 C.3   130  GLN130      0.0381
    163  CG       -83.2630  150.6420  180.5970 C.3   130  GLN130      0.0905
    164  CD       -84.6490  151.1730  180.7320 C.2   130  GLN130      0.2608
    165  OE1      -84.8910  152.3880  180.8090 O.2   130  GLN130     -0.2717
    166  NE2      -85.6010  150.2550  180.7980 N.am  130  GLN130     -0.0878
    167  N        -80.5910  148.8400  180.8340 N.am  131  TRP131     -0.1962
    168  CA       -80.3930  147.4720  180.3440 C.3   131  TRP131      0.1771
    169  C        -79.1300  147.3290  179.4410 C.2   131  TRP131      0.2619
    170  O        -79.1930  146.7460  178.3560 O.2   131  TRP131     -0.2715
    171  CB       -81.6710  146.9290  179.6720 C.3   131  TRP131      0.0590
    172  CG       -82.7330  146.5290  180.6650 C.ar  131  TRP131      0.0006
    173  CD1      -82.5440  145.8940  181.8610 C.ar  131  TRP131      0.0946
    174  CD2      -84.1450  146.6860  180.5130 C.ar  131  TRP131      0.0152
    175  NE1      -83.7430  145.7490  182.5100 N.ar  131  TRP131     -0.2442
    176  CE2      -84.7490  146.2050  181.6940 C.ar  131  TRP131      0.0810
    177  CE3      -84.9640  147.1950  179.4910 C.ar  131  TRP131      0.0012
    178  CZ2      -86.1440  146.1990  181.8760 C.ar  131  TRP131      0.0191
    179  CZ3      -86.3360  147.2020  179.6800 C.ar  131  TRP131      0.0001
    180  CH2      -86.9090  146.7440  180.8750 C.ar  131  TRP131      0.0015
    181  N        -77.9920  147.8850  179.9050 N.am  132  VAL132     -0.1977
    182  CA       -76.7000  147.8060  179.2070 C.3   132  VAL132      0.1596
    183  C        -75.5310  147.6720  180.1970 C.2   132  VAL132      0.2287
    184  O        -74.5040  147.1240  179.8040 O.2   132  VAL132     -0.2864
    185  CB       -76.4830  148.9590  178.1690 C.3   132  VAL132      0.0276
    186  CG1      -76.3230  150.3220  178.8350 C.3   132  VAL132      0.0022
    187  CG2      -75.3100  148.6790  177.2360 C.3   132  VAL132      0.0022
    188  N        -73.7140  144.4630  180.5500 N.3   135  HIS135     -0.1226
    189  CA       -72.8140  144.0530  179.4730 C.3   135  HIS135      0.1752
    190  C        -71.4000  144.5720  179.6560 C.2   135  HIS135      0.2595
    191  O        -70.5130  144.2110  178.8770 O.2   135  HIS135     -0.2718
    192  CB       -73.3450  144.4920  178.1250 C.3   135  HIS135      0.0759
    193  CG       -74.4870  143.6700  177.6680 C.ar  135  HIS135      0.0818
    194  ND1      -74.3280  142.3480  177.3470 N.ar  135  HIS135     -0.2268
    195  CD2      -75.7680  144.0310  177.4470 C.ar  135  HIS135      0.1154
    196  CE1      -75.5160  141.9340  176.9620 C.ar  135  HIS135      0.1986
    197  NE2      -76.4140  142.9130  177.0250 N.ar  135  HIS135     -0.2212
    198  N        -71.1770  145.4030  180.6970 N.am  136  LEU136     -0.1980
    199  CA       -69.8470  145.9190  180.9760 C.3   136  LEU136      0.1596
    200  C        -69.2950  145.1380  182.1460 C.2   136  LEU136      0.2287
    201  O        -70.0610  144.7830  183.0360 O.2   136  LEU136     -0.2864
    202  CB       -69.8670  147.4360  181.2840 C.3   136  LEU136      0.0297
    203  CG       -70.3210  148.3870  180.1410 C.3   136  LEU136      0.0022
    204  CD1      -70.2960  149.8450  180.5890 C.3   136  LEU136      0.0001
    205  CD2      -69.4320  148.2640  178.9210 C.3   136  LEU136      0.0001
@<TRIPOS>BOND
     1   112   113    1
     2   115   114    2
     3   114   113    1
     4   113   116    1
     5   106   107    2
     6   106   105    1
     7   111   110    1
     8   118   120   ar
     9   118   117   ar
    10    21    20    2
    11   105   108    1
    12   105   104    1
    13   120   122   ar
    14   116   117    1
    15   108   109    1
    16    99    98    2
    17   117   119   ar
    18    20    19    1
    19   110   109    1
    20   134   133    1
    21   122   121   ar
    22   104    98   am
    23    98    97    1
    24   133   131   ar
    25   133   132   ar
    26   119   121   ar
    27   131   129   ar
    28   132   130   ar
    29    19    18    1
    30    19    22    1
    31    91    90    2
    32    69    68    2
    33   123   124    1
    34    68    67    1
    35   129   128   ar
    36    41    40    1
    37    97    96    1
    38    97   100    1
    39    22    23    1
    40   130   128   ar
    41   128   127    1
    42    30    31    1
    43    94    93   ar
    44   124   127    1
    45   124   125    1
    46    90    96   am
    47    90    89    1
    48    31    32    1
    49    92    93    1
    50    92    89    1
    51   100   101    1
    52    67    66    1
    53   101   102    1
    54    40    39    1
    55    93    95   ar
    56    89    88    1
    57    65    64    1
    58    39    38    1
    59    23    24   ar
    60    23    25   ar
    61   125   126    2
    62   125   135   am
    63    32    34   am
    64    32    33    2
    65    16    15    2
    66    24    26   ar
    67    34    35    1
    68    66    62   am
    69   102   103    1
    70   135   136    1
    71    15    14    1
    72   140   139    1
    73    70    71    1
    74    64    61    1
    75    25    27   ar
    76    62    63    2
    77    62    61    1
    78    38    35    1
    79    35    36    1
    80    26    28   ar
    81    71    74    1
    82    71    72    1
    83     4     3    2
    84   136   139    1
    85   136   137    1
    86    13    14    1
    87    61    60    1
    88    14    17    1
    89    74    75    1
    90     3     2    1
    91    27    28   ar
    92    60    58   am
    93    75    76    1
    94    28    29    1
    95    72    73    2
    96    72    81   am
    97   138   137    2
    98    36    37    2
    99   137   141   am
   100    49    47   ar
   101    45    44    2
   102    58    59    2
   103    58    57    1
   104    76    77    1
   105     5     2    1
   106     5     6    1
   107    81    82    1
   108     2     1    1
   109    46    47    1
   110    46    43    1
   111    57    56    1
   112    47    48   ar
   113   141   142    1
   114   157   155   am
   115    83    84    2
   116    83    82    1
   117    56    52   am
   118    44    43    1
   119    44    50   am
   120    42    43    1
   121    77    78    2
   122    82    85    1
   123   148   146    1
   124   155   156    2
   125   155   154    1
   126     6     7   ar
   127     6     8   ar
   128   142   143    1
   129   142   145    1
   130    52    51    1
   131    52    53    2
   132     7     9   ar
   133    51    50    1
   134    51    54    1
   135   154   153    1
   136   146   145    1
   137   146   147    1
   138   151   152    2
   139   151   150    1
   140     8    10   ar
   141   143   149   am
   142   143   144    2
   143    78    79    1
   144    78    80    1
   145    85    87    1
   146    85    86    1
   147   149   150    1
   148   196   197   ar
   149   196   194   ar
   150   197   195   ar
   151   187   185    1
   152   194   193   ar
   153   195   193   ar
   154     9    11   ar
   155   150   153    1
   156   193   192    1
   157    54    55    1
   158    10    11   ar
   159   192   189    1
   160   185   186    1
   161   185   182    1
   162    11    12    1
   163   170   169    2
   164   161   160    2
   165   191   190    2
   166   205   203    1
   167   182   181    1
   168   182   183    1
   169   169   181   am
   170   169   168    1
   171   189   190    1
   172   189   188    1
   173   177   179   ar
   174   177   174   ar
   175   190   198   am
   176   171   168    1
   177   171   172    1
   178   179   180   ar
   179   184   183    2
   180   160   159    1
   181   160   167   am
   182   203   204    1
   183   203   202    1
   184   168   167    1
   185   162   163    1
   186   162   159    1
   187   158   159    1
   188   174   172   ar
   189   174   176   ar
   190   163   164    1
   191   172   173   ar
   192   198   199    1
   193   164   166   am
   194   164   165    2
   195   180   178   ar
   196   199   202    1
   197   199   200    1
   198   176   178   ar
   199   176   175   ar
   200   173   175   ar
   201   200   201    2
