@<TRIPOS>MOLECULE
tmp/5ubgA00.pdb
 184 176 0 0 0
SMALL
GASTEIGER

@<TRIPOS>ATOM
      1  N         10.9610  -24.8750  -15.6980 N.3     9  GLN9       -0.1245
      2  CA        11.0350  -24.9240  -17.1530 C.3     9  GLN9        0.1566
      3  C         10.6830  -26.3350  -17.6580 C.2     9  GLN9        0.2260
      4  O         11.2190  -27.3330  -17.1780 O.2     9  GLN9       -0.2867
      5  CB        12.4180  -24.5280  -17.6290 C.3     9  GLN9        0.0367
      6  CG        12.5810  -24.5430  -19.1450 C.3     9  GLN9        0.0905
      7  CD        13.9580  -24.0860  -19.5530 C.2     9  GLN9        0.2608
      8  OE1       14.9560  -24.4270  -18.9090 O.2     9  GLN9       -0.2717
      9  NE2       14.0300  -23.3260  -20.6430 N.am    9  GLN9       -0.0878
     10  N         11.1370  -27.6270  -20.8370 N.3    11  SER11      -0.1202
     11  CA        12.2290  -28.2140  -21.6160 C.3    11  SER11       0.2020
     12  C         13.2400  -27.1450  -22.0010 C.2    11  SER11       0.2619
     13  O         12.9760  -26.2610  -22.8050 O.2    11  SER11      -0.2717
     14  CB        11.6970  -28.9190  -22.8620 C.3    11  SER11       0.2103
     15  OG        10.6260  -28.1830  -23.4240 O.3    11  SER11      -0.2182
     16  N         14.4020  -27.2200  -21.3990 N.am   12  GLY12      -0.1942
     17  CA        15.4930  -26.3570  -21.7880 C.3    12  GLY12       0.2014
     18  C         16.5990  -26.5180  -20.7950 C.2    12  GLY12       0.2639
     19  O         16.6360  -27.5090  -20.0450 O.2    12  GLY12      -0.2714
     20  N         17.4830  -25.5330  -20.7650 N.am   13  ARG13      -0.1963
     21  CA        18.7240  -25.6550  -19.9980 C.3    13  ARG13       0.1729
     22  C         18.5640  -25.7730  -18.4960 C.2    13  ARG13       0.2616
     23  O         19.4500  -26.2920  -17.8260 O.2    13  ARG13      -0.2715
     24  CB        19.6420  -24.4810  -20.3200 C.3    13  ARG13       0.0348
     25  CG        20.1230  -24.5150  -21.7550 C.3    13  ARG13       0.0492
     26  CD        20.9910  -23.3190  -22.1010 C.3    13  ARG13       0.2205
     27  NE        21.7070  -23.6270  -23.3290 N.pl3  13  ARG13      -0.0865
     28  CZ        22.9130  -24.1940  -23.3890 C.cat  13  ARG13       0.5346
     29  NH1       23.6040  -24.4860  -22.2810 N.pl3  13  ARG13       0.1354
     30  NH2       23.4430  -24.4600  -24.5690 N.pl3  13  ARG13       0.1354
     31  N         17.4550  -25.2900  -17.9550 N.am   14  LEU14      -0.1977
     32  CA        17.2310  -25.3660  -16.5130 C.3    14  LEU14       0.1596
     33  C         16.4660  -26.5920  -16.0450 C.2    14  LEU14       0.2287
     34  O         16.4360  -26.8700  -14.8430 O.2    14  LEU14      -0.2864
     35  CB        16.4870  -24.1160  -16.0190 C.3    14  LEU14       0.0297
     36  CG        17.1680  -22.7770  -16.3470 C.3    14  LEU14       0.0022
     37  CD1       16.3650  -21.6470  -15.7300 C.3    14  LEU14       0.0001
     38  CD2       18.6120  -22.7060  -15.8780 C.3    14  LEU14       0.0001
     39  N          6.9860  -22.8210  -20.2090 N.3    51  ARG51      -0.1231
     40  CA         8.0390  -22.0800  -20.9070 C.3    51  ARG51       0.1694
     41  C          8.6950  -21.1650  -19.8820 C.2    51  ARG51       0.2592
     42  O          8.0020  -20.5610  -19.0650 O.2    51  ARG51      -0.2718
     43  CB         7.4050  -21.2610  -22.0310 C.3    51  ARG51       0.0321
     44  CG         8.3890  -20.5210  -22.9130 C.3    51  ARG51       0.0489
     45  CD         7.6630  -19.6110  -23.9070 C.3    51  ARG51       0.2205
     46  NE         8.6010  -19.0080  -24.8550 N.pl3  51  ARG51      -0.0865
     47  CZ         9.1500  -19.6450  -25.8920 C.cat  51  ARG51       0.5346
     48  NH1        9.9980  -18.9990  -26.6830 N.pl3  51  ARG51       0.1354
     49  NH2        8.8630  -20.9170  -26.1600 N.pl3  51  ARG51       0.1354
     50  N         10.0160  -21.0680  -19.8820 N.am   52  ASP52      -0.1960
     51  CA        10.6920  -20.3070  -18.8140 C.3    52  ASP52       0.1840
     52  C         10.2570  -18.8430  -18.8080 C.2    52  ASP52       0.2622
     53  O         10.0680  -18.2520  -17.7380 O.2    52  ASP52      -0.2715
     54  CB        12.2130  -20.4820  -18.8650 C.3    52  ASP52       0.1450
     55  CG        12.8550  -19.7900  -20.0140 C.2    52  ASP52       0.3671
     56  OD1       12.2510  -19.7090  -21.1060 O.co2  52  ASP52      -0.2456
     57  OD2       14.0040  -19.3410  -19.8250 O.co2  52  ASP52      -0.2456
     58  N         10.0150  -18.2920  -19.9910 N.am   53  ASP53      -0.1971
     59  CA         9.5530  -16.9080  -20.1260 C.3    53  ASP53       0.1709
     60  C          8.3030  -16.5770  -19.3470 C.2    53  ASP53       0.2293
     61  O          8.0900  -15.4150  -19.0090 O.2    53  ASP53      -0.2864
     62  CB         9.3080  -16.5720  -21.5870 C.3    53  ASP53       0.1436
     63  CG        10.5260  -16.7800  -22.4070 C.2    53  ASP53       0.3671
     64  OD1       11.4120  -15.8950  -22.4160 O.co2  53  ASP53      -0.2456
     65  OD2       10.6260  -17.8750  -22.9770 O.co2  53  ASP53      -0.2456
     66  N         15.9930  -18.2660  -14.5010 N.3    70  GLY70      -0.1225
     67  CA        17.2340  -17.5160  -14.6560 C.3    70  GLY70       0.1811
     68  C         17.0000  -16.0690  -14.2730 C.2    70  GLY70       0.2280
     69  O         15.9420  -15.5090  -14.5910 O.2    70  GLY70      -0.2866
     70  N         18.2580  -13.5080  -15.5520 N.3    72  ASN72      -0.1225
     71  CA        18.1160  -12.7570  -16.7930 C.3    72  ASN72       0.1785
     72  C         16.6490  -12.6510  -17.2080 C.2    72  ASN72       0.2597
     73  O         16.1750  -11.5760  -17.5050 O.2    72  ASN72      -0.2718
     74  CB        18.9610  -13.3710  -17.9270 C.3    72  ASN72       0.1169
     75  CG        18.5630  -14.8010  -18.2690 C.2    72  ASN72       0.2627
     76  OD1       18.5040  -15.6710  -17.3920 O.2    72  ASN72      -0.2716
     77  ND2       18.2990  -15.0520  -19.5450 N.am   72  ASN72      -0.0877
     78  N         15.9280  -13.7700  -17.1890 N.am   73  VAL73      -0.1980
     79  CA        14.5340  -13.7840  -17.6320 C.3    73  VAL73       0.1595
     80  C         13.6430  -13.0860  -16.5990 C.2    73  VAL73       0.2287
     81  O         12.7120  -12.3530  -16.9600 O.2    73  VAL73      -0.2864
     82  CB        14.0690  -15.2280  -17.9640 C.3    73  VAL73       0.0276
     83  CG1       12.5740  -15.2750  -18.2150 C.3    73  VAL73       0.0022
     84  CG2       14.8200  -15.7410  -19.1890 C.3    73  VAL73       0.0022
     85  N         22.8710  -22.7750  -14.0000 N.3    99  GLY99      -0.1210
     86  CA        22.3420  -21.7850  -14.9280 C.3    99  GLY99       0.1956
     87  C         23.2440  -20.5850  -15.1610 C.2    99  GLY99       0.2612
     88  O         22.7990  -19.5960  -15.7410 O.2    99  GLY99      -0.2717
     89  N         24.5030  -20.6670  -14.7260 N.am  100  TYR100     -0.1962
     90  CA        25.4710  -19.5810  -14.9080 C.3   100  TYR100      0.1771
     91  C         25.6040  -19.1620  -16.3720 C.2   100  TYR100      0.2619
     92  O         25.7530  -19.9990  -17.2650 O.2   100  TYR100     -0.2715
     93  CB        26.8520  -19.9620  -14.3350 C.3   100  TYR100      0.0574
     94  CG        26.8630  -20.1760  -12.8260 C.ar  100  TYR100     -0.0198
     95  CD1       26.7580  -19.1020  -11.9460 C.ar  100  TYR100     -0.0009
     96  CD2       26.9780  -21.4480  -12.2860 C.ar  100  TYR100     -0.0009
     97  CE1       26.7660  -19.2940  -10.5760 C.ar  100  TYR100      0.0417
     98  CE2       26.9910  -21.6460  -10.9130 C.ar  100  TYR100      0.0417
     99  CZ        26.8760  -20.5630  -10.0690 C.ar  100  TYR100      0.1957
    100  OH        26.8840  -20.7400   -8.7120 O.3   100  TYR100     -0.2866
    101  N         25.5080  -17.8560  -16.6180 N.am  101  CYS101     -0.1968
    102  CA        25.7800  -17.2930  -17.9390 C.3   101  CYS101      0.1712
    103  C         25.8950  -15.7770  -17.8540 C.2   101  CYS101      0.2296
    104  O         25.6140  -15.1600  -16.8030 O.2   101  CYS101     -0.2864
    105  CB        24.6660  -17.6590  -18.9360 C.3   101  CYS101      0.0983
    106  SG        23.0320  -17.0940  -18.4350 S.3   101  CYS101     -0.0798
    107  N         16.6360   -9.8720  -25.3130 N.3   128  TYR128     -0.1241
    108  CA        16.4920   -9.1670  -24.0220 C.3   128  TYR128      0.1605
    109  C         16.4680   -7.6630  -24.2360 C.2   128  TYR128      0.2264
    110  O         17.3450   -6.9430  -23.7370 O.2   128  TYR128     -0.2867
    111  CB        17.6200   -9.5940  -23.0690 C.3   128  TYR128      0.0534
    112  CG        17.5180  -11.0770  -22.8100 C.ar  128  TYR128     -0.0201
    113  CD1       16.6680  -11.5640  -21.8390 C.ar  128  TYR128     -0.0009
    114  CD2       18.2020  -11.9860  -23.6140 C.ar  128  TYR128     -0.0009
    115  CE1       16.5210  -12.9230  -21.6220 C.ar  128  TYR128      0.0417
    116  CE2       18.0790  -13.3500  -23.4090 C.ar  128  TYR128      0.0417
    117  CZ        17.2320  -13.8130  -22.4170 C.ar  128  TYR128      0.1957
    118  OH        17.0790  -15.1520  -22.1980 O.3   128  TYR128     -0.2866
    119  N         22.3210  -14.9490  -32.9920 N.3   153  GLU153     -0.1245
    120  CA        23.7220  -14.9180  -33.4080 C.3   153  GLU153      0.1567
    121  C         23.8680  -14.8460  -34.9160 C.2   153  GLU153      0.2260
    122  O         24.9130  -14.4470  -35.4120 O.2   153  GLU153     -0.2867
    123  CB        24.4910  -16.1380  -32.8760 C.3   153  GLU153      0.0388
    124  CG        24.3810  -16.3520  -31.3600 C.3   153  GLU153      0.1160
    125  CD        25.6230  -15.9050  -30.6270 C.2   153  GLU153      0.3649
    126  OE1       26.7260  -16.1360  -31.2020 O.co2 153  GLU153     -0.2457
    127  OE2       25.5060  -15.3480  -29.4920 O.co2 153  GLU153     -0.2457
    128  N         23.5470  -11.0920  -26.3700 N.3   166  ASP166     -0.1225
    129  CA        23.0860  -12.4630  -26.2060 C.3   166  ASP166      0.1805
    130  C         23.8100  -13.1610  -25.0810 C.2   166  ASP166      0.2598
    131  O         24.8620  -12.7020  -24.6070 O.2   166  ASP166     -0.2718
    132  CB        23.2960  -13.2380  -27.5230 C.3   166  ASP166      0.1424
    133  CG        22.4050  -14.4750  -27.6490 C.2   166  ASP166      0.3668
    134  OD1       21.3920  -14.6180  -26.9110 O.co2 166  ASP166     -0.2456
    135  OD2       22.7260  -15.3050  -28.5200 O.co2 166  ASP166     -0.2456
    136  N         23.2160  -14.2730  -24.6590 N.am  167  LEU167     -0.1966
    137  CA        23.7220  -15.0680  -23.5680 C.3   167  LEU167      0.1728
    138  C         24.9220  -15.8630  -24.0230 C.2   167  LEU167      0.2616
    139  O         24.9390  -16.4070  -25.1420 O.2   167  LEU167     -0.2715
    140  CB        22.6410  -16.0080  -23.0600 C.3   167  LEU167      0.0311
    141  CG        21.3840  -15.3350  -22.5100 C.3   167  LEU167      0.0022
    142  CD1       20.3310  -16.3900  -22.1850 C.3   167  LEU167      0.0001
    143  CD2       21.7220  -14.5020  -21.2780 C.3   167  LEU167      0.0001
    144  N         25.9050  -15.9380  -23.1320 N.am  168  VAL168     -0.1963
    145  CA        27.1730  -16.6170  -23.3800 C.3   168  VAL168      0.1727
    146  C         27.4840  -17.4740  -22.1560 C.2   168  VAL168      0.2617
    147  O         27.3410  -17.0090  -21.0140 O.2   168  VAL168     -0.2715
    148  CB        28.3120  -15.5950  -23.6040 C.3   168  VAL168      0.0290
    149  CG1       29.6110  -16.2930  -23.9830 C.3   168  VAL168      0.0023
    150  CG2       27.9310  -14.5920  -24.6900 C.3   168  VAL168      0.0023
    151  N         27.8770  -18.7240  -22.3890 N.am  169  SER169     -0.1936
    152  CA        28.4710  -19.5480  -21.3430 C.3   169  SER169      0.2055
    153  C         29.8830  -19.9430  -21.7440 C.2   169  SER169      0.2644
    154  O         30.8490  -19.3950  -21.2310 O.2   169  SER169     -0.2714
    155  CB        27.6310  -20.8040  -21.1100 C.3   169  SER169      0.2130
    156  OG        26.5880  -20.5260  -20.2280 O.3   169  SER169     -0.2179
    157  N         29.9960  -20.8890  -22.6720 N.am  170  SER170     -0.1935
    158  CA        31.3010  -21.3940  -23.1260 C.3   170  SER170      0.2055
    159  C         31.9480  -20.4960  -24.1780 C.2   170  SER170      0.2644
    160  O         33.1750  -20.4540  -24.2970 O.2   170  SER170     -0.2714
    161  CB        31.1610  -22.8110  -23.6930 C.3   170  SER170      0.2130
    162  OG        30.6930  -22.7960  -25.0360 O.3   170  SER170     -0.2179
    163  N         31.1290  -19.7880  -24.9480 N.am  171  GLY171     -0.1939
    164  CA        31.6220  -18.9220  -26.0060 C.3   171  GLY171      0.2014
    165  C         31.7250  -19.6050  -27.3590 C.2   171  GLY171      0.2639
    166  O         32.0490  -18.9560  -28.3410 O.2   171  GLY171     -0.2714
    167  N         31.4180  -20.9030  -27.4160 N.am  172  ALA172     -0.1963
    168  CA        31.5110  -21.6740  -28.6680 C.3   172  ALA172      0.1728
    169  C         30.5500  -21.1750  -29.7610 C.2   172  ALA172      0.2616
    170  O         30.8900  -21.1780  -30.9510 O.2   172  ALA172     -0.2715
    171  CB        31.2830  -23.1600  -28.3960 C.3   172  ALA172      0.0334
    172  N         29.3540  -20.7450  -29.3760 N.am  173  THR173     -0.1951
    173  CA        28.3930  -20.2400  -30.3530 C.3   173  THR173      0.1897
    174  C         28.8600  -18.9340  -30.9850 C.2   173  THR173      0.2313
    175  O         28.6670  -18.7150  -32.1860 O.2   173  THR173     -0.2863
    176  CB        26.9930  -20.0520  -29.7320 C.3   173  THR173      0.1794
    177  OG1       26.6050  -21.2650  -29.0990 O.3   173  THR173     -0.2208
    178  CG2       25.9490  -19.7150  -30.7840 C.3   173  THR173      0.0378
    179  N         24.1500  -13.7150  -14.7870 N.3   188  SER188     -0.1217
    180  CA        22.9540  -14.4240  -14.3420 C.3   188  SER188      0.1889
    181  C         23.2530  -15.8200  -13.8500 C.2   188  SER188      0.2288
    182  O         24.2390  -16.4550  -14.2670 O.2   188  SER188     -0.2866
    183  CB        21.9480  -14.4960  -15.4920 C.3   188  SER188      0.2089
    184  OG        20.7740  -15.1690  -15.0940 O.3   188  SER188     -0.2183
@<TRIPOS>BOND
     1   122   121    2
     2   121   120    1
     3   120   119    1
     4   120   123    1
     5   123   124    1
     6   175   174    2
     7   124   125    1
     8   126   125   ar
     9   174   173    1
    10   170   169    2
    11   178   176    1
    12   125   127   ar
    13   173   176    1
    14   173   172    1
    15   169   172   am
    16   169   168    1
    17   176   177    1
    18   168   171    1
    19   168   167    1
    20   135   133   ar
    21   166   165    2
    22   133   132    1
    23   133   134   ar
    24   132   129    1
    25   167   165   am
    26   165   164    1
    27    48    47    1
    28   128   129    1
    29   129   130    1
    30    49    47    1
    31   164   163    1
    32    47    46    2
    33   107   108    1
    34   139   138    2
    35   130   136   am
    36   130   131    2
    37   162   161    1
    38   163   159   am
    39    46    45    1
    40   150   148    1
    41   136   137    1
    42    30    28    1
    43   160   159    2
    44   109   108    1
    45   109   110    2
    46   159   158    1
    47   138   137    1
    48   138   144   am
    49   108   111    1
    50   149   148    1
    51    45    44    1
    52   161   158    1
    53   114   116   ar
    54   114   112   ar
    55   148   145    1
    56   137   140    1
    57    15    14    1
    58   116   117   ar
    59    28    27    2
    60    28    29    1
    61   145   144    1
    62   145   146    1
    63    27    26    1
    64   158   157    1
    65   111   112    1
    66   140   141    1
    67    65    63   ar
    68    44    43    1
    69    14    11    1
    70   112   113   ar
    71    13    12    2
    72   157   153   am
    73   141   142    1
    74   141   143    1
    75   117   118    1
    76   117   115   ar
    77    64    63   ar
    78    63    62    1
    79   151   146   am
    80   151   152    1
    81   146   147    2
    82    26    25    1
    83    43    40    1
    84    12    11    1
    85    12    16   am
    86   113   115   ar
    87    17    16    1
    88    17    18    1
    89    25    24    1
    90   153   152    1
    91   153   154    2
    92    11    10    1
    93    62    59    1
    94   152   155    1
    95   155   156    1
    96    56    55   ar
    97    40    39    1
    98    40    41    1
    99    18    20   am
   100    18    19    2
   101    20    21    1
   102     9     7   am
   103    24    21    1
   104    59    58    1
   105    59    60    1
   106    55    57   ar
   107    55    54    1
   108    21    22    1
   109    58    52   am
   110    41    50   am
   111    41    42    2
   112    50    51    1
   113     7     6    1
   114     7     8    2
   115    77    75   am
   116    60    61    2
   117    84    82    1
   118     6     5    1
   119   105   106    1
   120   105   102    1
   121    54    51    1
   122    51    52    1
   123    52    53    2
   124    22    31   am
   125    22    23    2
   126    75    74    1
   127    75    76    2
   128    83    82    1
   129    82    79    1
   130    31    32    1
   131   102   103    1
   132   102   101    1
   133    74    71    1
   134   103   104    2
   135     3     4    2
   136     3     2    1
   137    79    78    1
   138    79    80    1
   139     5     2    1
   140    73    72    2
   141    92    91    2
   142    72    78   am
   143    72    71    1
   144     2     1    1
   145    81    80    2
   146    71    70    1
   147   101    91   am
   148    32    33    1
   149    32    35    1
   150    91    90    1
   151    36    35    1
   152    36    38    1
   153    36    37    1
   154    33    34    2
   155    88    87    2
   156   183   184    1
   157   183   180    1
   158    87    86    1
   159    87    89   am
   160    86    85    1
   161    90    89    1
   162    90    93    1
   163   179   180    1
   164    67    66    1
   165    67    68    1
   166    69    68    2
   167   180   181    1
   168    93    94    1
   169   182   181    2
   170    94    96   ar
   171    94    95   ar
   172    96    98   ar
   173    95    97   ar
   174    98    99   ar
   175    97    99   ar
   176    99   100    1
