@<TRIPOS>MOLECULE
tmp/5ubhB00.pdb
 158 150 0 0 0
SMALL
GASTEIGER

@<TRIPOS>ATOM
      1  N         -6.3180  -16.3160   40.7960 N.3     9  GLN9       -0.1245
      2  CA        -6.4620  -17.2830   39.7090 C.3     9  GLN9        0.1566
      3  C         -7.3450  -18.4810   40.1360 C.2     9  GLN9        0.2260
      4  O         -7.1360  -19.0600   41.1960 O.2     9  GLN9       -0.2867
      5  CB        -5.1010  -17.7910   39.2100 C.3     9  GLN9        0.0367
      6  CG        -5.1990  -18.8310   38.0760 C.3     9  GLN9        0.0905
      7  CD        -3.8450  -19.2800   37.5730 C.2     9  GLN9        0.2608
      8  OE1       -2.9900  -19.6500   38.3660 O.2     9  GLN9       -0.2717
      9  NE2       -3.6500  -19.2780   36.2540 N.am    9  GLN9       -0.0878
     10  N         -7.8650  -21.6100   38.5980 N.3    11  SER11      -0.1202
     11  CA        -7.1620  -22.8620   38.4940 C.3    11  SER11       0.2020
     12  C         -5.9430  -22.5920   37.6570 C.2    11  SER11       0.2619
     13  O         -6.0420  -22.0590   36.5810 O.2    11  SER11      -0.2717
     14  CB        -8.0500  -23.9730   37.9250 C.3    11  SER11       0.2103
     15  OG        -7.7480  -24.2730   36.5890 O.3    11  SER11      -0.2182
     16  N         -4.7930  -22.9970   38.1410 N.am   12  GLY12      -0.1942
     17  CA        -3.5720  -22.7450   37.4260 C.3    12  GLY12       0.2014
     18  C         -2.3750  -22.7770   38.3410 C.2    12  GLY12       0.2639
     19  O         -2.4630  -23.1560   39.4910 O.2    12  GLY12      -0.2714
     20  N         -1.2540  -22.3240   37.8230 N.am   13  ARG13      -0.1963
     21  CA        -0.0040  -22.3560   38.5830 C.3    13  ARG13       0.1729
     22  C          0.0740  -21.4340   39.7780 C.2    13  ARG13       0.2616
     23  O          0.9190  -21.6680   40.6370 O.2    13  ARG13      -0.2715
     24  CB         1.1750  -22.0640   37.6650 C.3    13  ARG13       0.0348
     25  CG         1.4150  -23.2100   36.7020 C.3    13  ARG13       0.0492
     26  CD         2.2710  -22.7600   35.5610 C.3    13  ARG13       0.2205
     27  NE         2.3670  -23.7710   34.5090 N.pl3  13  ARG13      -0.0865
     28  CZ         3.1810  -24.8280   34.5380 C.cat  13  ARG13       0.5346
     29  NH1        3.1800  -25.6710   33.5050 N.pl3  13  ARG13       0.1354
     30  NH2        3.9930  -25.0600   35.5840 N.pl3  13  ARG13       0.1354
     31  N         -0.7620  -20.3910   39.8460 N.am   14  LEU14      -0.1977
     32  CA        -0.8160  -19.5530   41.0660 C.3    14  LEU14       0.1596
     33  C         -1.9910  -19.8680   42.0100 C.2    14  LEU14       0.2287
     34  O         -2.0740  -19.2710   43.0840 O.2    14  LEU14      -0.2864
     35  CB        -0.8780  -18.0610   40.7110 C.3    14  LEU14       0.0297
     36  CG         0.1160  -17.3990   39.7600 C.3    14  LEU14       0.0022
     37  CD1       -0.1700  -15.8830   39.6580 C.3    14  LEU14       0.0001
     38  CD2        1.5660  -17.6620   40.1520 C.3    14  LEU14       0.0001
     39  N         -9.8690  -16.2560   35.5710 N.3    51  ARG51      -0.1231
     40  CA        -8.7540  -16.5090   34.6850 C.3    51  ARG51       0.1694
     41  C         -7.7090  -15.4290   34.9620 C.2    51  ARG51       0.2592
     42  O         -8.0430  -14.2450   35.1160 O.2    51  ARG51      -0.2718
     43  CB        -9.2410  -16.4720   33.2430 C.3    51  ARG51       0.0321
     44  CG        -8.2710  -16.9420   32.1940 C.3    51  ARG51       0.0489
     45  CD        -8.9040  -16.7930   30.8090 C.3    51  ARG51       0.2205
     46  NE        -7.9370  -16.8920   29.7140 N.pl3  51  ARG51      -0.0865
     47  CZ        -7.8130  -17.9050   28.8430 C.cat  51  ARG51       0.5346
     48  NH1       -6.8850  -17.8120   27.8900 N.pl3  51  ARG51       0.1354
     49  NH2       -8.5850  -19.0060   28.8890 N.pl3  51  ARG51       0.1354
     50  N         -6.4430  -15.8490   35.0750 N.am   52  ASP52      -0.1960
     51  CA        -5.4290  -14.9420   35.4730 C.3    52  ASP52       0.1840
     52  C         -5.3080  -13.7550   34.5230 C.2    52  ASP52       0.2622
     53  O         -5.0840  -12.6450   34.9710 O.2    52  ASP52      -0.2715
     54  CB        -4.0830  -15.6560   35.7150 C.3    52  ASP52       0.1450
     55  CG        -3.3780  -16.1030   34.4380 C.2    52  ASP52       0.3671
     56  OD1       -3.9920  -16.5950   33.4770 O.co2  52  ASP52      -0.2456
     57  OD2       -2.1450  -15.9620   34.4110 O.co2  52  ASP52      -0.2456
     58  N         -5.5000  -13.9670   33.2400 N.am   53  ASP53      -0.1971
     59  CA        -5.3870  -12.8710   32.2740 C.3    53  ASP53       0.1709
     60  C         -6.3630  -11.7080   32.5100 C.2    53  ASP53       0.2293
     61  O         -6.1370  -10.6070   31.9860 O.2    53  ASP53      -0.2864
     62  CB        -5.5720  -13.3870   30.8540 C.3    53  ASP53       0.1436
     63  CG        -4.5750  -14.4760   30.5030 C.2    53  ASP53       0.3671
     64  OD1       -3.3290  -14.2300   30.5440 O.co2  53  ASP53      -0.2456
     65  OD2       -5.0420  -15.5920   30.2100 O.co2  53  ASP53      -0.2456
     66  N          0.8420  -12.8460   38.3490 N.3    70  GLY70      -0.1225
     67  CA         2.1920  -12.8370   37.8480 C.3    70  GLY70       0.1811
     68  C          2.5530  -11.4940   37.2420 C.2    70  GLY70       0.2280
     69  O          1.7410  -10.8740   36.5240 O.2    70  GLY70      -0.2866
     70  N          4.5510  -10.9510   34.8150 N.3    72  ASN72      -0.1225
     71  CA         4.4890  -11.1140   33.3800 C.3    72  ASN72       0.1785
     72  C          3.1090  -10.7760   32.8010 C.2    72  ASN72       0.2597
     73  O          3.0210  -10.0200   31.8210 O.2    72  ASN72      -0.2718
     74  CB         4.9260  -12.5180   32.9630 C.3    72  ASN72       0.1169
     75  CG         3.9920  -13.6140   33.4490 C.2    72  ASN72       0.2627
     76  OD1        3.6760  -13.7000   34.6310 O.2    72  ASN72      -0.2716
     77  ND2        3.5160  -14.4320   32.5200 N.am   72  ASN72      -0.0877
     78  N          2.0440  -11.3150   33.4080 N.am   73  VAL73      -0.1980
     79  CA         0.6770  -11.0860   32.9110 C.3    73  VAL73       0.1595
     80  C          0.2670   -9.6310   33.1690 C.2    73  VAL73       0.2287
     81  O         -0.3410   -9.0070   32.2960 O.2    73  VAL73      -0.2864
     82  CB        -0.3310  -12.0890   33.5110 C.3    73  VAL73       0.0276
     83  CG1       -1.7730  -11.7530   33.1020 C.3    73  VAL73       0.0022
     84  CG2        0.0550  -13.5060   33.0640 C.3    73  VAL73       0.0022
     85  N          5.4380  -18.1580   42.1470 N.3    99  GLY99      -0.1210
     86  CA         5.1410  -17.8050   40.7690 C.3    99  GLY99       0.1956
     87  C          6.3600  -17.4960   39.9530 C.2    99  GLY99       0.2612
     88  O          6.2880  -16.7510   38.9550 O.2    99  GLY99      -0.2717
     89  N          7.4990  -18.0540   40.3790 N.am  100  TYR100     -0.1962
     90  CA         8.7810  -17.7760   39.7430 C.3   100  TYR100      0.1771
     91  C          8.8180  -18.3900   38.3400 C.2   100  TYR100      0.2619
     92  O          8.5650  -19.5810   38.1590 O.2   100  TYR100     -0.2715
     93  CB         9.9480  -18.3200   40.5850 C.3   100  TYR100      0.0574
     94  CG        10.1460  -17.6840   41.9570 C.ar  100  TYR100     -0.0198
     95  CD1       10.3390  -16.3170   42.0950 C.ar  100  TYR100     -0.0009
     96  CD2       10.2020  -18.4750   43.1170 C.ar  100  TYR100     -0.0009
     97  CE1       10.5530  -15.7400   43.3330 C.ar  100  TYR100      0.0417
     98  CE2       10.4250  -17.9070   44.3620 C.ar  100  TYR100      0.0417
     99  CZ        10.5910  -16.5320   44.4690 C.ar  100  TYR100      0.1957
    100  OH        10.8140  -15.9490   45.7140 O.3   100  TYR100     -0.2866
    101  N          9.1010  -17.5580   37.3400 N.am  101  CYS101     -0.1968
    102  CA         9.2500  -18.0370   35.9810 C.3   101  CYS101      0.1712
    103  C          9.9110  -16.9350   35.2230 C.2   101  CYS101      0.2296
    104  O         10.1220  -15.8450   35.7690 O.2   101  CYS101     -0.2864
    105  CB         7.8940  -18.3540   35.3550 C.3   101  CYS101      0.0983
    106  SG         6.7890  -16.9300   35.3020 S.3   101  CYS101     -0.0798
    107  N          2.9500  -13.6340   24.6600 N.3   128  TYR128     -0.1241
    108  CA         3.2320  -12.3160   25.2490 C.3   128  TYR128      0.1605
    109  C          3.7380  -11.3410   24.1770 C.2   128  TYR128      0.2264
    110  O          4.8870  -10.8890   24.2130 O.2   128  TYR128     -0.2867
    111  CB         4.2150  -12.4760   26.4140 C.3   128  TYR128      0.0534
    112  CG         3.6170  -13.3340   27.5040 C.ar  128  TYR128     -0.0201
    113  CD1        2.7090  -12.7890   28.4160 C.ar  128  TYR128     -0.0009
    114  CD2        3.8630  -14.7040   27.5680 C.ar  128  TYR128     -0.0009
    115  CE1        2.1040  -13.5730   29.3840 C.ar  128  TYR128      0.0417
    116  CE2        3.2600  -15.5050   28.5430 C.ar  128  TYR128      0.0417
    117  CZ         2.3800  -14.9320   29.4440 C.ar  128  TYR128      0.1957
    118  OH         1.7690  -15.6900   30.4160 O.3   128  TYR128     -0.2866
    119  N         -2.0070  -18.4900   22.2450 N.3   149  THR149     -0.1218
    120  CA        -2.3900  -18.4420   23.6380 C.3   149  THR149      0.1862
    121  C         -1.9160  -19.6920   24.3760 C.2   149  THR149      0.2287
    122  O         -1.6730  -19.6310   25.5870 O.2   149  THR149     -0.2866
    123  CB        -3.9440  -18.3420   23.7590 C.3   149  THR149      0.1770
    124  OG1       -4.3660  -17.0870   23.2330 O.3   149  THR149     -0.2211
    125  CG2       -4.4380  -18.4980   25.2210 C.3   149  THR149      0.0375
    126  N          7.2770  -18.8250   28.1090 N.3   167  LEU167     -0.1231
    127  CA         7.3420  -18.7420   29.5500 C.3   167  LEU167      0.1693
    128  C          7.8290  -20.1020   30.0630 C.2   167  LEU167      0.2592
    129  O          7.2950  -21.1130   29.6360 O.2   167  LEU167     -0.2718
    130  CB         5.9320  -18.4430   30.0690 C.3   167  LEU167      0.0284
    131  CG         5.7950  -17.8030   31.4290 C.3   167  LEU167      0.0019
    132  CD1        6.5040  -16.4520   31.4590 C.3   167  LEU167      0.0001
    133  CD2        4.3160  -17.6260   31.7040 C.3   167  LEU167      0.0001
    134  N          8.8530  -20.1080   30.9010 N.am  168  VAL168     -0.1966
    135  CA         9.3760  -21.3420   31.4570 C.3   168  VAL168      0.1727
    136  C          9.8310  -21.1820   32.8890 C.2   168  VAL168      0.2617
    137  O         10.1960  -20.0950   33.3050 O.2   168  VAL168     -0.2715
    138  CB        10.5490  -21.8970   30.6360 C.3   168  VAL168      0.0290
    139  CG1       10.0440  -22.5530   29.3650 C.3   168  VAL168      0.0023
    140  CG2       11.5550  -20.8090   30.3200 C.3   168  VAL168      0.0023
    141  N          9.7980  -22.2760   33.6430 N.am  169  SER169     -0.1936
    142  CA        10.2390  -22.2700   35.0390 C.3   169  SER169      0.2055
    143  C         11.3310  -23.2870   35.2410 C.2   169  SER169      0.2643
    144  O         12.4970  -22.9610   35.4140 O.2   169  SER169     -0.2714
    145  CB         9.0800  -22.6370   35.9520 C.3   169  SER169      0.2130
    146  OG         9.5330  -22.5860   37.2740 O.3   169  SER169     -0.2179
    147  N         10.9090  -24.5400   35.2300 N.am  170  SER170     -0.1949
    148  CA        11.7810  -25.6920   35.3730 C.3   170  SER170      0.1924
    149  C         12.6970  -25.7810   34.1890 C.2   170  SER170      0.2314
    150  O         13.8600  -26.0600   34.3310 O.2   170  SER170     -0.2863
    151  CB        10.9470  -26.9630   35.4730 C.3   170  SER170      0.2116
    152  OG        10.1470  -27.2000   34.3350 O.3   170  SER170     -0.2180
    153  N          9.8210  -13.0240   36.1120 N.3   188  SER188     -0.1217
    154  CA         8.5490  -12.7750   36.8100 C.3   188  SER188      0.1889
    155  C          8.4340  -13.5360   38.1350 C.2   188  SER188      0.2288
    156  O          9.0570  -14.5800   38.3510 O.2   188  SER188     -0.2866
    157  CB         7.3550  -13.1200   35.8810 C.3   188  SER188      0.2089
    158  OG         6.0650  -12.8870   36.4780 O.3   188  SER188     -0.2183
@<TRIPOS>BOND
     1   119   120    1
     2   124   123    1
     3   120   123    1
     4   120   121    1
     5   123   125    1
     6   109   110    2
     7   109   108    1
     8   121   122    2
     9   107   108    1
    10   108   111    1
    11   111   112    1
    12   112   114   ar
    13   112   113   ar
    14   114   116   ar
    15    48    47    1
    16   126   127    1
    17   113   115   ar
    18   116   117   ar
    19    47    49    1
    20    47    46    2
    21   139   138    1
    22   115   117   ar
    23   117   118    1
    24   127   128    1
    25   127   130    1
    26   129   128    2
    27    46    45    1
    28   128   134   am
    29   130   131    1
    30    65    63   ar
    31   140   138    1
    32    63    64   ar
    33    63    62    1
    34   138   135    1
    35    45    44    1
    36    62    59    1
    37   134   135    1
    38   131   132    1
    39   131   133    1
    40   135   136    1
    41    73    72    2
    42    61    60    2
    43    44    43    1
    44    59    60    1
    45    59    58    1
    46    81    80    2
    47    77    75   am
    48    72    71    1
    49    72    78   am
    50   136   137    2
    51   136   141   am
    52    79    80    1
    53    79    78    1
    54    79    82    1
    55    74    71    1
    56    74    75    1
    57    84    82    1
    58    83    82    1
    59    58    52   am
    60    43    40    1
    61    71    70    1
    62    75    76    2
    63    56    55   ar
    64    29    28    1
    65   141   142    1
    66   149   150    2
    67   149   148    1
    68   152   151    1
    69    57    55   ar
    70    55    54    1
    71    27    28    2
    72    27    26    1
    73    52    53    2
    74    52    51    1
    75    28    30    1
    76    40    41    1
    77    40    39    1
    78    41    50   am
    79    41    42    2
    80   142   143    1
    81   142   145    1
    82    50    51    1
    83   103   104    2
    84   103   102    1
    85   147   143   am
    86   147   148    1
    87   143   144    2
    88   106   105    1
    89   105   102    1
    90   148   151    1
    91    51    54    1
    92    26    25    1
    93   157   158    1
    94   157   154    1
    95   145   146    1
    96   102   101    1
    97   153   154    1
    98     9     7   am
    99    69    68    2
   100    13    12    2
   101    15    14    1
   102    25    24    1
   103   154   155    1
   104    68    67    1
   105   101    91   am
   106    17    16    1
   107    17    18    1
   108     7     6    1
   109     7     8    2
   110    12    16   am
   111    12    11    1
   112    24    21    1
   113    20    18   am
   114    20    21    1
   115    67    66    1
   116    14    11    1
   117     6     5    1
   118   155   156    2
   119    92    91    2
   120    91    90    1
   121    18    19    2
   122    11    10    1
   123    21    22    1
   124    88    87    2
   125     5     2    1
   126    37    36    1
   127     2     3    1
   128     2     1    1
   129    90    89    1
   130    90    93    1
   131    36    38    1
   132    36    35    1
   133    22    31   am
   134    22    23    2
   135    31    32    1
   136    87    89   am
   137    87    86    1
   138     3     4    2
   139    93    94    1
   140    35    32    1
   141    86    85    1
   142    32    33    1
   143    94    95   ar
   144    94    96   ar
   145    33    34    2
   146    95    97   ar
   147    96    98   ar
   148    97    99   ar
   149    98    99   ar
   150    99   100    1
