@<TRIPOS>MOLECULE
tmp/5ubiA00.pdb
 127 121 0 0 0
SMALL
GASTEIGER

@<TRIPOS>ATOM
      1  N        -11.0490  -23.5020   14.9320 N.3     9  GLN9       -0.1245
      2  CA       -11.1430  -23.5540   16.3590 C.3     9  GLN9        0.1566
      3  C        -10.7960  -24.9540   16.8860 C.2     9  GLN9        0.2260
      4  O        -11.3390  -25.9390   16.4050 O.2     9  GLN9       -0.2867
      5  CB       -12.5410  -23.1550   16.7830 C.3     9  GLN9        0.0367
      6  CG       -12.7060  -23.1540   18.2970 C.3     9  GLN9        0.0905
      7  CD       -14.0460  -22.6120   18.7370 C.2     9  GLN9        0.2608
      8  OE1      -15.0470  -22.8230   18.0880 O.2     9  GLN9       -0.2717
      9  NE2      -14.0720  -21.9440   19.8840 N.am    9  GLN9       -0.0878
     10  N        -14.8260  -25.9360   20.7610 N.3    12  GLY12      -0.1210
     11  CA       -15.8100  -24.9010   20.9610 C.3    12  GLY12       0.1956
     12  C        -16.8710  -24.9920   19.8890 C.2    12  GLY12       0.2611
     13  O        -16.9810  -26.0190   19.1920 O.2    12  GLY12      -0.2717
     14  N        -17.6500  -23.9140   19.7970 N.am   13  ARG13      -0.1979
     15  CA       -18.8270  -23.7690   18.9490 C.3    13  ARG13       0.1597
     16  C        -18.6280  -24.1280   17.4580 C.2    13  ARG13       0.2287
     17  O        -19.5090  -24.6980   16.8130 O.2    13  ARG13      -0.2864
     18  CB       -19.2900  -22.3070   19.0400 C.3    13  ARG13       0.0334
     19  CG       -20.8140  -22.2740   18.7550 C.3    13  ARG13       0.0492
     20  CD       -21.3340  -20.8320   18.8200 C.3    13  ARG13       0.2205
     21  NE       -20.6790  -20.0770   17.7820 N.pl3  13  ARG13      -0.0865
     22  CZ       -19.7310  -19.1490   18.0130 C.cat  13  ARG13       0.5346
     23  NH1      -19.4390  -18.6850   19.2390 N.pl3  13  ARG13       0.1354
     24  NH2      -19.1100  -18.6940   16.9100 N.pl3  13  ARG13       0.1354
     25  N         -9.9910  -19.8000   19.2080 N.3    52  ASP52      -0.1225
     26  CA       -10.6370  -19.0180   18.1940 C.3    52  ASP52       0.1805
     27  C        -10.1770  -17.5440   18.1480 C.2    52  ASP52       0.2597
     28  O        -10.0630  -16.9410   17.0680 O.2    52  ASP52      -0.2718
     29  CB       -12.1730  -19.1290   18.3010 C.3    52  ASP52       0.1424
     30  CG       -12.7130  -18.6310   19.6220 C.2    52  ASP52       0.3668
     31  OD1      -11.8940  -18.4210   20.5030 O.co2  52  ASP52      -0.2456
     32  OD2      -13.9420  -18.4900   19.7810 O.co2  52  ASP52      -0.2456
     33  N         -9.8930  -16.9900   19.3250 N.am   53  ASP53      -0.1974
     34  CA        -9.4920  -15.6100   19.4810 C.3    53  ASP53       0.1709
     35  C         -8.1830  -15.3060   18.7760 C.2    53  ASP53       0.2293
     36  O         -7.8860  -14.1650   18.5010 O.2    53  ASP53      -0.2864
     37  CB        -9.3380  -15.2890   20.9690 C.3    53  ASP53       0.1436
     38  CG       -10.5490  -15.6920   21.7790 C.2    53  ASP53       0.3671
     39  OD1      -11.5860  -15.0050   21.7150 O.co2  53  ASP53      -0.2456
     40  OD2      -10.4510  -16.7280   22.4760 O.co2  53  ASP53      -0.2456
     41  N        -15.7640  -12.5360   16.6290 N.3    73  VAL73      -0.1245
     42  CA       -14.3820  -12.6750   17.0500 C.3    73  VAL73       0.1561
     43  C        -13.4550  -11.9450   16.0780 C.2    73  VAL73       0.2260
     44  O        -12.5040  -11.2570   16.4810 O.2    73  VAL73      -0.2867
     45  CB       -13.9890  -14.1510   17.1840 C.3    73  VAL73       0.0252
     46  CG1      -12.5030  -14.3070   17.4360 C.3    73  VAL73       0.0019
     47  CG2      -14.7600  -14.8120   18.3370 C.3    73  VAL73       0.0019
     48  N        -15.9850   -9.1080   24.9500 N.3   128  TYR128     -0.1241
     49  CA       -15.8610   -8.3470   23.6640 C.3   128  TYR128      0.1605
     50  C        -15.8510   -6.8680   23.9370 C.2   128  TYR128      0.2264
     51  O        -16.7950   -6.1430   23.5770 O.2   128  TYR128     -0.2867
     52  CB       -17.0120   -8.7310   22.7260 C.3   128  TYR128      0.0534
     53  CG       -17.0000  -10.2040   22.5050 C.ar  128  TYR128     -0.0201
     54  CD1      -16.0820  -10.7800   21.6230 C.ar  128  TYR128     -0.0009
     55  CD2      -17.8520  -11.0420   23.2190 C.ar  128  TYR128     -0.0009
     56  CE1      -16.0200  -12.1700   21.4460 C.ar  128  TYR128      0.0417
     57  CE2      -17.7990  -12.4290   23.0570 C.ar  128  TYR128      0.0417
     58  CZ       -16.8800  -12.9830   22.1640 C.ar  128  TYR128      0.1957
     59  OH       -16.8460  -14.3530   21.9530 O.3   128  TYR128     -0.2866
     60  N        -21.2890  -14.4790   32.6200 N.3   153  GLU153     -0.1245
     61  CA       -22.6560  -14.5320   33.1110 C.3   153  GLU153      0.1567
     62  C        -22.7410  -14.6090   34.6740 C.2   153  GLU153      0.2260
     63  O        -23.7790  -14.3390   35.2050 O.2   153  GLU153     -0.2867
     64  CB       -23.3940  -15.7160   32.5240 C.3   153  GLU153      0.0388
     65  CG       -23.2550  -15.9150   31.0300 C.3   153  GLU153      0.1160
     66  CD       -24.5120  -15.6450   30.2460 C.2   153  GLU153      0.3649
     67  OE1      -25.6330  -15.9650   30.7390 O.co2 153  GLU153     -0.2457
     68  OE2      -24.3540  -15.1570   29.1120 O.co2 153  GLU153     -0.2457
     69  N        -22.8070  -10.3970   26.1240 N.3   166  ASP166     -0.1225
     70  CA       -22.3010  -11.7630   25.8410 C.3   166  ASP166      0.1805
     71  C        -22.9800  -12.4430   24.6560 C.2   166  ASP166      0.2598
     72  O        -24.0760  -12.0430   24.2640 O.2   166  ASP166     -0.2718
     73  CB       -22.5050  -12.6090   27.1110 C.3   166  ASP166      0.1424
     74  CG       -21.6350  -13.8610   27.1420 C.2   166  ASP166      0.3668
     75  OD1      -20.6920  -14.0340   26.3250 O.co2 166  ASP166     -0.2456
     76  OD2      -21.8950  -14.6680   28.0260 O.co2 166  ASP166     -0.2456
     77  N        -22.3390  -13.4720   24.0990 N.am  167  LEU167     -0.1966
     78  CA       -22.9580  -14.2590   23.0290 C.3   167  LEU167      0.1728
     79  C        -24.1070  -15.0670   23.5550 C.2   167  LEU167      0.2616
     80  O        -24.0240  -15.6280   24.6580 O.2   167  LEU167     -0.2715
     81  CB       -21.9820  -15.2220   22.3890 C.3   167  LEU167      0.0311
     82  CG       -20.7930  -14.6500   21.6410 C.3   167  LEU167      0.0022
     83  CD1      -20.0260  -15.8080   21.0170 C.3   167  LEU167      0.0001
     84  CD2      -21.2380  -13.6800   20.5710 C.3   167  LEU167      0.0001
     85  N        -25.1690  -15.1220   22.7740 N.am  168  VAL168     -0.1963
     86  CA       -26.3520  -15.9190   23.0670 C.3   168  VAL168      0.1727
     87  C        -26.6900  -16.7490   21.8120 C.2   168  VAL168      0.2617
     88  O        -26.7060  -16.1900   20.7210 O.2   168  VAL168     -0.2715
     89  CB       -27.5630  -15.0170   23.3700 C.3   168  VAL168      0.0290
     90  CG1      -28.6860  -15.8180   24.0050 C.3   168  VAL168      0.0023
     91  CG2      -27.1990  -13.8360   24.2800 C.3   168  VAL168      0.0023
     92  N        -26.9590  -18.0540   21.9550 N.am  169  SER169     -0.1936
     93  CA       -27.5790  -18.8660   20.8550 C.3   169  SER169      0.2055
     94  C        -28.9300  -19.3880   21.2770 C.2   169  SER169      0.2644
     95  O        -29.9520  -18.9230   20.7940 O.2   169  SER169     -0.2714
     96  CB       -26.7280  -20.0660   20.4280 C.3   169  SER169      0.2130
     97  OG       -25.3870  -19.6970   20.2120 O.3   169  SER169     -0.2179
     98  N        -28.9320  -20.3740   22.1750 N.am  170  SER170     -0.1935
     99  CA       -30.1910  -20.9670   22.6630 C.3   170  SER170      0.2055
    100  C        -30.8550  -20.0970   23.6940 C.2   170  SER170      0.2644
    101  O        -32.0560  -20.1780   23.8760 O.2   170  SER170     -0.2714
    102  CB       -29.9550  -22.3600   23.2750 C.3   170  SER170      0.2130
    103  OG       -28.9940  -22.3320   24.3210 O.3   170  SER170     -0.2179
    104  N        -30.0680  -19.2880   24.3890 N.am  171  GLY171     -0.1939
    105  CA       -30.5720  -18.5380   25.5320 C.3   171  GLY171      0.2014
    106  C        -30.4820  -19.3120   26.8470 C.2   171  GLY171      0.2639
    107  O        -30.8620  -18.7820   27.8800 O.2   171  GLY171     -0.2714
    108  N        -29.9750  -20.5500   26.8150 N.am  172  ALA172     -0.1963
    109  CA       -29.9470  -21.4220   28.0100 C.3   172  ALA172      0.1728
    110  C        -29.0250  -20.9120   29.1220 C.2   172  ALA172      0.2617
    111  O        -29.3350  -21.0390   30.3110 O.2   172  ALA172     -0.2715
    112  CB       -29.5580  -22.8550   27.6220 C.3   172  ALA172      0.0334
    113  N        -27.8880  -20.3530   28.7390 N.am  173  THR173     -0.1937
    114  CA       -26.9240  -19.8560   29.6990 C.3   173  THR173      0.2028
    115  C        -27.4520  -18.6190   30.4390 C.2   173  THR173      0.2642
    116  O        -27.2430  -18.4890   31.6570 O.2   173  THR173     -0.2714
    117  CB       -25.5850  -19.5340   29.0120 C.3   173  THR173      0.1808
    118  OG1      -25.1340  -20.6990   28.3510 O.3   173  THR173     -0.2208
    119  CG2      -24.5240  -19.0930   29.9990 C.3   173  THR173      0.0379
    120  N        -28.1340  -17.7230   29.7230 N.am  174  LEU174     -0.1977
    121  CA       -28.7530  -16.5550   30.3550 C.3   174  LEU174      0.1596
    122  C        -29.8290  -17.0210   31.3060 C.2   174  LEU174      0.2287
    123  O        -29.9180  -16.5250   32.4440 O.2   174  LEU174     -0.2864
    124  CB       -29.3940  -15.6320   29.3220 C.3   174  LEU174      0.0297
    125  CG       -28.4810  -14.8570   28.3890 C.3   174  LEU174      0.0022
    126  CD1      -29.3300  -14.1680   27.3450 C.3   174  LEU174      0.0001
    127  CD2      -27.6660  -13.8300   29.1490 C.3   174  LEU174      0.0001
@<TRIPOS>BOND
     1     1     2    1
     2    43    44    2
     3    43    42    1
     4     2     5    1
     5     2     3    1
     6     4     3    2
     7    41    42    1
     8     5     6    1
     9    17    16    2
    10    24    22    1
    11    42    45    1
    12    28    27    2
    13    45    46    1
    14    45    47    1
    15    16    15    1
    16    21    22    2
    17    21    20    1
    18    22    23    1
    19     8     7    2
    20    27    26    1
    21    27    33   am
    22    26    29    1
    23    26    25    1
    24     6     7    1
    25    29    30    1
    26    36    35    2
    27     7     9   am
    28    19    20    1
    29    19    18    1
    30    35    34    1
    31    15    18    1
    32    15    14    1
    33    13    12    2
    34    33    34    1
    35    34    37    1
    36    30    32   ar
    37    30    31   ar
    38    14    12   am
    39    12    11    1
    40    97    96    1
    41    96    93    1
    42    84    82    1
    43    88    87    2
    44    10    11    1
    45    95    94    2
    46    93    94    1
    47    93    92    1
    48    37    38    1
    49    83    82    1
    50    94    98   am
    51    56    54   ar
    52    56    58   ar
    53    54    53   ar
    54    82    81    1
    55    39    38   ar
    56    38    40   ar
    57    87    92   am
    58    87    86    1
    59    59    58    1
    60    58    57   ar
    61    98    99    1
    62    81    78    1
    63    53    52    1
    64    53    55   ar
    65    99   102    1
    66    99   100    1
    67    52    49    1
    68    85    86    1
    69    85    79   am
    70    78    79    1
    71    78    77    1
    72    57    55   ar
    73    86    89    1
    74   102   103    1
    75    89    90    1
    76    89    91    1
    77    79    80    2
    78    51    50    2
    79    49    50    1
    80    49    48    1
    81   100   101    2
    82   100   104   am
    83    77    71   am
    84    72    71    2
    85   104   105    1
    86    71    70    1
    87   105   106    1
    88    70    69    1
    89    70    73    1
    90    75    74   ar
    91   108   106   am
    92   108   109    1
    93   106   107    2
    94    73    74    1
    95    74    76   ar
    96   126   125    1
    97   112   109    1
    98   109   110    1
    99   118   117    1
   100   125   127    1
   101   125   124    1
   102   113   110   am
   103   113   114    1
   104   117   114    1
   105   117   119    1
   106    68    66   ar
   107   110   111    2
   108   124   121    1
   109   114   115    1
   110   120   121    1
   111   120   115   am
   112    66    67   ar
   113    66    65    1
   114   121   122    1
   115   115   116    2
   116    65    64    1
   117   122   123    2
   118    64    61    1
   119    60    61    1
   120    61    62    1
   121    62    63    2
