@<TRIPOS>MOLECULE
tmp/5uboA01.pdb
 121 117 0 0 0
SMALL
GASTEIGER

@<TRIPOS>ATOM
      1  N         12.0250   -8.5330   57.1430 N.3   122  TYR122     -0.1227
      2  CA        13.4480   -8.6860   56.8890 C.3   122  TYR122      0.1736
      3  C         14.2060   -8.0660   58.0550 C.2   122  TYR122      0.2595
      4  O         13.6690   -7.1620   58.7040 O.2   122  TYR122     -0.2718
      5  CB        13.7870   -8.0540   55.5380 C.3   122  TYR122      0.0548
      6  CG        15.1800   -8.3180   55.0540 C.ar  122  TYR122     -0.0200
      7  CD1       16.2390   -7.5000   55.4410 C.ar  122  TYR122     -0.0009
      8  CD2       15.4390   -9.3310   54.1450 C.ar  122  TYR122     -0.0009
      9  CE1       17.5380   -7.7330   54.9900 C.ar  122  TYR122      0.0417
     10  CE2       16.7340   -9.5750   53.6840 C.ar  122  TYR122      0.0417
     11  CZ        17.7760   -8.7690   54.1020 C.ar  122  TYR122      0.1957
     12  OH        19.0490   -9.0530   53.6720 O.3   122  TYR122     -0.2866
     13  N         15.3690   -8.6380   58.3950 N.am  123  VAL123     -0.1966
     14  CA        16.2220   -8.1730   59.4790 C.3   123  VAL123      0.1727
     15  C         17.5530   -7.7850   58.8660 C.2   123  VAL123      0.2616
     16  O         18.1910   -8.6020   58.2060 O.2   123  VAL123     -0.2715
     17  CB        16.4580   -9.1740   60.6460 C.3   123  VAL123      0.0290
     18  CG1       16.8920   -8.4230   61.8870 C.3   123  VAL123      0.0023
     19  CG2       15.2160   -9.9480   60.9600 C.3   123  VAL123      0.0023
     20  N         18.0240   -6.5790   59.1570 N.am  124  ALA124     -0.1963
     21  CA        19.3080   -6.1260   58.6470 C.3   124  ALA124      0.1728
     22  C         20.1640   -5.6150   59.7990 C.2   124  ALA124      0.2616
     23  O         19.6050   -5.1640   60.7860 O.2   124  ALA124     -0.2715
     24  CB        19.0790   -5.0650   57.6000 C.3   124  ALA124      0.0334
     25  N         21.4860   -5.7570   59.7220 N.am  125  ILE125     -0.1977
     26  CA        22.3960   -5.2970   60.7690 C.3   125  ILE125      0.1596
     27  C         22.4420   -3.7760   60.6950 C.2   125  ILE125      0.2287
     28  O         22.6630   -3.2100   59.6030 O.2   125  ILE125     -0.2864
     29  CB        23.8060   -5.9270   60.6300 C.3   125  ILE125      0.0276
     30  CG1       23.7290   -7.4410   60.9100 C.3   125  ILE125      0.0022
     31  CG2       24.8120   -5.2710   61.6030 C.3   125  ILE125      0.0022
     32  CD1       24.5940   -8.2860   60.0040 C.3   125  ILE125      0.0001
     33  N         25.6200   -2.0880   59.0860 N.3   128  VAL128     -0.1231
     34  CA        25.6930   -2.2120   57.6230 C.3   128  VAL128      0.1692
     35  C         24.8080   -1.1750   56.9360 C.2   128  VAL128      0.2591
     36  O         25.2100   -0.5500   55.9580 O.2   128  VAL128     -0.2718
     37  CB        25.3450   -3.6290   57.1640 C.3   128  VAL128      0.0266
     38  CG1       25.4020   -3.7240   55.6580 C.3   128  VAL128      0.0020
     39  CG2       26.2740   -4.6580   57.8140 C.3   128  VAL128      0.0020
     40  N         23.5930   -0.9840   57.4530 N.am  129  LEU129     -0.1980
     41  CA        22.6810    0.0070   56.8910 C.3   129  LEU129      0.1596
     42  C         23.2900    1.4090   56.9440 C.2   129  LEU129      0.2287
     43  O         23.1340    2.1530   55.9870 O.2   129  LEU129     -0.2864
     44  CB        21.3450   -0.0150   57.6310 C.3   129  LEU129      0.0297
     45  CG        20.5050   -1.2570   57.4010 C.3   129  LEU129      0.0022
     46  CD1       19.2920   -1.2890   58.3570 C.3   129  LEU129      0.0001
     47  CD2       20.0770   -1.4120   55.8880 C.3   129  LEU129      0.0001
     48  N         25.7560    1.6530   54.1070 N.3   132  TYR132     -0.1241
     49  CA        25.0310    1.8310   52.8520 C.3   132  TYR132      0.1605
     50  C         24.5510    3.2520   52.7220 C.2   132  TYR132      0.2264
     51  O         24.6670    3.8340   51.6410 O.2   132  TYR132     -0.2867
     52  CB        23.8350    0.8720   52.7710 C.3   132  TYR132      0.0534
     53  CG        24.1700   -0.6070   52.6430 C.ar  132  TYR132     -0.0201
     54  CD1       25.3930   -1.0300   52.1090 C.ar  132  TYR132     -0.0009
     55  CD2       23.2030   -1.5790   52.8800 C.ar  132  TYR132     -0.0009
     56  CE1       25.6940   -2.3880   51.9900 C.ar  132  TYR132      0.0417
     57  CE2       23.4790   -2.9330   52.7230 C.ar  132  TYR132      0.0417
     58  CZ        24.7310   -3.3370   52.3100 C.ar  132  TYR132      0.1957
     59  OH        24.9750   -4.6930   52.1750 O.3   132  TYR132     -0.2866
     60  N         30.0530   -5.2540   51.3700 N.3   157  GLY157     -0.1210
     61  CA        28.6650   -5.3660   51.7990 C.3   157  GLY157      0.1956
     62  C         28.3520   -6.2180   52.9910 C.2   157  GLY157      0.2611
     63  O         27.2100   -6.1950   53.4490 O.2   157  GLY157     -0.2717
     64  N         29.3560   -6.9560   53.5160 N.am  158  TYR158     -0.1976
     65  CA        29.1240   -7.8710   54.6370 C.3   158  TYR158      0.1639
     66  C         30.0340   -7.6320   55.8040 C.2   158  TYR158      0.2290
     67  O         31.2470   -7.4780   55.6200 O.2   158  TYR158     -0.2864
     68  CB        29.2420   -9.3370   54.1520 C.3   158  TYR158      0.0560
     69  CG        28.1410   -9.6530   53.1780 C.ar  158  TYR158     -0.0198
     70  CD1       26.8920  -10.0740   53.6230 C.ar  158  TYR158     -0.0009
     71  CD2       28.3220   -9.4750   51.8040 C.ar  158  TYR158     -0.0009
     72  CE1       25.8350  -10.2670   52.7320 C.ar  158  TYR158      0.0417
     73  CE2       27.2770   -9.6830   50.9020 C.ar  158  TYR158      0.0417
     74  CZ        26.0410  -10.0840   51.3740 C.ar  158  TYR158      0.1957
     75  OH        25.0210  -10.3280   50.5030 O.3   158  TYR158     -0.2866
     76  N         17.2680    0.6350   51.2840 N.3   335  LEU335     -0.1245
     77  CA        17.2990   -0.7860   50.9970 C.3   335  LEU335      0.1561
     78  C         15.9020   -1.2870   50.6830 C.2   335  LEU335      0.2260
     79  O         15.6800   -1.8550   49.6230 O.2   335  LEU335     -0.2867
     80  CB        17.9030   -1.5810   52.1600 C.3   335  LEU335      0.0270
     81  CG        17.8890   -3.1070   52.0540 C.3   335  LEU335      0.0019
     82  CD1       18.7830   -3.6000   50.8790 C.3   335  LEU335      0.0001
     83  CD2       18.2420   -3.7760   53.4200 C.3   335  LEU335      0.0001
     84  N         14.3810   -0.3430   47.0630 N.3   338  LEU338     -0.1245
     85  CA        15.0170   -0.7720   45.8230 C.3   338  LEU338      0.1561
     86  C         14.1680   -1.7350   45.0250 C.2   338  LEU338      0.2260
     87  O         13.5100   -2.5990   45.5970 O.2   338  LEU338     -0.2867
     88  CB        16.3870   -1.4000   46.0820 C.3   338  LEU338      0.0270
     89  CG        17.4320   -0.5580   46.8060 C.3   338  LEU338      0.0019
     90  CD1       18.7170   -1.3010   46.8790 C.3   338  LEU338      0.0001
     91  CD2       17.6790    0.7640   46.1250 C.3   338  LEU338      0.0001
     92  N         15.0040   -5.3730   45.7120 N.3   341  PHE341     -0.1241
     93  CA        14.8070   -5.8800   47.0510 C.3   341  PHE341      0.1605
     94  C         13.5270   -6.6820   47.2260 C.2   341  PHE341      0.2264
     95  O         13.3430   -7.3420   48.2400 O.2   341  PHE341     -0.2867
     96  CB        14.7570   -4.7120   48.0420 C.3   341  PHE341      0.0534
     97  CG        14.9630   -5.2020   49.4530 C.ar  341  PHE341     -0.0203
     98  CD1       16.1840   -5.7200   49.8400 C.ar  341  PHE341     -0.0042
     99  CD2       13.9210   -5.1890   50.3770 C.ar  341  PHE341     -0.0042
    100  CE1       16.3810   -6.1960   51.1160 C.ar  341  PHE341     -0.0003
    101  CE2       14.1180   -5.6880   51.6680 C.ar  341  PHE341     -0.0003
    102  CZ        15.3570   -6.1630   52.0320 C.ar  341  PHE341     -0.0000
    103  N         13.8950  -10.2000   48.1210 N.3   344  MET344     -0.1245
    104  CA        14.7130  -10.4100   49.3090 C.3   344  MET344      0.1570
    105  C         13.8710  -10.6590   50.5330 C.2   344  MET344      0.2261
    106  O         14.3180  -11.3360   51.4400 O.2   344  MET344     -0.2867
    107  CB        15.6380   -9.2410   49.5940 C.3   344  MET344      0.0387
    108  CG        16.5630   -8.8630   48.4710 C.3   344  MET344      0.0595
    109  SD        17.5260  -10.2500   47.8690 S.3   344  MET344     -0.1393
    110  CE        18.5800  -10.5450   49.3160 C.3   344  MET344      0.0692
    111  N         21.5460  -12.2890   56.0520 N.3   364  PHE364     -0.1241
    112  CA        22.9130  -12.5190   56.5620 C.3   364  PHE364      0.1605
    113  C         23.9550  -11.5320   55.9410 C.2   364  PHE364      0.2264
    114  O         25.1580  -11.6080   56.3120 O.2   364  PHE364     -0.2867
    115  CB        23.3090  -14.0300   56.3750 C.3   364  PHE364      0.0534
    116  CG        23.7440  -14.4040   54.9770 C.ar  364  PHE364     -0.0203
    117  CD1       22.8070  -14.5930   53.9660 C.ar  364  PHE364     -0.0042
    118  CD2       25.0870  -14.5210   54.6650 C.ar  364  PHE364     -0.0042
    119  CE1       23.2080  -14.8750   52.6680 C.ar  364  PHE364     -0.0003
    120  CE2       25.4890  -14.8170   53.3720 C.ar  364  PHE364     -0.0003
    121  CZ        24.5460  -14.9850   52.3790 C.ar  364  PHE364     -0.0000
@<TRIPOS>BOND
     1    86    87    2
     2    86    85    1
     3    92    93    1
     4    85    88    1
     5    85    84    1
     6    88    89    1
     7    91    89    1
     8    89    90    1
     9    93    94    1
    10    93    96    1
    11    94    95    2
    12   109   108    1
    13   109   110    1
    14    96    97    1
    15   103   104    1
    16   108   107    1
    17   104   107    1
    18   104   105    1
    19    97    98   ar
    20    97    99   ar
    21    79    78    2
    22    98   100   ar
    23    99   101   ar
    24    75    74    1
    25   105   106    2
    26    78    77    1
    27    82    81    1
    28    73    74   ar
    29    73    71   ar
    30    77    76    1
    31    77    80    1
    32   100   102   ar
    33    60    61    1
    34    74    72   ar
    35    51    50    2
    36   101   102   ar
    37    61    62    1
    38    71    69   ar
    39    56    54   ar
    40    56    58   ar
    41    81    80    1
    42    81    83    1
    43    54    53   ar
    44    59    58    1
    45    58    57   ar
    46   121   119   ar
    47   121   120   ar
    48    53    52    1
    49    53    55   ar
    50   119   117   ar
    51    50    49    1
    52    57    55   ar
    53    72    70   ar
    54    52    49    1
    55    49    48    1
    56    62    63    2
    57    62    64   am
    58    69    70   ar
    59    69    68    1
    60   120   118   ar
    61    64    65    1
    62    12    11    1
    63    10    11   ar
    64    10     8   ar
    65   117   116   ar
    66    11     9   ar
    67     8     6   ar
    68    68    65    1
    69    65    66    1
    70   118   116   ar
    71   116   115    1
    72     9     7   ar
    73     6     7   ar
    74     6     5    1
    75     5     2    1
    76    67    66    2
    77    38    37    1
    78    47    45    1
    79   113   114    2
    80   113   112    1
    81    36    35    2
    82    43    42    2
    83   111   112    1
    84   115   112    1
    85     2     1    1
    86     2     3    1
    87    41    42    1
    88    41    40    1
    89    41    44    1
    90    35    40   am
    91    35    34    1
    92    37    34    1
    93    37    39    1
    94    45    44    1
    95    45    46    1
    96    24    21    1
    97    34    33    1
    98     3    13   am
    99     3     4    2
   100    16    15    2
   101    13    14    1
   102    21    20    1
   103    21    22    1
   104    15    20   am
   105    15    14    1
   106    14    17    1
   107    28    27    2
   108    25    22   am
   109    25    26    1
   110    22    23    2
   111    32    30    1
   112    29    26    1
   113    29    30    1
   114    29    31    1
   115    17    19    1
   116    17    18    1
   117    27    26    1
