@<TRIPOS>MOLECULE
tmp/5ubrA00.pdb
 181 169 0 0 0
SMALL
GASTEIGER

@<TRIPOS>ATOM
      1  N        -18.9390   11.0740   45.8510 N.3   619  GLU619     -0.1245
      2  CA       -18.7490   11.8400   44.6100 C.3   619  GLU619      0.1567
      3  C        -18.5710   10.9440   43.3740 C.2   619  GLU619      0.2260
      4  O        -18.6640   11.4290   42.2380 O.2   619  GLU619     -0.2867
      5  CB       -17.6130   12.8470   44.7720 C.3   619  GLU619      0.0388
      6  CG       -17.9070   13.9320   45.8040 C.3   619  GLU619      0.1160
      7  CD       -19.0990   14.8240   45.5000 C.2   619  GLU619      0.3649
      8  OE1      -19.2240   15.2850   44.3420 O.co2 619  GLU619     -0.2457
      9  OE2      -19.9140   15.0580   46.4220 O.co2 619  GLU619     -0.2457
     10  N        -19.5660    8.0690   40.5790 N.3   621  ARG621     -0.1245
     11  CA       -20.8100    7.7530   39.8600 C.3   621  ARG621      0.1563
     12  C        -20.5970    6.6820   38.8120 C.2   621  ARG621      0.2260
     13  O        -19.4920    6.5400   38.2720 O.2   621  ARG621     -0.2867
     14  CB       -21.3810    9.0020   39.1200 C.3   621  ARG621      0.0307
     15  CG       -21.6330   10.2540   39.9540 C.3   621  ARG621      0.0489
     16  CD       -23.0160   10.2950   40.5860 C.3   621  ARG621      0.2205
     17  NE       -23.1750   11.4560   41.4690 N.pl3 621  ARG621     -0.0865
     18  CZ       -22.9880   11.4410   42.7880 C.cat 621  ARG621      0.5346
     19  NH1      -22.6500   10.3130   43.4070 N.pl3 621  ARG621      0.1354
     20  NH2      -23.1460   12.5510   43.4990 N.pl3 621  ARG621      0.1354
     21  N        -21.7080    6.3000   35.2450 N.3   623  MET623     -0.1245
     22  CA       -22.2010    7.1300   34.1550 C.3   623  MET623      0.1570
     23  C        -23.2060    6.3500   33.3000 C.2   623  MET623      0.2261
     24  O        -23.0410    5.1420   33.0960 O.2   623  MET623     -0.2867
     25  CB       -21.0320    7.5980   33.3060 C.3   623  MET623      0.0387
     26  CG       -20.1700    8.5940   33.9970 C.3   623  MET623      0.0595
     27  SD       -18.7650    8.9600   32.9570 S.3   623  MET623     -0.1393
     28  CE       -19.4330   10.3310   31.9580 C.3   623  MET623      0.0692
     29  N        -23.7550    5.9850   30.2150 N.3   625  SER625     -0.1217
     30  CA       -23.1900    5.3080   29.0380 C.3   625  SER625      0.1889
     31  C        -23.2900    3.7710   29.0890 C.2   625  SER625      0.2288
     32  O        -23.3720    3.1760   30.1660 O.2   625  SER625     -0.2866
     33  CB       -21.7530    5.7640   28.7940 C.3   625  SER625      0.2089
     34  OG       -21.5350    7.0830   29.2770 O.3   625  SER625     -0.2183
     35  N        -19.3910    3.3370   32.5960 N.3   629  PRO629     -0.2116
     36  CA       -18.1140    3.9390   33.0160 C.3   629  PRO629      0.1372
     37  C        -18.1780    4.5760   34.3950 C.2   629  PRO629      0.2244
     38  O        -19.1920    5.1870   34.7610 O.2   629  PRO629     -0.2868
     39  CB       -17.8260    4.9880   31.9260 C.3   629  PRO629      0.0268
     40  CG       -18.8710    4.8030   30.9010 C.3   629  PRO629      0.0207
     41  CD       -20.0280    4.1670   31.5560 C.3   629  PRO629      0.0892
     42  N        -17.1130    7.3270   37.0400 N.3   631  TRP631     -0.1241
     43  CA       -16.7140    8.7020   37.2530 C.3   631  TRP631      0.1605
     44  C        -16.1880    8.6490   38.6900 C.2   631  TRP631      0.2264
     45  O        -16.9730    8.5040   39.6170 O.2   631  TRP631     -0.2867
     46  CB       -17.9300    9.6320   37.1160 C.3   631  TRP631      0.0550
     47  CG       -17.6300   11.0840   37.3820 C.ar  631  TRP631      0.0003
     48  CD1      -17.3810   11.6620   38.5920 C.ar  631  TRP631      0.0946
     49  CD2      -17.6160   12.1480   36.4170 C.ar  631  TRP631      0.0152
     50  NE1      -17.1830   13.0150   38.4390 N.ar  631  TRP631     -0.2442
     51  CE2      -17.3380   13.3440   37.1170 C.ar  631  TRP631      0.0810
     52  CE3      -17.8130   12.2090   35.0260 C.ar  631  TRP631      0.0012
     53  CZ2      -17.2700   14.5900   36.4780 C.ar  631  TRP631      0.0191
     54  CZ3      -17.7300   13.4430   34.3890 C.ar  631  TRP631      0.0001
     55  CH2      -17.4590   14.6120   35.1120 C.ar  631  TRP631      0.0015
     56  N        -10.3990   14.1020   39.6660 N.3   649  GLU649     -0.1245
     57  CA       -11.4220   13.2300   39.0880 C.3   649  GLU649      0.1567
     58  C        -10.9480   12.5640   37.8060 C.2   649  GLU649      0.2260
     59  O        -10.2890   13.2120   36.9840 O.2   649  GLU649     -0.2867
     60  CB       -12.7050   13.9990   38.7780 C.3   649  GLU649      0.0388
     61  CG       -13.4290   14.5560   39.9920 C.3   649  GLU649      0.1160
     62  CD       -14.6650   15.3480   39.6180 C.2   649  GLU649      0.3649
     63  OE1      -15.7720   14.9640   40.0590 O.co2 649  GLU649     -0.2457
     64  OE2      -14.5330   16.3200   38.8380 O.co2 649  GLU649     -0.2457
     65  N        -12.2640    9.3530   34.7060 N.3   651  ILE651     -0.1245
     66  CA       -13.2460    8.4170   34.1810 C.3   651  ILE651      0.1561
     67  C        -12.4980    7.1020   33.8660 C.2   651  ILE651      0.2260
     68  O        -11.4730    7.1230   33.1930 O.2   651  ILE651     -0.2867
     69  CB       -14.0410    8.9470   32.9550 C.3   651  ILE651      0.0252
     70  CG1      -14.8000   10.2430   33.2970 C.3   651  ILE651      0.0019
     71  CG2      -15.0020    7.8550   32.3810 C.3   651  ILE651      0.0019
     72  CD1      -15.4590   10.9750   32.1010 C.3   651  ILE651      0.0001
     73  N        -13.1740    3.4120   32.1520 N.3   653  LYS653     -0.1245
     74  CA       -14.0630    2.7640   31.2190 C.3   653  LYS653      0.1561
     75  C        -13.5030    1.4330   30.8440 C.2   653  LYS653      0.2260
     76  O        -12.3880    1.3490   30.3400 O.2   653  LYS653     -0.2867
     77  CB       -14.2490    3.6360   29.9550 C.3   653  LYS653      0.0271
     78  CG       -15.4540    3.2340   29.0880 C.3   653  LYS653      0.0035
     79  CD       -15.5510    4.1440   27.8990 C.3   653  LYS653      0.0206
     80  CE       -16.9270    4.1250   27.3160 C.3   653  LYS653      0.1093
     81  NZ       -17.0310    5.0600   26.1610 N.3   653  LYS653     -0.1314
     82  N         -8.0350   16.1610   25.5410 N.3   687  TYR687     -0.1241
     83  CA        -8.1040   15.5900   26.8910 C.3   687  TYR687      0.1605
     84  C         -7.2880   14.2720   26.9690 C.2   687  TYR687      0.2264
     85  O         -7.0600   13.5930   25.9480 O.2   687  TYR687     -0.2867
     86  CB        -9.5870   15.3960   27.3510 C.3   687  TYR687      0.0534
     87  CG       -10.4460   14.6060   26.3800 C.ar  687  TYR687     -0.0201
     88  CD1      -10.3730   13.2160   26.3250 C.ar  687  TYR687     -0.0009
     89  CD2      -11.3100   15.2490   25.4980 C.ar  687  TYR687     -0.0009
     90  CE1      -11.1250   12.4850   25.4080 C.ar  687  TYR687      0.0417
     91  CE2      -12.0640   14.5290   24.5670 C.ar  687  TYR687      0.0417
     92  CZ       -11.9570   13.1440   24.5190 C.ar  687  TYR687      0.1957
     93  OH       -12.6700   12.3980   23.6060 O.3   687  TYR687     -0.2866
     94  N         -9.9190    8.2380   31.0460 N.3   699  ILE699     -0.1231
     95  CA       -10.2740    9.4590   30.3380 C.3   699  ILE699      0.1692
     96  C        -10.2420   10.5950   31.3340 C.2   699  ILE699      0.2592
     97  O        -10.7660   10.5010   32.4570 O.2   699  ILE699     -0.2718
     98  CB       -11.6280    9.3760   29.5740 C.3   699  ILE699      0.0266
     99  CG1      -11.5500    8.3460   28.4350 C.3   699  ILE699      0.0019
    100  CG2      -12.0570   10.7260   29.0170 C.3   699  ILE699      0.0020
    101  CD1      -12.2640    7.1220   28.7450 C.3   699  ILE699      0.0001
    102  N         -9.5930   11.6660   30.9220 N.am  700  GLU700     -0.1966
    103  CA        -9.4910   12.8280   31.7500 C.3   700  GLU700      0.1733
    104  C        -10.8490   13.5490   31.8000 C.2   700  GLU700      0.2616
    105  O        -11.5180   13.7500   30.7680 O.2   700  GLU700     -0.2715
    106  CB        -8.3710   13.7280   31.2330 C.3   700  GLU700      0.0429
    107  CG        -8.1920   15.0100   32.0270 C.3   700  GLU700      0.1163
    108  CD        -7.5300   16.1170   31.2490 C.2   700  GLU700      0.3649
    109  OE1       -6.7670   15.8130   30.3020 O.co2 700  GLU700     -0.2457
    110  OE2       -7.8020   17.2960   31.5680 O.co2 700  GLU700     -0.2457
    111  N        -11.2510   13.8840   33.0270 N.am  701  VAL701     -0.1963
    112  CA       -12.4370   14.6630   33.3220 C.3   701  VAL701      0.1727
    113  C        -12.1860   16.1270   32.8820 C.2   701  VAL701      0.2616
    114  O        -11.1300   16.6970   33.1750 O.2   701  VAL701     -0.2715
    115  CB       -12.8130   14.5140   34.8270 C.3   701  VAL701      0.0290
    116  CG1      -13.5610   15.7330   35.3630 C.3   701  VAL701      0.0023
    117  CG2      -13.6300   13.2440   35.0540 C.3   701  VAL701      0.0023
    118  N        -13.1370   16.6990   32.1290 N.am  702  VAL702     -0.1977
    119  CA       -13.1190   18.1030   31.7020 C.3   702  VAL702      0.1596
    120  C        -14.1870   18.8050   32.5730 C.2   702  VAL702      0.2287
    121  O        -15.3800   18.4770   32.4810 O.2   702  VAL702     -0.2864
    122  CB       -13.3580   18.2840   30.1720 C.3   702  VAL702      0.0276
    123  CG1      -13.5540   19.7600   29.8070 C.3   702  VAL702      0.0022
    124  CG2      -12.2230   17.6610   29.3560 C.3   702  VAL702      0.0022
    125  N        -18.1210   21.5530   31.6960 N.3   705  SER705     -0.1217
    126  CA       -18.4200   21.2890   30.2940 C.3   705  SER705      0.1889
    127  C        -19.8020   20.7020   30.1480 C.2   705  SER705      0.2288
    128  O        -20.2980   20.0610   31.0700 O.2   705  SER705     -0.2866
    129  CB       -17.3510   20.4150   29.6380 C.3   705  SER705      0.2089
    130  OG       -17.0600   19.2360   30.3710 O.3   705  SER705     -0.2183
    131  N        -22.7230   19.0610   26.9930 N.3   707  THR707     -0.1218
    132  CA       -23.0160   18.6680   25.6100 C.3   707  THR707      0.1862
    133  C        -23.9420   19.7200   24.9790 C.2   707  THR707      0.2287
    134  O        -24.5770   20.4690   25.7240 O.2   707  THR707     -0.2866
    135  CB       -23.5880   17.2400   25.5270 C.3   707  THR707      0.1770
    136  OG1      -24.9040   17.2110   26.0700 O.3   707  THR707     -0.2211
    137  CG2      -22.7100   16.2040   26.2070 C.3   707  THR707      0.0375
    138  N        -27.5670   19.0520   26.2980 N.3   710  GLN710     -0.1245
    139  CA       -27.8280   19.5600   27.6550 C.3   710  GLN710      0.1566
    140  C        -28.2640   21.0270   27.6040 C.2   710  GLN710      0.2260
    141  O        -29.2690   21.3750   28.2170 O.2   710  GLN710     -0.2867
    142  CB       -26.5940   19.3800   28.5670 C.3   710  GLN710      0.0367
    143  CG       -26.2650   17.9140   28.8830 C.3   710  GLN710      0.0905
    144  CD       -25.0080   17.7040   29.7060 C.2   710  GLN710      0.2608
    145  OE1      -23.9050   18.1070   29.3370 O.2   710  GLN710     -0.2717
    146  NE2      -25.1340   16.9790   30.8060 N.am  710  GLN710     -0.0878
    147  N        -19.1370   19.1830   22.9440 N.3   765  MET765     -0.1245
    148  CA       -19.2780   19.7960   24.2530 C.3   765  MET765      0.1570
    149  C        -18.7690   21.2360   24.2330 C.2   765  MET765      0.2261
    150  O        -17.9470   21.5870   23.3860 O.2   765  MET765     -0.2867
    151  CB       -18.6110   18.9450   25.3470 C.3   765  MET765      0.0387
    152  CG       -19.3120   17.6220   25.5780 C.3   765  MET765      0.0595
    153  SD       -18.5990   16.6760   26.9240 S.3   765  MET765     -0.1393
    154  CE       -19.4670   17.4360   28.3260 C.3   765  MET765      0.0692
    155  N        -15.5040   21.7880   22.0100 N.3   773  PHE773     -0.1241
    156  CA       -14.6370   20.6260   21.7530 C.3   773  PHE773      0.1605
    157  C        -15.4250   19.3590   21.4300 C.2   773  PHE773      0.2264
    158  O        -16.6360   19.3000   21.6390 O.2   773  PHE773     -0.2867
    159  CB       -13.6310   20.4070   22.9030 C.3   773  PHE773      0.0534
    160  CG       -14.2110   19.9300   24.2100 C.ar  773  PHE773     -0.0203
    161  CD1      -14.7960   20.8290   25.1020 C.ar  773  PHE773     -0.0042
    162  CD2      -14.1230   18.5910   24.5810 C.ar  773  PHE773     -0.0042
    163  CE1      -15.3240   20.3860   26.3130 C.ar  773  PHE773     -0.0003
    164  CE2      -14.6500   18.1490   25.7940 C.ar  773  PHE773     -0.0003
    165  CZ       -15.2390   19.0480   26.6550 C.ar  773  PHE773     -0.0000
    166  N        -15.7630   14.9720   21.5690 N.3   775  ILE775     -0.1231
    167  CA       -15.4980   13.7670   22.3270 C.3   775  ILE775      0.1692
    168  C        -15.7890   12.5730   21.4160 C.2   775  ILE775      0.2592
    169  O        -16.4470   12.7380   20.3970 O.2   775  ILE775     -0.2718
    170  CB       -16.3160   13.7520   23.6490 C.3   775  ILE775      0.0266
    171  CG1      -17.8350   13.8370   23.3990 C.3   775  ILE775      0.0019
    172  CG2      -15.8300   14.8470   24.6290 C.3   775  ILE775      0.0020
    173  CD1      -18.7990   13.4190   24.6770 C.3   775  ILE775      0.0001
    174  N        -15.3170   11.3830   21.7910 N.am  776  ASP776     -0.1974
    175  CA       -15.4910   10.1240   21.0740 C.3   776  ASP776      0.1709
    176  C        -14.9300   10.1510   19.6430 C.2   776  ASP776      0.2293
    177  O        -15.6090   10.4920   18.6620 O.2   776  ASP776     -0.2864
    178  CB       -16.9340    9.6080   21.1130 C.3   776  ASP776      0.1436
    179  CG       -16.9400    8.1020   21.2430 C.2   776  ASP776      0.3671
    180  OD1      -16.5800    7.4160   20.2480 O.co2 776  ASP776     -0.2456
    181  OD2      -17.1750    7.6070   22.3750 O.co2 776  ASP776     -0.2456
@<TRIPOS>BOND
     1   177   176    2
     2   176   175    1
     3   180   179   ar
     4   169   168    2
     5   175   178    1
     6   175   174    1
     7   178   179    1
     8   179   181   ar
     9   168   174   am
    10   168   167    1
    11   157   158    2
    12   157   156    1
    13   166   167    1
    14   156   155    1
    15   156   159    1
    16   167   170    1
    17   159   160    1
    18   147   148    1
    19   150   149    2
    20   171   170    1
    21   171   173    1
    22    93    92    1
    23   170   172    1
    24   160   162   ar
    25   160   161   ar
    26   149   148    1
    27   148   151    1
    28    92    91   ar
    29    92    90   ar
    30    91    89   ar
    31   162   164   ar
    32   133   132    1
    33   133   134    2
    34   161   163   ar
    35   151   152    1
    36    90    88   ar
    37    89    87   ar
    38   135   132    1
    39   135   136    1
    40   135   137    1
    41    82    83    1
    42   152   153    1
    43   132   131    1
    44   164   165   ar
    45    85    84    2
    46    81    80    1
    47   138   139    1
    48   163   165   ar
    49    88    87   ar
    50    87    86    1
    51    83    84    1
    52    83    86    1
    53   153   154    1
    54    80    79    1
    55   140   139    1
    56   140   141    2
    57   139   142    1
    58    79    78    1
    59    99   101    1
    60    99    98    1
    61   142   143    1
    62    33    30    1
    63    33    34    1
    64   143   144    1
    65   100    98    1
    66    30    31    1
    67    30    29    1
    68    78    77    1
    69    31    32    2
    70   145   144    2
    71   124   122    1
    72    98    95    1
    73   129   126    1
    74   129   130    1
    75   144   146   am
    76   123   122    1
    77    77    74    1
    78   127   126    1
    79   127   128    2
    80   122   119    1
    81   126   125    1
    82   109   108   ar
    83    95    94    1
    84    95    96    1
    85    76    75    2
    86   105   104    2
    87    75    74    1
    88    40    41    1
    89    40    39    1
    90   102    96   am
    91   102   103    1
    92    74    73    1
    93   106   103    1
    94   106   107    1
    95   108   110   ar
    96   108   107    1
    97    96    97    2
    98    41    35    1
    99   119   118    1
   100   119   120    1
   101   103   104    1
   102   104   111   am
   103    39    36    1
   104    28    27    1
   105    72    70    1
   106   118   113   am
   107    71    69    1
   108   121   120    2
   109    35    36    1
   110   113   114    2
   111   113   112    1
   112    69    70    1
   113    69    66    1
   114    27    26    1
   115    36    37    1
   116   111   112    1
   117    24    23    2
   118    68    67    2
   119    23    22    1
   120    25    26    1
   121    25    22    1
   122   112   115    1
   123    67    66    1
   124    22    21    1
   125    66    65    1
   126    54    52   ar
   127    54    55   ar
   128    37    38    2
   129   115   117    1
   130   115   116    1
   131    52    49   ar
   132    55    53   ar
   133    49    51   ar
   134    49    47   ar
   135    53    51   ar
   136    59    58    2
   137    42    43    1
   138    46    43    1
   139    46    47    1
   140    51    50   ar
   141    43    44    1
   142    47    48   ar
   143    58    57    1
   144    13    12    2
   145    50    48   ar
   146    44    45    2
   147    60    57    1
   148    60    61    1
   149    12    11    1
   150    64    62   ar
   151    57    56    1
   152    14    11    1
   153    14    15    1
   154    62    61    1
   155    62    63   ar
   156    11    10    1
   157    15    16    1
   158    16    17    1
   159    17    18    2
   160     4     3    2
   161    18    19    1
   162    18    20    1
   163     3     2    1
   164     8     7   ar
   165     2     5    1
   166     2     1    1
   167     5     6    1
   168     7     6    1
   169     7     9   ar
