@<TRIPOS>MOLECULE
tmp/5ubtA00.pdb
 202 192 0 0 0
SMALL
GASTEIGER

@<TRIPOS>ATOM
      1  N         48.8560   21.5260   26.0830 N.3   655  GLN655     -0.1245
      2  CA        47.7790   21.1880   27.0230 C.3   655  GLN655      0.1566
      3  C         46.9960   19.9170   26.6170 C.2   655  GLN655      0.2260
      4  O         46.3960   19.2760   27.4830 O.2   655  GLN655     -0.2867
      5  CB        46.8200   22.3760   27.1880 C.3   655  GLN655      0.0367
      6  CG        47.4250   23.5840   27.8970 C.3   655  GLN655      0.0905
      7  CD        46.5320   24.8040   27.8300 C.2   655  GLN655      0.2608
      8  OE1       45.3600   24.7840   28.2300 O.2   655  GLN655     -0.2717
      9  NE2       47.0780   25.9110   27.3510 N.am  655  GLN655     -0.0878
     10  N         46.0640   16.1340   25.7380 N.3   657  THR657     -0.1203
     11  CA        46.4470   14.8310   26.3080 C.3   657  THR657      0.1994
     12  C         45.4180   13.7430   25.9110 C.2   657  THR657      0.2618
     13  O         44.6270   13.9310   24.9810 O.2   657  THR657     -0.2717
     14  CB        46.5630   14.9260   27.8620 C.3   657  THR657      0.1784
     15  OG1       46.7450   16.2770   28.3050 O.3   657  THR657     -0.2211
     16  CG2       47.6590   14.0360   28.4230 C.3   657  THR657      0.0376
     17  N         45.4580   12.6060   26.6180 N.am  658  PHE658     -0.1961
     18  CA        44.5350   11.4850   26.5290 C.3   658  PHE658      0.1771
     19  C         44.3820   10.9140   27.9380 C.2   658  PHE658      0.2619
     20  O         45.2730   11.0960   28.7710 O.2   658  PHE658     -0.2715
     21  CB        44.9560   10.4310   25.4880 C.3   658  PHE658      0.0574
     22  CG        46.1880    9.6160   25.7980 C.ar  658  PHE658     -0.0200
     23  CD1       47.4410   10.0250   25.3570 C.ar  658  PHE658     -0.0042
     24  CD2       46.0890    8.4050   26.4750 C.ar  658  PHE658     -0.0042
     25  CE1       48.5800    9.2550   25.6180 C.ar  658  PHE658     -0.0003
     26  CE2       47.2290    7.6420   26.7500 C.ar  658  PHE658     -0.0003
     27  CZ        48.4660    8.0690   26.3130 C.ar  658  PHE658     -0.0000
     28  N         43.2440   10.2790   28.2260 N.am  659  MET659     -0.1977
     29  CA        42.9720    9.7460   29.5570 C.3   659  MET659      0.1605
     30  C         43.1900    8.2460   29.6330 C.2   659  MET659      0.2287
     31  O         42.7530    7.5130   28.7440 O.2   659  MET659     -0.2864
     32  CB        41.5730   10.1590   30.0320 C.3   659  MET659      0.0413
     33  CG        41.4870   11.6330   30.3830 C.3   659  MET659      0.0598
     34  SD        39.8600   12.3740   30.1160 S.3   659  MET659     -0.1393
     35  CE        39.0100   11.8270   31.5770 C.3   659  MET659      0.0692
     36  N         42.0590    5.2950   30.4500 N.3   661  SER661     -0.1217
     37  CA        40.7960    4.6150   30.7390 C.3   661  SER661      0.1889
     38  C         40.4430    3.5520   29.6880 C.2   661  SER661      0.2288
     39  O         41.1470    3.4230   28.6800 O.2   661  SER661     -0.2866
     40  CB        39.6620    5.6230   30.9350 C.3   661  SER661      0.2089
     41  OG        39.0670    6.0360   29.7160 O.3   661  SER661     -0.2183
     42  N         40.2600    8.2120   26.0020 N.3   665  PRO665     -0.2116
     43  CA        39.6790    9.3990   25.3490 C.3   665  PRO665      0.1372
     44  C         40.6040   10.6020   25.3150 C.2   665  PRO665      0.2244
     45  O         41.3130   10.8570   26.2810 O.2   665  PRO665     -0.2868
     46  CB        38.4230    9.6880   26.1880 C.3   665  PRO665      0.0268
     47  CG        38.3880    8.6200   27.2700 C.3   665  PRO665      0.0207
     48  CD        39.7720    8.1030   27.3880 C.3   665  PRO665      0.0892
     49  N         41.8430   14.4450   25.4470 N.3   667  TRP667     -0.1241
     50  CA        41.6480   15.7030   26.1800 C.3   667  TRP667      0.1605
     51  C         42.1730   16.8130   25.2650 C.2   667  TRP667      0.2264
     52  O         43.3840   16.9130   25.0870 O.2   667  TRP667     -0.2867
     53  CB        42.4510   15.6570   27.5040 C.3   667  TRP667      0.0550
     54  CG        42.2490   16.8320   28.4120 C.ar  667  TRP667      0.0003
     55  CD1       42.8970   18.0320   28.3600 C.ar  667  TRP667      0.0946
     56  CD2       41.3810   16.8930   29.5510 C.ar  667  TRP667      0.0152
     57  NE1       42.4590   18.8520   29.3730 N.ar  667  TRP667     -0.2442
     58  CE2       41.5290   18.1770   30.1230 C.ar  667  TRP667      0.0810
     59  CE3       40.4780   15.9890   30.1400 C.ar  667  TRP667      0.0012
     60  CZ2       40.8030   18.5840   31.2500 C.ar  667  TRP667      0.0191
     61  CZ3       39.7510   16.3990   31.2490 C.ar  667  TRP667      0.0001
     62  CH2       39.9100   17.6860   31.7870 C.ar  667  TRP667      0.0015
     63  N         36.2930   16.7400   25.2250 N.3   681  ILE681     -0.1245
     64  CA        36.7980   15.3600   25.3110 C.3   681  ILE681      0.1561
     65  C         36.2790   14.5140   24.1460 C.2   681  ILE681      0.2260
     66  O         35.0690   14.3160   24.0490 O.2   681  ILE681     -0.2867
     67  CB        36.5260   14.6830   26.6940 C.3   681  ILE681      0.0252
     68  CG1       37.1680   15.4810   27.8450 C.3   681  ILE681      0.0019
     69  CG2       37.0210   13.2150   26.7050 C.3   681  ILE681      0.0019
     70  CD1       36.5160   15.2990   29.2140 C.3   681  ILE681      0.0001
     71  N         35.7360   11.0170   22.7770 N.3   683  LYS683     -0.1245
     72  CA        35.6950    9.6290   23.2080 C.3   683  LYS683      0.1561
     73  C         35.2160    8.7410   22.0720 C.2   683  LYS683      0.2260
     74  O         34.2180    9.0620   21.4240 O.2   683  LYS683     -0.2867
     75  CB        34.7680    9.4960   24.4280 C.3   683  LYS683      0.0271
     76  CG        35.0080    8.2550   25.2860 C.3   683  LYS683      0.0035
     77  CD        34.0370    8.1970   26.4520 C.3   683  LYS683      0.0206
     78  CE        34.2360    6.9710   27.2900 C.3   683  LYS683      0.1093
     79  NZ        33.1940    6.8660   28.3420 N.3   683  LYS683     -0.1314
     80  N         27.5790    6.7270   23.9480 N.3   688  LEU688     -0.1245
     81  CA        27.3830    7.8640   24.8540 C.3   688  LEU688      0.1561
     82  C         25.9350    8.3720   24.9700 C.2   688  LEU688      0.2260
     83  O         25.6880    9.4380   25.5500 O.2   688  LEU688     -0.2867
     84  CB        28.3180    9.0040   24.4360 C.3   688  LEU688      0.0270
     85  CG        29.6900    8.9850   25.0780 C.3   688  LEU688      0.0019
     86  CD1       30.6660    9.7660   24.2560 C.3   688  LEU688      0.0001
     87  CD2       29.6400    9.5290   26.5020 C.3   688  LEU688      0.0001
     88  N         24.4580    8.3010   28.7160 N.3   691  ASP691     -0.1239
     89  CA        25.0200    9.4360   29.4470 C.3   691  ASP691      0.1674
     90  C         24.3170   10.7150   29.0430 C.2   691  ASP691      0.2266
     91  O         24.0180   11.5280   29.9150 O.2   691  ASP691     -0.2867
     92  CB        26.5320    9.5580   29.2160 C.3   691  ASP691      0.1410
     93  CG        27.3230    8.3320   29.6200 C.2   691  ASP691      0.3668
     94  OD1       27.1670    7.2720   28.9570 O.co2 691  ASP691     -0.2456
     95  OD2       28.1160    8.4330   30.5790 O.co2 691  ASP691     -0.2456
     96  N         27.0080   19.5520   32.1910 N.3   717  TYR717     -0.1241
     97  CA        28.0360   19.6070   31.1510 C.3   717  TYR717      0.1605
     98  C         27.4870   18.8810   29.9250 C.2   717  TYR717      0.2264
     99  O         26.6630   17.9650   30.0650 O.2   717  TYR717     -0.2867
    100  CB        29.3720   18.9930   31.6330 C.3   717  TYR717      0.0534
    101  CG        29.2580   17.5550   32.0880 C.ar  717  TYR717     -0.0201
    102  CD1       28.9340   17.2420   33.4110 C.ar  717  TYR717     -0.0009
    103  CD2       29.4480   16.5040   31.1960 C.ar  717  TYR717     -0.0009
    104  CE1       28.8160   15.9190   33.8330 C.ar  717  TYR717      0.0417
    105  CE2       29.3170   15.1780   31.6030 C.ar  717  TYR717      0.0417
    106  CZ        29.0020   14.8910   32.9230 C.ar  717  TYR717      0.1957
    107  OH        28.8720   13.5800   33.3100 O.3   717  TYR717     -0.2866
    108  N         32.3630   15.2600   25.1060 N.3   729  ILE729     -0.1231
    109  CA        31.9510   15.5850   26.4800 C.3   729  ILE729      0.1692
    110  C         32.6280   16.8960   26.8490 C.2   729  ILE729      0.2592
    111  O         33.8190   17.0570   26.6010 O.2   729  ILE729     -0.2718
    112  CB        32.2870   14.4510   27.4950 C.3   729  ILE729      0.0266
    113  CG1       31.6120   13.0990   27.1250 C.3   729  ILE729      0.0019
    114  CG2       31.9080   14.8600   28.9150 C.3   729  ILE729      0.0020
    115  CD1       32.5630   12.0180   26.6580 C.3   729  ILE729      0.0001
    116  N         31.8780   17.8350   27.4100 N.am  730  GLU730     -0.1966
    117  CA        32.4000   19.1430   27.7990 C.3   730  GLU730      0.1733
    118  C         33.3170   19.0610   29.0200 C.2   730  GLU730      0.2616
    119  O         32.9550   18.4510   30.0250 O.2   730  GLU730     -0.2715
    120  CB        31.2540   20.1180   28.0810 C.3   730  GLU730      0.0429
    121  CG        31.7070   21.5640   28.1150 C.3   730  GLU730      0.1163
    122  CD        30.7950   22.5510   28.8170 C.2   730  GLU730      0.3649
    123  OE1       29.6240   22.2050   29.1100 O.co2 730  GLU730     -0.2457
    124  OE2       31.2570   23.6920   29.0490 O.co2 730  GLU730     -0.2457
    125  N         34.4950   19.7040   28.9280 N.am  731  VAL731     -0.1963
    126  CA        35.4720   19.7910   30.0080 C.3   731  VAL731      0.1727
    127  C         34.9560   20.8220   30.9940 C.2   731  VAL731      0.2616
    128  O         34.6710   21.9610   30.6100 O.2   731  VAL731     -0.2715
    129  CB        36.9030   20.1420   29.4960 C.3   731  VAL731      0.0290
    130  CG1       37.8100   20.6480   30.6170 C.3   731  VAL731      0.0023
    131  CG2       37.5460   18.9560   28.7910 C.3   731  VAL731      0.0023
    132  N         34.7940   20.3990   32.2520 N.am  732  VAL732     -0.1977
    133  CA        34.3960   21.2560   33.3640 C.3   732  VAL732      0.1596
    134  C         35.7300   21.7180   33.9450 C.2   732  VAL732      0.2287
    135  O         36.4690   20.9080   34.5200 O.2   732  VAL732     -0.2864
    136  CB        33.5060   20.5160   34.4020 C.3   732  VAL732      0.0276
    137  CG1       33.1460   21.5140   35.4890 C.3   732  VAL732      0.0022
    138  CG2       32.2360   19.9810   33.7310 C.3   732  VAL732      0.0022
    139  N         38.3270   21.4930   38.1990 N.3   735  SER735     -0.1202
    140  CA        37.6590   20.4010   38.9250 C.3   735  SER735      0.2020
    141  C         38.3930   19.0580   38.8850 C.2   735  SER735      0.2619
    142  O         39.0520   18.7460   37.8890 O.2   735  SER735     -0.2717
    143  CB        36.2320   20.2090   38.4170 C.3   735  SER735      0.2103
    144  OG        36.2080   19.7380   37.0810 O.3   735  SER735     -0.2182
    145  N         38.2200   18.2360   39.9540 N.am  736  ASP736     -0.1959
    146  CA        38.8080   16.8930   40.0760 C.3   736  ASP736      0.1840
    147  C         37.8960   15.9230   40.8520 C.2   736  ASP736      0.2622
    148  O         36.9290   16.3640   41.4790 O.2   736  ASP736     -0.2715
    149  CB        40.2240   16.9610   40.6760 C.3   736  ASP736      0.1450
    150  CG        41.1670   15.8320   40.2790 C.2   736  ASP736      0.3671
    151  OD1       41.1150   15.3900   39.1040 O.co2 736  ASP736     -0.2456
    152  OD2       42.0290   15.4680   41.1030 O.co2 736  ASP736     -0.2456
    153  N         38.1880   14.6030   40.7730 N.am  737  THR737     -0.1951
    154  CA        37.4130   13.5350   41.4160 C.3   737  THR737      0.1897
    155  C         37.6860   13.4520   42.9020 C.2   737  THR737      0.2313
    156  O         38.8460   13.5480   43.3070 O.2   737  THR737     -0.2863
    157  CB        37.6610   12.1480   40.7640 C.3   737  THR737      0.1794
    158  OG1       38.8990   11.5980   41.2060 O.3   737  THR737     -0.2208
    159  CG2       37.6250   12.1730   39.2530 C.3   737  THR737      0.0378
    160  N         40.7050   11.3920   43.8980 N.3   740  ASN740     -0.1240
    161  CA        41.9600   12.1110   43.6660 C.3   740  ASN740      0.1653
    162  C         42.1760   13.2580   44.6710 C.2   740  ASN740      0.2266
    163  O         43.3260   13.6210   44.9330 O.2   740  ASN740     -0.2867
    164  CB        42.0570   12.6160   42.2230 C.3   740  ASN740      0.1155
    165  CG        42.1840   11.5560   41.1430 C.2   740  ASN740      0.2627
    166  OD1       42.5220   10.3850   41.3840 O.2   740  ASN740     -0.2716
    167  ND2       41.9430   11.9660   39.9000 N.am  740  ASN740     -0.0877
    168  N         32.7360   14.2040   41.2360 N.3   789  MET789     -0.1245
    169  CA        33.7150   15.2750   41.0850 C.3   789  MET789      0.1570
    170  C         33.3100   16.5640   41.7520 C.2   789  MET789      0.2261
    171  O         32.1270   16.8970   41.7720 O.2   789  MET789     -0.2867
    172  CB        33.9790   15.5390   39.6020 C.3   789  MET789      0.0387
    173  CG        34.8400   14.4940   38.9690 C.3   789  MET789      0.0595
    174  SD        35.3770   14.7950   37.2760 S.3   789  MET789     -0.1393
    175  CE        36.0950   16.4240   37.4010 C.3   789  MET789      0.0692
    176  N         29.3380   17.1730   41.4900 N.3   797  PHE797     -0.1241
    177  CA        28.6020   16.6150   40.3400 C.3   797  PHE797      0.1605
    178  C         29.0360   15.1810   39.9980 C.2   797  PHE797      0.2264
    179  O         30.1630   14.7770   40.3000 O.2   797  PHE797     -0.2867
    180  CB        28.6460   17.5410   39.0910 C.3   797  PHE797      0.0534
    181  CG        29.9860   17.6940   38.4190 C.ar  797  PHE797     -0.0203
    182  CD1       30.9250   18.6010   38.9000 C.ar  797  PHE797     -0.0042
    183  CD2       30.3020   16.9550   37.2880 C.ar  797  PHE797     -0.0042
    184  CE1       32.1770   18.7260   38.2910 C.ar  797  PHE797     -0.0003
    185  CE2       31.5500   17.0960   36.6690 C.ar  797  PHE797     -0.0003
    186  CZ        32.4790   17.9740   37.1810 C.ar  797  PHE797     -0.0000
    187  N         29.7030   12.0650   37.2130 N.3   799  ILE799     -0.1231
    188  CA        30.2700   11.8060   35.8930 C.3   799  ILE799      0.1692
    189  C         30.0560   10.3440   35.5340 C.2   799  ILE799      0.2592
    190  O         29.7180    9.5510   36.4130 O.2   799  ILE799     -0.2718
    191  CB        31.7720   12.2240   35.8170 C.3   799  ILE799      0.0266
    192  CG1       32.7090   11.2750   36.5760 C.3   799  ILE799      0.0019
    193  CG2       31.9860   13.6590   36.2590 C.3   799  ILE799      0.0020
    194  CD1       33.5670   10.4290   35.7090 C.3   799  ILE799      0.0001
    195  N         30.2980    9.9910   34.2580 N.am  800  ASP800     -0.1974
    196  CA        30.1700    8.6650   33.6400 C.3   800  ASP800      0.1709
    197  C         29.0970    7.7550   34.2770 C.2   800  ASP800      0.2293
    198  O         29.3300    7.0590   35.2720 O.2   800  ASP800     -0.2864
    199  CB        31.5180    7.9310   33.5370 C.3   800  ASP800      0.1436
    200  CG        31.6380    7.1630   32.2290 C.2   800  ASP800      0.3671
    201  OD1       30.9800    6.0990   32.0980 O.co2 800  ASP800     -0.2456
    202  OD2       32.3260    7.6630   31.3050 O.co2 800  ASP800     -0.2456
@<TRIPOS>BOND
     1    74    73    2
     2    73    72    1
     3    71    72    1
     4    72    75    1
     5    80    81    1
     6    66    65    2
     7    65    64    1
     8    86    85    1
     9    75    76    1
    10    84    81    1
    11    84    85    1
    12    81    82    1
    13    82    83    2
    14    13    12    2
    15    85    87    1
    16    52    51    2
    17   108   109    1
    18    63    64    1
    19    51    50    1
    20    76    77    1
    21    64    67    1
    22    44    43    1
    23    44    45    2
    24    43    42    1
    25    43    46    1
    26    23    25   ar
    27    23    22   ar
    28    49    50    1
    29    21    22    1
    30    21    18    1
    31    25    27   ar
    32    10    11    1
    33    22    24   ar
    34    12    11    1
    35    12    17   am
    36    42    48    1
    37     1     2    1
    38    50    53    1
    39    46    47    1
    40    11    14    1
    41    27    26   ar
    42    77    78    1
    43    24    26   ar
    44   109   110    1
    45   109   112    1
    46    18    17    1
    47    18    19    1
    48   111   110    2
    49     3     2    1
    50     3     4    2
    51   115   113    1
    52    67    69    1
    53    67    68    1
    54   110   116   am
    55     2     5    1
    56   113   112    1
    57     5     6    1
    58    47    48    1
    59    78    79    1
    60     9     7   am
    61   116   117    1
    62   112   114    1
    63    53    54    1
    64   117   120    1
    65   117   118    1
    66     7     6    1
    67     7     8    2
    68    68    70    1
    69    14    15    1
    70    14    16    1
    71    19    28   am
    72    19    20    2
    73   120   121    1
    74   121   122    1
    75    28    29    1
    76    55    54   ar
    77    55    57   ar
    78    54    56   ar
    79    39    38    2
    80    88    89    1
    81    31    30    2
    82   131   129    1
    83   122   124   ar
    84   122   123   ar
    85   125   118   am
    86   125   126    1
    87    94    93   ar
    88   118   119    2
    89    90    89    1
    90    90    91    2
    91    92    89    1
    92    92    93    1
    93    57    58   ar
    94   129   126    1
    95   129   130    1
    96    56    58   ar
    97    56    59   ar
    98    29    30    1
    99    29    32    1
   100    93    95   ar
   101    38    37    1
   102    41    40    1
   103    98    99    2
   104    98    97    1
   105   126   127    1
   106    32    33    1
   107    34    33    1
   108    34    35    1
   109    58    60   ar
   110    59    61   ar
   111    36    37    1
   112   128   127    2
   113    37    40    1
   114   127   132   am
   115    97   100    1
   116    97    96    1
   117   103   105   ar
   118   103   101   ar
   119    61    62   ar
   120    60    62   ar
   121   202   200   ar
   122   105   106   ar
   123   100   101    1
   124   101   102   ar
   125   201   200   ar
   126   200   199    1
   127   132   133    1
   128   106   107    1
   129   106   104   ar
   130   133   134    1
   131   133   136    1
   132   102   104   ar
   133   199   196    1
   134   196   195    1
   135   196   197    1
   136   138   136    1
   137   134   135    2
   138   195   189   am
   139   197   198    2
   140   136   137    1
   141   189   188    1
   142   189   190    2
   143   194   192    1
   144   191   188    1
   145   191   193    1
   146   191   192    1
   147   188   187    1
   148   185   186   ar
   149   185   183   ar
   150   144   143    1
   151   186   184   ar
   152   174   175    1
   153   174   173    1
   154   183   181   ar
   155   142   141    2
   156   139   140    1
   157   184   182   ar
   158   143   140    1
   159   181   182   ar
   160   181   180    1
   161   141   140    1
   162   141   145   am
   163   173   172    1
   164   180   177    1
   165   151   150   ar
   166   159   157    1
   167   172   169    1
   168   167   165   am
   169   145   146    1
   170   178   179    2
   171   178   177    1
   172   146   149    1
   173   146   147    1
   174   150   149    1
   175   150   152   ar
   176   177   176    1
   177   157   158    1
   178   157   154    1
   179   153   147   am
   180   153   154    1
   181   147   148    2
   182   169   168    1
   183   169   170    1
   184   165   166    2
   185   165   164    1
   186   154   155    1
   187   170   171    2
   188   164   161    1
   189   155   156    2
   190   161   160    1
   191   161   162    1
   192   162   163    2
