@<TRIPOS>MOLECULE
tmp/5ubvA01.pdb
 136 132 0 0 0
SMALL
GASTEIGER

@<TRIPOS>ATOM
      1  N         30.4720    9.7740   88.1890 N.3     7  ASP7       -0.1225
      2  CA        30.6520   11.0750   87.5600 C.3     7  ASP7        0.1805
      3  C         31.7020   11.9250   88.2590 C.2     7  ASP7        0.2598
      4  O         32.0960   12.9640   87.7190 O.2     7  ASP7       -0.2718
      5  CB        29.3270   11.8470   87.5430 C.3     7  ASP7        0.1424
      6  CG        28.2260   11.1060   86.8150 C.2     7  ASP7        0.3668
      7  OD1       28.5300   10.3870   85.8400 O.co2   7  ASP7       -0.2456
      8  OD2       27.0530   11.2440   87.2220 O.co2   7  ASP7       -0.2456
      9  N         32.1680   11.5070   89.4330 N.am    8  VAL8       -0.1966
     10  CA        33.0590   12.3050   90.2670 C.3     8  VAL8        0.1727
     11  C         34.4430   11.6750   90.2290 C.2     8  VAL8        0.2616
     12  O         34.6110   10.5020   90.5860 O.2     8  VAL8       -0.2715
     13  CB        32.5400   12.4050   91.7090 C.3     8  VAL8        0.0290
     14  CG1       33.3850   13.3810   92.5090 C.3     8  VAL8        0.0023
     15  CG2       31.0750   12.8190   91.7180 C.3     8  VAL8        0.0023
     16  N         35.4330   12.4550   89.8040 N.am    9  HIS9       -0.1959
     17  CA        36.8040   11.9810   89.7100 C.3     9  HIS9        0.1787
     18  C         37.7380   13.0480   90.2640 C.2     9  HIS9        0.2621
     19  O         37.3980   14.2320   90.3240 O.2     9  HIS9       -0.2715
     20  CB        37.1690   11.6150   88.2670 C.3     9  HIS9        0.0785
     21  CG        36.2470   10.6040   87.6600 C.ar    9  HIS9        0.0821
     22  ND1       36.5630    9.2650   87.5760 N.ar    9  HIS9       -0.2267
     23  CD2       35.0100   10.7320   87.1250 C.ar    9  HIS9        0.1154
     24  CE1       35.5640    8.6130   87.0080 C.ar    9  HIS9        0.1986
     25  NE2       34.6090    9.4800   86.7250 N.ar    9  HIS9       -0.2212
     26  N         38.9250   12.6120   90.6800 N.am   10  GLY10      -0.1940
     27  CA        39.9140   13.5220   91.2180 C.3    10  GLY10       0.2014
     28  C         39.7420   13.8660   92.6790 C.2    10  GLY10       0.2639
     29  O         40.4330   14.7630   93.1740 O.2    10  GLY10      -0.2714
     30  N         38.8450   13.1870   93.3820 N.am   11  CYS11      -0.1967
     31  CA        38.6720   13.3590   94.8170 C.3    11  CYS11       0.1712
     32  C         38.0730   12.0790   95.3900 C.2    11  CYS11       0.2296
     33  O         36.9670   12.0620   95.9220 O.2    11  CYS11      -0.2864
     34  CB        37.7950   14.5690   95.1270 C.3    11  CYS11       0.0983
     35  SG        36.1870   14.6130   94.3010 S.3    11  CYS11      -0.0798
     36  N         35.5280   26.9910   94.0400 N.3    47  PRO47      -0.2102
     37  CA        34.4580   26.7650   93.0600 C.3    47  PRO47       0.1504
     38  C         34.8740   25.7700   91.9850 C.2    47  PRO47       0.2576
     39  O         36.0330   25.7190   91.5690 O.2    47  PRO47      -0.2718
     40  CB        34.2190   28.1590   92.4670 C.3    47  PRO47       0.0282
     41  CG        34.7310   29.1070   93.4960 C.3    47  PRO47       0.0208
     42  CD        35.8950   28.4150   94.1340 C.3    47  PRO47       0.0893
     43  N         33.9080   24.9660   91.5460 N.am   48  GLY48      -0.1943
     44  CA        34.1170   24.0510   90.4430 C.3    48  GLY48       0.2014
     45  C         34.7990   22.7480   90.7900 C.2    48  GLY48       0.2640
     46  O         35.1410   21.9880   89.8770 O.2    48  GLY48      -0.2714
     47  N         34.9990   22.4540   92.0740 N.am   49  THR49      -0.1936
     48  CA        35.6290   21.2010   92.4690 C.3    49  THR49       0.2028
     49  C         34.6440   20.0440   92.5590 C.2    49  THR49       0.2643
     50  O         35.0610   18.9200   92.8570 O.2    49  THR49      -0.2714
     51  CB        36.3450   21.3660   93.8130 C.3    49  THR49       0.1808
     52  OG1       35.4050   21.7840   94.8110 O.3    49  THR49      -0.2208
     53  CG2       37.4530   22.3980   93.7020 C.3    49  THR49       0.0379
     54  N         33.3640   20.2840   92.3060 N.am   50  GLY50      -0.1939
     55  CA        32.3680   19.2410   92.3110 C.3    50  GLY50       0.2014
     56  C         31.5980   19.0750   93.6000 C.2    50  GLY50       0.2639
     57  O         31.1420   17.9630   93.8870 O.2    50  GLY50      -0.2714
     58  N         31.4410   20.1400   94.3900 N.am   51  LYS51      -0.1963
     59  CA        30.6710   20.0300   95.6230 C.3    51  LYS51       0.1728
     60  C         29.1900   19.8290   95.3280 C.2    51  LYS51       0.2617
     61  O         28.5330   18.9910   95.9570 O.2    51  LYS51      -0.2715
     62  CB        30.8880   21.2700   96.4900 C.3    51  LYS51       0.0311
     63  CG        32.3100   21.4190   97.0060 C.3    51  LYS51       0.0038
     64  CD        32.4730   22.6850   97.8290 C.3    51  LYS51       0.0206
     65  CE        32.1960   23.9260   96.9980 C.3    51  LYS51       0.1093
     66  NZ        33.0000   23.9550   95.7440 N.3    51  LYS51      -0.1314
     67  N         28.6500   20.5830   94.3680 N.am   52  THR52      -0.1937
     68  CA        27.2610   20.3820   93.9680 C.3    52  THR52       0.2028
     69  C         27.0740   19.0250   93.3020 C.2    52  THR52       0.2642
     70  O         26.0640   18.3490   93.5310 O.2    52  THR52      -0.2714
     71  CB        26.8170   21.5020   93.0280 C.3    52  THR52       0.1808
     72  OG1       27.1740   22.7710   93.5910 O.3    52  THR52      -0.2208
     73  CG2       25.3140   21.4590   92.8290 C.3    52  THR52       0.0379
     74  N         28.0380   18.6120   92.4750 N.am   53  LEU53      -0.1977
     75  CA        27.9540   17.3050   91.8320 C.3    53  LEU53       0.1596
     76  C         27.9660   16.1830   92.8610 C.2    53  LEU53       0.2287
     77  O         27.1980   15.2200   92.7490 O.2    53  LEU53      -0.2864
     78  CB        29.1030   17.1340   90.8390 C.3    53  LEU53       0.0297
     79  CG        29.1670   15.7870   90.1170 C.3    53  LEU53       0.0022
     80  CD1       27.9610   15.6130   89.2070 C.3    53  LEU53       0.0001
     81  CD2       30.4620   15.6560   89.3300 C.3    53  LEU53       0.0001
     82  N         20.6380   20.6100   99.9540 N.3   101  PHE101     -0.1241
     83  CA        21.9460   21.1620   99.6310 C.3   101  PHE101      0.1605
     84  C         21.8730   22.6790   99.7250 C.2   101  PHE101      0.2264
     85  O         21.0940   23.3120   99.0050 O.2   101  PHE101     -0.2867
     86  CB        22.3940   20.7260   98.2370 C.3   101  PHE101      0.0534
     87  CG        23.6700   21.3690   97.7790 C.ar  101  PHE101     -0.0203
     88  CD1       24.8830   21.0020   98.3350 C.ar  101  PHE101     -0.0042
     89  CD2       23.6560   22.3430   96.7950 C.ar  101  PHE101     -0.0042
     90  CE1       26.0610   21.5890   97.9150 C.ar  101  PHE101     -0.0003
     91  CE2       24.8310   22.9360   96.3710 C.ar  101  PHE101     -0.0003
     92  CZ        26.0350   22.5570   96.9320 C.ar  101  PHE101     -0.0000
     93  N         23.9720   25.7270   98.9990 N.3   103  ASP103     -0.1239
     94  CA        25.1450   26.3370   98.3930 C.3   103  ASP103      0.1674
     95  C         25.4640   27.6570   99.0880 C.2   103  ASP103      0.2266
     96  O         24.5690   28.3670   99.5530 O.2   103  ASP103     -0.2867
     97  CB        24.9080   26.5750   96.9010 C.3   103  ASP103      0.1410
     98  CG        26.1830   26.9090   96.1510 C.2   103  ASP103      0.3668
     99  OD1       27.2410   26.3350   96.4850 O.co2 103  ASP103     -0.2456
    100  OD2       26.1290   27.7580   95.2360 O.co2 103  ASP103     -0.2456
    101  N         39.9800   13.1590   85.6160 N.3   179  ILE179     -0.1245
    102  CA        38.8600   13.9990   85.2000 C.3   179  ILE179      0.1561
    103  C         38.8520   14.1560   83.6840 C.2   179  ILE179      0.2260
    104  O         37.8110   14.0040   83.0330 O.2   179  ILE179     -0.2867
    105  CB        38.9180   15.3620   85.9100 C.3   179  ILE179      0.0252
    106  CG1       38.6920   15.1910   87.4140 C.3   179  ILE179      0.0019
    107  CG2       37.8870   16.3160   85.3220 C.3   179  ILE179      0.0019
    108  CD1       38.9900   16.4360   88.2180 C.3   179  ILE179      0.0001
    109  N         35.7460   12.6180   81.0520 N.3   183  HIS183     -0.1241
    110  CA        34.9500   13.3910   80.1090 C.3   183  HIS183      0.1621
    111  C         35.3640   13.1310   78.6670 C.2   183  HIS183      0.2264
    112  O         34.5520   13.3270   77.7570 O.2   183  HIS183     -0.2867
    113  CB        35.0520   14.8810   80.4360 C.3   183  HIS183      0.0745
    114  CG        34.4350   15.2510   81.7500 C.ar  183  HIS183      0.0817
    115  ND1       33.0720   15.3370   81.9340 N.ar  183  HIS183     -0.2268
    116  CD2       34.9950   15.5540   82.9450 C.ar  183  HIS183      0.1154
    117  CE1       32.8190   15.6770   83.1860 C.ar  183  HIS183      0.1986
    118  NE2       33.9690   15.8160   83.8200 N.ar  183  HIS183     -0.2212
    119  N         37.6150   20.8000   88.2700 N.3   207  GLY207     -0.1210
    120  CA        37.0090   19.7840   87.4280 C.3   207  GLY207      0.1956
    121  C         36.0600   20.3590   86.3960 C.2   207  GLY207      0.2611
    122  O         35.9170   19.8080   85.3010 O.2   207  GLY207     -0.2717
    123  N         35.4000   21.4720   86.7260 N.am  208  ALA208     -0.1979
    124  CA        34.5210   22.1240   85.7620 C.3   208  ALA208      0.1597
    125  C         35.3150   22.6930   84.5940 C.2   208  ALA208      0.2287
    126  O         34.9200   22.5400   83.4330 O.2   208  ALA208     -0.2864
    127  CB        33.7090   23.2230   86.4480 C.3   208  ALA208      0.0319
    128  N         36.4960   19.8010   82.4300 N.3   211  GLU211     -0.1245
    129  CA        35.4130   19.3530   81.5610 C.3   211  GLU211      0.1567
    130  C         35.1850   20.3410   80.4270 C.2   211  GLU211      0.2260
    131  O         34.8910   19.9440   79.2930 O.2   211  GLU211     -0.2867
    132  CB        34.1250   19.1680   82.3630 C.3   211  GLU211      0.0388
    133  CG        32.9310   18.7640   81.5090 C.3   211  GLU211      0.1160
    134  CD        31.6180   18.8370   82.2610 C.2   211  GLU211      0.3649
    135  OE1       31.5630   19.5280   83.3000 O.co2 211  GLU211     -0.2457
    136  OE2       30.6380   18.2080   81.8100 O.co2 211  GLU211     -0.2457
@<TRIPOS>BOND
     1   112   111    2
     2   111   110    1
     3   131   130    2
     4   110   113    1
     5   110   109    1
     6   130   129    1
     7   113   114    1
     8   133   134    1
     9   133   132    1
    10   129   132    1
    11   129   128    1
    12   114   115   ar
    13   114   116   ar
    14   136   134   ar
    15   115   117   ar
    16   134   135   ar
    17   116   118   ar
    18   104   103    2
    19   117   118   ar
    20   126   125    2
    21   103   102    1
    22   125   124    1
    23   102   101    1
    24   102   105    1
    25   122   121    2
    26   107   105    1
    27   124   127    1
    28   124   123    1
    29     7     6   ar
    30   105   106    1
    31   121   123   am
    32   121   120    1
    33    25    24   ar
    34    25    23   ar
    35     6     8   ar
    36     6     5    1
    37    24    22   ar
    38    23    21   ar
    39   106   108    1
    40   120   119    1
    41     5     2    1
    42     2     1    1
    43     2     3    1
    44    22    21   ar
    45    21    20    1
    46     4     3    2
    47     3     9   am
    48    20    17    1
    49    80    79    1
    50    81    79    1
    51     9    10    1
    52    17    16    1
    53    17    18    1
    54    16    11   am
    55    46    45    2
    56    79    78    1
    57    11    10    1
    58    11    12    2
    59    18    19    2
    60    18    26   am
    61    10    13    1
    62    44    45    1
    63    44    43    1
    64    26    27    1
    65    45    47   am
    66    78    75    1
    67    27    28    1
    68    43    38   am
    69    39    38    2
    70    13    15    1
    71    13    14    1
    72    75    74    1
    73    75    76    1
    74    38    37    1
    75    47    48    1
    76    54    55    1
    77    54    49   am
    78    55    56    1
    79    40    37    1
    80    40    41    1
    81    48    49    1
    82    48    51    1
    83    74    69   am
    84    49    50    2
    85    28    29    2
    86    28    30   am
    87    77    76    2
    88    73    71    1
    89    71    72    1
    90    71    68    1
    91    37    36    1
    92    69    70    2
    93    69    68    1
    94    30    31    1
    95    41    42    1
    96    56    57    2
    97    56    58   am
    98    53    51    1
    99    51    52    1
   100    68    67    1
   101    36    42    1
   102    35    34    1
   103    67    60   am
   104    58    59    1
   105    31    34    1
   106    31    32    1
   107   100    98   ar
   108    60    59    1
   109    60    61    2
   110    32    33    2
   111    59    62    1
   112    66    65    1
   113    98    99   ar
   114    98    97    1
   115    91    89   ar
   116    91    92   ar
   117    62    63    1
   118    89    87   ar
   119    97    94    1
   120    92    90   ar
   121    65    64    1
   122    63    64    1
   123    87    86    1
   124    87    88   ar
   125    90    88   ar
   126    86    83    1
   127    94    93    1
   128    94    95    1
   129    85    84    2
   130    95    96    2
   131    83    84    1
   132    83    82    1
