@<TRIPOS>MOLECULE
tmp/5uc0A00.pdb
 97 96 0 0 0
SMALL
GASTEIGER

@<TRIPOS>ATOM
      1  N         51.5390   12.1580   40.3030 N.3    45  GLU45      -0.1231
      2  CA        52.3270   12.6600   41.4140 C.3    45  GLU45       0.1699
      3  C         52.7850   14.0730   41.1090 C.2    45  GLU45       0.2592
      4  O         52.9950   14.4250   39.9480 O.2    45  GLU45      -0.2718
      5  CB        53.5260   11.7760   41.6520 C.3    45  GLU45       0.0402
      6  CG        53.1150   10.3410   41.6310 C.3    45  GLU45       0.1161
      7  CD        54.1440    9.4380   42.2010 C.2    45  GLU45       0.3649
      8  OE1       55.3170    9.5760   41.8000 O.co2  45  GLU45      -0.2457
      9  OE2       53.7720    8.5990   43.0490 O.co2  45  GLU45      -0.2457
     10  N         52.9370   14.8760   42.1640 N.am   46  GLU46      -0.1966
     11  CA        53.3560   16.2670   42.0570 C.3    46  GLU46       0.1733
     12  C         54.5150   16.5190   42.9950 C.2    46  GLU46       0.2616
     13  O         54.5420   15.9750   44.0990 O.2    46  GLU46      -0.2715
     14  CB        52.2540   17.2330   42.4320 C.3    46  GLU46       0.0429
     15  CG        50.9840   16.9920   41.7470 C.3    46  GLU46       0.1163
     16  CD        49.9010   17.8730   42.2850 C.2    46  GLU46       0.3649
     17  OE1       49.7390   17.9360   43.5240 O.co2  46  GLU46      -0.2457
     18  OE2       49.2100   18.4970   41.4620 O.co2  46  GLU46      -0.2457
     19  N         55.4420   17.3740   42.5640 N.am   47  GLY47      -0.1955
     20  CA        56.5440   17.8260   43.3970 C.3    47  GLY47       0.1869
     21  C         56.8650   19.2980   43.1800 C.2    47  GLY47       0.2309
     22  O         56.8110   19.8020   42.0480 O.2    47  GLY47      -0.2863
     23  N         61.8830   21.9550   43.0260 N.3    50  ALA50      -0.1245
     24  CA        62.7480   22.7240   42.1320 C.3    50  ALA50       0.1562
     25  C         62.6040   24.2190   42.3730 C.2    50  ALA50       0.2260
     26  O         63.6030   24.9490   42.4370 O.2    50  ALA50      -0.2867
     27  CB        62.4360   22.3900   40.6720 C.3    50  ALA50       0.0290
     28  N         55.2040   20.8310   39.8060 N.3    57  TYR57      -0.1227
     29  CA        55.2680   20.0870   38.5540 C.3    57  TYR57       0.1736
     30  C         54.7230   18.6840   38.7880 C.2    57  TYR57       0.2596
     31  O         55.1600   17.9870   39.7110 O.2    57  TYR57      -0.2718
     32  CB        56.6980   20.0330   38.0070 C.3    57  TYR57       0.0548
     33  CG        57.1920   21.3800   37.5770 C.ar   57  TYR57      -0.0200
     34  CD1       56.8450   21.9060   36.3370 C.ar   57  TYR57      -0.0009
     35  CD2       57.9690   22.1520   38.4280 C.ar   57  TYR57      -0.0009
     36  CE1       57.2810   23.1650   35.9480 C.ar   57  TYR57       0.0417
     37  CE2       58.4110   23.4110   38.0550 C.ar   57  TYR57       0.0417
     38  CZ        58.0650   23.9110   36.8150 C.ar   57  TYR57       0.1957
     39  OH        58.4950   25.1540   36.4490 O.3    57  TYR57      -0.2866
     40  N         53.7510   18.2890   37.9770 N.am   58  GLY58      -0.1942
     41  CA        53.1040   17.0110   38.1610 C.3    58  GLY58       0.2014
     42  C         53.2120   16.1290   36.9410 C.2    58  GLY58       0.2638
     43  O         53.4530   16.6130   35.8320 O.2    58  GLY58      -0.2714
     44  N         53.0260   14.8310   37.1410 N.am   59  GLU59      -0.1977
     45  CA        53.1330   13.8500   36.0740 C.3    59  GLU59       0.1602
     46  C         52.2060   12.6910   36.3900 C.2    59  GLU59       0.2287
     47  O         52.2360   12.1530   37.4980 O.2    59  GLU59      -0.2864
     48  CB        54.5600   13.3460   35.9350 C.3    59  GLU59       0.0415
     49  CG        54.7450   12.4990   34.7290 C.3    59  GLU59       0.1163
     50  CD        56.1780   12.0540   34.5760 C.2    59  GLU59       0.3649
     51  OE1       57.0760   12.7990   35.0420 O.co2  59  GLU59      -0.2457
     52  OE2       56.3960   10.9690   33.9870 O.co2  59  GLU59      -0.2457
     53  N         60.2340   15.2430   48.8670 N.3    85  GLY85      -0.1210
     54  CA        61.0770   14.8490   47.7430 C.3    85  GLY85       0.1956
     55  C         60.4550   13.7720   46.8730 C.2    85  GLY85       0.2612
     56  O         60.6540   13.7530   45.6540 O.2    85  GLY85      -0.2717
     57  N         59.7110   12.8490   47.4860 N.am   86  GLN86      -0.1965
     58  CA        58.9310   11.8940   46.7120 C.3    86  GLN86       0.1733
     59  C         57.6670   12.5140   46.1410 C.2    86  GLN86       0.2616
     60  O         56.9620   11.8580   45.3620 O.2    86  GLN86      -0.2715
     61  CB        58.5610   10.6810   47.5750 C.3    86  GLN86       0.0408
     62  CG        59.6080    9.5470   47.6590 C.3    86  GLN86       0.0908
     63  CD        59.9730    8.9100   46.3180 C.2    86  GLN86       0.2608
     64  OE1       60.1470    9.5830   45.3040 O.2    86  GLN86      -0.2717
     65  NE2       60.0790    7.5890   46.3180 N.am   86  GLN86      -0.0878
     66  N         57.3740   13.7570   46.5010 N.am   87  GLY87      -0.1955
     67  CA        56.1920   14.3990   46.0030 C.3    87  GLY87       0.1869
     68  C         54.9640   13.9040   46.7360 C.2    87  GLY87       0.2309
     69  O         55.0350   13.3790   47.8540 O.2    87  GLY87      -0.2863
     70  N         56.2960   17.2910   29.3090 N.3   154  PRO154     -0.2102
     71  CA        56.7450   18.0200   30.4990 C.3   154  PRO154      0.1504
     72  C         57.3680   19.3460   30.1130 C.2   154  PRO154      0.2576
     73  O         58.0330   19.4730   29.0840 O.2   154  PRO154     -0.2718
     74  CB        57.7810   17.0840   31.1300 C.3   154  PRO154      0.0282
     75  CG        58.2590   16.2630   30.0300 C.3   154  PRO154      0.0208
     76  CD        57.0730   16.0580   29.1170 C.3   154  PRO154      0.0893
     77  N         57.1380   20.3440   30.9540 N.am  155  THR155     -0.1939
     78  CA        57.6150   21.6810   30.6810 C.3   155  THR155      0.2028
     79  C         57.9380   22.3730   31.9910 C.2   155  THR155      0.2642
     80  O         57.3130   22.1200   33.0270 O.2   155  THR155     -0.2714
     81  CB        56.5890   22.4800   29.8730 C.3   155  THR155      0.1808
     82  OG1       57.2430   23.5940   29.2690 O.3   155  THR155     -0.2208
     83  CG2       55.4630   22.9660   30.7400 C.3   155  THR155      0.0379
     84  N         58.9650   23.2190   31.9340 N.am  156  TRP156     -0.1973
     85  CA        59.2600   24.1210   33.0320 C.3   156  TRP156      0.1640
     86  C         58.2860   25.2820   33.0580 C.2   156  TRP156      0.2290
     87  O         58.0160   25.8460   34.1250 O.2   156  TRP156     -0.2864
     88  CB        60.6860   24.6660   32.9150 C.3   156  TRP156      0.0576
     89  CG        61.7550   23.7080   33.3110 C.ar  156  TRP156      0.0006
     90  CD1       62.6960   23.1460   32.5000 C.ar  156  TRP156      0.0946
     91  CD2       62.0130   23.2160   34.6260 C.ar  156  TRP156      0.0152
     92  NE1       63.5200   22.3340   33.2300 N.ar  156  TRP156     -0.2442
     93  CE2       63.1210   22.3570   34.5380 C.ar  156  TRP156      0.0810
     94  CE3       61.4110   23.4160   35.8700 C.ar  156  TRP156      0.0012
     95  CZ2       63.6390   21.7000   35.6420 C.ar  156  TRP156      0.0191
     96  CZ3       61.9260   22.7640   36.9700 C.ar  156  TRP156      0.0001
     97  CH2       63.0290   21.9160   36.8510 C.ar  156  TRP156      0.0015
@<TRIPOS>BOND
     1    73    72    2
     2    76    70    1
     3    76    75    1
     4    82    81    1
     5    70    71    1
     6    81    78    1
     7    81    83    1
     8    75    74    1
     9    72    71    1
    10    72    77   am
    11    71    74    1
    12    78    77    1
    13    78    79    1
    14    84    79   am
    15    84    85    1
    16    79    80    2
    17    90    92   ar
    18    90    89   ar
    19    88    85    1
    20    88    89    1
    21    85    86    1
    22    86    87    2
    23    92    93   ar
    24    89    91   ar
    25    52    50   ar
    26    93    91   ar
    27    93    95   ar
    28    50    49    1
    29    50    51   ar
    30    91    94   ar
    31    49    48    1
    32    95    97   ar
    33    43    42    2
    34    94    96   ar
    35    48    45    1
    36    36    34   ar
    37    36    38   ar
    38    45    46    1
    39    45    44    1
    40    34    33   ar
    41    46    47    2
    42    39    38    1
    43    38    37   ar
    44    97    96   ar
    45    42    44   am
    46    42    41    1
    47    33    32    1
    48    33    35   ar
    49    40    41    1
    50    40    30   am
    51    32    29    1
    52    37    35   ar
    53    29    30    1
    54    29    28    1
    55    30    31    2
    56     4     3    2
    57     1     2    1
    58    27    24    1
    59     3     2    1
    60     3    10   am
    61     2     5    1
    62    18    16   ar
    63     6     5    1
    64     6     7    1
    65    15    16    1
    66    15    14    1
    67     8     7   ar
    68    22    21    2
    69    11    10    1
    70    11    14    1
    71    11    12    1
    72    24    25    1
    73    24    23    1
    74     7     9   ar
    75    16    17   ar
    76    25    26    2
    77    19    12   am
    78    19    20    1
    79    12    13    2
    80    21    20    1
    81    64    63    2
    82    60    59    2
    83    56    55    2
    84    67    66    1
    85    67    68    1
    86    59    66   am
    87    59    58    1
    88    65    63   am
    89    63    62    1
    90    58    57    1
    91    58    61    1
    92    68    69    2
    93    55    57   am
    94    55    54    1
    95    61    62    1
    96    54    53    1
