@<TRIPOS>MOLECULE
tmp/5uc3B01.pdb
 90 85 0 0 0
SMALL
GASTEIGER

@<TRIPOS>ATOM
      1  N        127.3300   33.3860   70.8590 N.3    15  GLU15      -0.1231
      2  CA       127.5700   34.2210   69.6930 C.3    15  GLU15       0.1684
      3  C        126.7910   33.6600   68.5070 C.2    15  GLU15       0.2434
      4  O        127.0030   32.4980   68.1380 O.2    15  GLU15      -0.2733
      5  CB       129.0600   34.2810   69.3880 C.3    15  GLU15       0.0402
      6  CG       129.4470   35.1930   68.2220 C.3    15  GLU15       0.1161
      7  CD       129.1740   36.6700   68.4910 C.2    15  GLU15       0.3649
      8  OE1      128.9410   37.0490   69.6640 O.co2  15  GLU15      -0.2457
      9  OE2      129.1920   37.4560   67.5150 O.co2  15  GLU15      -0.2457
     10  N        125.8900   34.4230   67.8950 N.am   16  PRO16      -0.2729
     11  CA       125.0650   33.8590   66.8180 C.3    16  PRO16       0.1401
     12  C        125.8540   33.6610   65.5340 C.2    16  PRO16       0.2269
     13  O        126.8760   34.3100   65.2940 O.2    16  PRO16      -0.2865
     14  CB       123.9550   34.9000   66.6340 C.3    16  PRO16       0.0296
     15  CG       124.5180   36.1650   67.1770 C.3    16  PRO16       0.0237
     16  CD       125.4540   35.7760   68.2810 C.3    16  PRO16       0.0939
     17  N        119.6920   41.7910   61.9880 N.3    45  GLN45      -0.1245
     18  CA       120.7680   41.7690   62.9720 C.3    45  GLN45       0.1566
     19  C        120.3170   42.3510   64.3100 C.2    45  GLN45       0.2260
     20  O        120.7620   41.8740   65.3620 O.2    45  GLN45      -0.2867
     21  CB       121.9970   42.4890   62.4180 C.3    45  GLN45       0.0367
     22  CG       122.7680   41.6020   61.4470 C.3    45  GLN45       0.0905
     23  CD       124.0730   42.2080   60.9770 C.2    45  GLN45       0.2608
     24  OE1      124.5120   43.2460   61.4740 O.2    45  GLN45      -0.2717
     25  NE2      124.7020   41.5590   60.0070 N.am   45  GLN45      -0.0878
     26  N        118.8410   39.4820   66.1120 N.3    48  ALA48      -0.1231
     27  CA       119.8900   38.6350   66.6640 C.3    48  ALA48       0.1694
     28  C        120.5020   39.2630   67.9100 C.2    48  ALA48       0.2591
     29  O        120.8390   38.5560   68.8660 O.2    48  ALA48      -0.2718
     30  CB       120.9650   38.3750   65.6060 C.3    48  ALA48       0.0304
     31  N        120.6450   40.5910   67.9210 N.am   49  ALA49      -0.1980
     32  CA       121.2550   41.2590   69.0720 C.3    49  ALA49       0.1597
     33  C        120.3680   41.1620   70.3110 C.2    49  ALA49       0.2287
     34  O        120.8690   40.9610   71.4270 O.2    49  ALA49      -0.2864
     35  CB       121.5460   42.7200   68.7380 C.3    49  ALA49       0.0319
     36  N        120.7520   37.6130   71.6130 N.3    52  TRP52      -0.1241
     37  CA       122.0740   37.4930   72.2260 C.3    52  TRP52       0.1605
     38  C        122.1020   38.1550   73.6010 C.2    52  TRP52       0.2264
     39  O        122.5000   37.5390   74.6030 O.2    52  TRP52      -0.2867
     40  CB       123.1050   38.1130   71.2800 C.3    52  TRP52       0.0550
     41  CG       124.4440   38.4320   71.8490 C.ar   52  TRP52       0.0003
     42  CD1      125.4820   37.5690   72.0570 C.ar   52  TRP52       0.0946
     43  CD2      124.9200   39.7340   72.2190 C.ar   52  TRP52       0.0152
     44  NE1      126.5730   38.2530   72.5510 N.ar   52  TRP52      -0.2442
     45  CE2      126.2530   39.5830   72.6570 C.ar   52  TRP52       0.0810
     46  CE3      124.3480   41.0130   72.2160 C.ar   52  TRP52       0.0012
     47  CZ2      127.0160   40.6570   73.1050 C.ar   52  TRP52       0.0191
     48  CZ3      125.1090   42.0780   72.6520 C.ar   52  TRP52       0.0001
     49  CH2      126.4280   41.8930   73.0970 C.ar   52  TRP52       0.0015
     50  N        127.2250   47.6950   68.4440 N.3    78  LEU78      -0.1231
     51  CA       127.3850   46.2500   68.3010 C.3    78  LEU78       0.1693
     52  C        127.5410   45.8500   66.8420 C.2    78  LEU78       0.2591
     53  O        128.3890   45.0120   66.5070 O.2    78  LEU78      -0.2718
     54  CB       126.1750   45.5320   68.8990 C.3    78  LEU78       0.0284
     55  CG       125.8370   45.7860   70.3640 C.3    78  LEU78       0.0019
     56  CD1      124.4690   45.1750   70.6890 C.3    78  LEU78       0.0001
     57  CD2      126.9400   45.2370   71.2800 C.3    78  LEU78       0.0001
     58  N        126.7160   46.4360   65.9630 N.am   79  MET79      -0.1979
     59  CA       126.7140   46.0550   64.5530 C.3    79  MET79       0.1605
     60  C        128.0000   46.4690   63.8610 C.2    79  MET79       0.2287
     61  O        128.5580   45.7090   63.0620 O.2    79  MET79      -0.2864
     62  CB       125.5250   46.6880   63.8300 C.3    79  MET79       0.0413
     63  CG       124.2330   45.9740   64.0190 C.3    79  MET79       0.0598
     64  SD       123.0080   46.5240   62.8080 S.3    79  MET79      -0.1393
     65  CE       121.6280   45.9070   63.7120 C.3    79  MET79       0.0692
     66  N        130.9770   44.2880   65.2420 N.3    82  ALA82      -0.1245
     67  CA       130.9490   42.9340   64.6890 C.3    82  ALA82       0.1562
     68  C        131.2990   42.9360   63.2040 C.2    82  ALA82       0.2260
     69  O        131.9760   42.0200   62.7180 O.2    82  ALA82      -0.2867
     70  CB       129.5760   42.2900   64.9190 C.3    82  ALA82       0.0290
     71  N        134.2570   40.7640   61.4630 N.3    86  ARG86      -0.1245
     72  CA       134.0700   39.8880   60.3080 C.3    86  ARG86       0.1563
     73  C        134.9790   40.3050   59.1610 C.2    86  ARG86       0.2260
     74  O        135.5740   39.4560   58.4870 O.2    86  ARG86      -0.2867
     75  CB       132.5970   39.8810   59.8580 C.3    86  ARG86       0.0307
     76  CG       131.6620   39.1650   60.8270 C.3    86  ARG86       0.0489
     77  CD       130.2740   38.8410   60.2210 C.3    86  ARG86       0.2205
     78  NE       129.6570   40.0020   59.5940 N.pl3  86  ARG86      -0.0865
     79  CZ       128.9880   40.9380   60.2460 C.cat  86  ARG86       0.5346
     80  NH1      128.8380   40.8580   61.5650 N.pl3  86  ARG86       0.1354
     81  NH2      128.4720   41.9540   59.5740 N.pl3  86  ARG86       0.1354
     82  N        132.8360   43.3720   72.7200 N.3   141  LYS141     -0.1245
     83  CA       131.4950   43.5580   72.1760 C.3   141  LYS141      0.1561
     84  C        130.4580   43.6530   73.2950 C.2   141  LYS141      0.2260
     85  O        129.5500   44.4910   73.2430 O.2   141  LYS141     -0.2867
     86  CB       131.1600   42.4300   71.1890 C.3   141  LYS141      0.0271
     87  CG       129.7980   42.6150   70.5010 C.3   141  LYS141      0.0035
     88  CD       129.7380   41.8710   69.1660 C.3   141  LYS141      0.0206
     89  CE       129.8120   40.3640   69.3600 C.3   141  LYS141      0.1093
     90  NZ       128.7510   39.9160   70.2980 N.3   141  LYS141     -0.1314
@<TRIPOS>BOND
     1    74    73    2
     2    73    72    1
     3    81    79    1
     4    78    77    1
     5    78    79    2
     6    75    72    1
     7    75    76    1
     8    25    23   am
     9    77    76    1
    10    79    80    1
    11    72    71    1
    12    23    22    1
    13    23    24    2
    14    22    21    1
    15    17    18    1
    16    21    18    1
    17    69    68    2
    18    64    65    1
    19    64    63    1
    20    18    19    1
    21    61    60    2
    22    68    67    1
    23    62    63    1
    24    62    59    1
    25    60    59    1
    26    19    20    2
    27    59    58    1
    28    67    70    1
    29    67    66    1
    30    13    12    2
    31    12    11    1
    32    30    27    1
    33    58    52   am
    34    26    27    1
    35    53    52    2
    36    14    11    1
    37    14    15    1
    38    27    28    1
    39    11    10    1
    40    52    51    1
    41    15    16    1
    42     9     7   ar
    43    10    16    1
    44    10     3   am
    45    28    31   am
    46    28    29    2
    47    31    32    1
    48     4     3    2
    49     6     7    1
    50     6     5    1
    51    51    50    1
    52    51    54    1
    53     7     8   ar
    54     3     2    1
    55    35    32    1
    56    54    55    1
    57    32    33    1
    58    88    89    1
    59    88    87    1
    60    89    90    1
    61     5     2    1
    62     2     1    1
    63    33    34    2
    64    55    56    1
    65    55    57    1
    66    87    86    1
    67    86    83    1
    68    40    41    1
    69    40    37    1
    70    36    37    1
    71    41    42   ar
    72    41    43   ar
    73    42    44   ar
    74    83    82    1
    75    83    84    1
    76    46    43   ar
    77    46    48   ar
    78    43    45   ar
    79    37    38    1
    80    44    45   ar
    81    48    49   ar
    82    45    47   ar
    83    49    47   ar
    84    85    84    2
    85    38    39    2
