@<TRIPOS>MOLECULE
tmp/5uc4B00.pdb
 127 116 0 0 0
SMALL
GASTEIGER

@<TRIPOS>ATOM
      1  N         21.3770   89.3020   35.9800 N.3    35  LEU35      -0.1245
      2  CA        22.4700   89.5670   35.0580 C.3    35  LEU35       0.1561
      3  C         23.0110   90.9810   35.2450 C.2    35  LEU35       0.2260
      4  O         24.2300   91.1950   35.2710 O.2    35  LEU35      -0.2867
      5  CB        21.9930   89.3470   33.6240 C.3    35  LEU35       0.0270
      6  CG        21.6030   87.8940   33.3140 C.3    35  LEU35       0.0019
      7  CD1       21.1920   87.7410   31.8620 C.3    35  LEU35       0.0001
      8  CD2       22.7330   86.9220   33.6480 C.3    35  LEU35       0.0001
      9  N         25.1700   91.1800   38.3340 N.3    38  ASN38      -0.1225
     10  CA        26.5250   90.6850   38.0820 C.3    38  ASN38       0.1785
     11  C         27.3440   91.7230   37.3260 C.2    38  ASN38       0.2597
     12  O         28.5000   91.9930   37.6770 O.2    38  ASN38      -0.2718
     13  CB        26.4880   89.3720   37.2930 C.3    38  ASN38       0.1169
     14  CG        26.0340   88.1900   38.1450 C.2    38  ASN38       0.2627
     15  OD1       26.0570   88.2580   39.3690 O.2    38  ASN38      -0.2716
     16  ND2       25.6110   87.1070   37.4940 N.am   38  ASN38      -0.0877
     17  N         26.7590   92.3030   36.2680 N.am   39  ALA39      -0.1979
     18  CA        27.4210   93.3860   35.5420 C.3    39  ALA39       0.1597
     19  C         27.8110   94.5250   36.4730 C.2    39  ALA39       0.2287
     20  O         28.9450   95.0230   36.4180 O.2    39  ALA39      -0.2864
     21  CB        26.5180   93.9060   34.4240 C.3    39  ALA39       0.0319
     22  N         28.3740   94.4350   39.7020 N.3    41  ASP41      -0.1225
     23  CA        29.4920   94.0230   40.5500 C.3    41  ASP41       0.1805
     24  C         30.8120   94.0620   39.7820 C.2    41  ASP41       0.2597
     25  O         31.8360   94.4830   40.3280 O.2    41  ASP41      -0.2718
     26  CB        29.2500   92.6180   41.1240 C.3    41  ASP41       0.1424
     27  CG        28.0910   92.5720   42.1320 C.2    41  ASP41       0.3668
     28  OD1       27.6640   93.6470   42.6250 O.co2  41  ASP41      -0.2456
     29  OD2       27.6110   91.4500   42.4390 O.co2  41  ASP41      -0.2456
     30  N         30.8130   93.6130   38.5190 N.am   42  ALA42      -0.1979
     31  CA        32.0510   93.6230   37.7330 C.3    42  ALA42       0.1597
     32  C         32.5140   95.0470   37.4390 C.2    42  ALA42       0.2287
     33  O         33.7200   95.3210   37.3810 O.2    42  ALA42      -0.2864
     34  CB        31.8540   92.8460   36.4270 C.3    42  ALA42       0.0319
     35  N         34.2320   96.5190   40.3900 N.3    45  LYS45      -0.1245
     36  CA        35.5760   95.9630   40.5540 C.3    45  LYS45       0.1561
     37  C         36.6000   96.7310   39.7230 C.2    45  LYS45       0.2260
     38  O         37.6580   97.1140   40.2290 O.2    45  LYS45      -0.2867
     39  CB        35.5730   94.4780   40.1710 C.3    45  LYS45       0.0271
     40  CG        36.7650   93.6780   40.6840 C.3    45  LYS45       0.0035
     41  CD        36.6650   93.4610   42.1820 C.3    45  LYS45       0.0206
     42  CE        37.6910   92.4600   42.6820 C.3    45  LYS45       0.1093
     43  NZ        39.0760   92.8810   42.3570 N.3    45  LYS45      -0.1314
     44  N         23.4260   91.2650   26.8120 N.3    78  LEU78      -0.1245
     45  CA        23.8720   92.2550   27.7920 C.3    78  LEU78       0.1561
     46  C         25.3850   92.3390   27.7370 C.2    78  LEU78       0.2260
     47  O         26.0670   91.3180   27.8940 O.2    78  LEU78      -0.2867
     48  CB        23.4420   91.8950   29.2100 C.3    78  LEU78       0.0270
     49  CG        21.9560   91.8410   29.4960 C.3    78  LEU78       0.0019
     50  CD1       21.4180   90.4370   29.1950 C.3    78  LEU78       0.0001
     51  CD2       21.7390   92.2520   30.9520 C.3    78  LEU78       0.0001
     52  N         28.6670   94.5230   29.3700 N.3    80  ASP80      -0.1239
     53  CA        29.1520   95.5010   30.3290 C.3    80  ASP80       0.1674
     54  C         30.6430   95.6940   30.0980 C.2    80  ASP80       0.2266
     55  O         31.3110   94.8510   29.4940 O.2    80  ASP80      -0.2867
     56  CB        28.8590   95.0780   31.7830 C.3    80  ASP80       0.1410
     57  CG        29.6500   93.8310   32.2150 C.2    80  ASP80       0.3668
     58  OD1       30.8950   93.9130   32.3430 O.co2  80  ASP80      -0.2456
     59  OD2       29.0230   92.7650   32.4240 O.co2  80  ASP80      -0.2456
     60  N         35.2390   94.4730   34.8810 N.3    83  ILE83      -0.1231
     61  CA        36.5700   93.8880   34.9700 C.3    83  ILE83       0.1692
     62  C         36.7390   92.6720   34.0690 C.2    83  ILE83       0.2593
     63  O         37.8720   92.3450   33.6950 O.2    83  ILE83      -0.2718
     64  CB        36.8680   93.5350   36.4390 C.3    83  ILE83       0.0266
     65  CG1       38.3420   93.1810   36.6430 C.3    83  ILE83       0.0019
     66  CG2       35.9980   92.3980   36.9140 C.3    83  ILE83       0.0020
     67  CD1       39.2500   94.3630   36.5870 C.3    83  ILE83       0.0001
     68  N         35.6530   91.9740   33.7140 N.am   84  GLY84      -0.1942
     69  CA        35.8060   90.7830   32.8770 C.3    84  GLY84       0.2014
     70  C         36.4020   89.6140   33.6570 C.2    84  GLY84       0.2638
     71  O         36.6420   89.6880   34.8640 O.2    84  GLY84      -0.2714
     72  N         36.6430   88.5170   32.9380 N.am   85  MET85      -0.1976
     73  CA        37.0920   87.2720   33.5550 C.3    85  MET85       0.1605
     74  C         38.2540   86.6720   32.7700 C.2    85  MET85       0.2287
     75  O         38.2080   86.5980   31.5390 O.2    85  MET85      -0.2864
     76  CB        35.9470   86.2390   33.6400 C.3    85  MET85       0.0413
     77  CG        34.9080   86.4900   34.7610 C.3    85  MET85       0.0598
     78  SD        33.5100   85.3400   34.5750 S.3    85  MET85      -0.1393
     79  CE        32.8260   85.8930   33.0010 C.3    85  MET85       0.0692
     80  N         34.4400   79.8930   37.8360 N.3    93  ASN93      -0.1225
     81  CA        33.2520   80.5550   38.3780 C.3    93  ASN93       0.1785
     82  C         31.9630   79.9310   37.8590 C.2    93  ASN93       0.2597
     83  O         31.0080   79.7520   38.6200 O.2    93  ASN93      -0.2718
     84  CB        33.2580   82.0560   38.0510 C.3    93  ASN93       0.1169
     85  CG        34.3620   82.8130   38.7790 C.2    93  ASN93       0.2627
     86  OD1       35.0080   82.2720   39.6680 O.2    93  ASN93      -0.2716
     87  ND2       34.5790   84.0710   38.3990 N.am   93  ASN93      -0.0877
     88  N         31.8990   79.6220   36.5650 N.am   94  LEU94      -0.1980
     89  CA        30.6530   79.1200   35.9930 C.3    94  LEU94       0.1596
     90  C         30.5390   77.6040   36.0560 C.2    94  LEU94       0.2287
     91  O         29.4200   77.0690   36.0880 O.2    94  LEU94      -0.2864
     92  CB        30.5190   79.5690   34.5340 C.3    94  LEU94       0.0297
     93  CG        30.3840   81.0860   34.3370 C.3    94  LEU94       0.0022
     94  CD1       31.4750   81.8340   35.0960 C.3    94  LEU94       0.0001
     95  CD2       30.4040   81.4530   32.8660 C.3    94  LEU94       0.0001
     96  N         23.2740   84.0750   38.0690 N.3   125  PHE125     -0.1241
     97  CA        23.5400   83.9290   36.6390 C.3   125  PHE125      0.1605
     98  C         22.7000   82.8150   36.0200 C.2   125  PHE125      0.2264
     99  O         22.1780   82.9660   34.9090 O.2   125  PHE125     -0.2867
    100  CB        25.0230   83.6460   36.4040 C.3   125  PHE125      0.0534
    101  CG        25.3200   83.0780   35.0350 C.ar  125  PHE125     -0.0203
    102  CD1       25.1980   83.8730   33.9040 C.ar  125  PHE125     -0.0042
    103  CD2       25.7030   81.7590   34.8820 C.ar  125  PHE125     -0.0042
    104  CE1       25.4650   83.3540   32.6390 C.ar  125  PHE125     -0.0003
    105  CE2       25.9770   81.2320   33.6290 C.ar  125  PHE125     -0.0003
    106  CZ        25.8560   82.0420   32.5040 C.ar  125  PHE125     -0.0000
    107  N         28.7130   83.2760   26.9040 N.3   137  VAL137     -0.1245
    108  CA        29.3640   84.3340   27.6760 C.3   137  VAL137      0.1561
    109  C         30.7080   84.6180   27.0300 C.2   137  VAL137      0.2260
    110  O         31.5670   83.7290   26.9570 O.2   137  VAL137     -0.2867
    111  CB        29.5320   83.9610   29.1560 C.3   137  VAL137      0.0252
    112  CG1       30.2370   85.1000   29.9230 C.3   137  VAL137      0.0019
    113  CG2       28.1650   83.6670   29.7910 C.3   137  VAL137      0.0019
    114  N         32.3440   91.8540   29.8680 N.3   171  THR171     -0.1218
    115  CA        31.6540   90.5920   29.6470 C.3   171  THR171      0.1862
    116  C         30.3980   90.8330   28.8270 C.2   171  THR171      0.2287
    117  O         29.6580   91.7910   29.0730 O.2   171  THR171     -0.2866
    118  CB        31.2900   89.9250   30.9830 C.3   171  THR171      0.1770
    119  OG1       32.4880   89.5020   31.6240 O.3   171  THR171     -0.2211
    120  CG2       30.3880   88.7300   30.7760 C.3   171  THR171      0.0375
    121  N         26.9330   88.7550   27.6770 N.3   173  VAL173     -0.1245
    122  CA        26.0610   87.5910   27.8690 C.3   173  VAL173      0.1561
    123  C         25.0380   87.5770   26.7450 C.2   173  VAL173      0.2260
    124  O         24.2970   88.5530   26.5600 O.2   173  VAL173     -0.2867
    125  CB        25.3480   87.6220   29.2340 C.3   173  VAL173      0.0252
    126  CG1       24.4200   86.4100   29.3890 C.3   173  VAL173      0.0019
    127  CG2       26.3530   87.6630   30.3600 C.3   173  VAL173      0.0019
@<TRIPOS>BOND
     1   124   123    2
     2   123   122    1
     3    44    45    1
     4   107   108    1
     5   110   109    2
     6   109   108    1
     7   108   111    1
     8   121   122    1
     9    46    45    1
    10    46    47    2
    11    45    48    1
    12   122   125    1
    13   116   117    2
    14   116   115    1
    15   111   113    1
    16   111   112    1
    17    50    49    1
    18    48    49    1
    19   125   126    1
    20   125   127    1
    21    52    53    1
    22    55    54    2
    23    49    51    1
    24   115   114    1
    25   115   118    1
    26    54    53    1
    27    53    56    1
    28   120   118    1
    29   118   119    1
    30    75    74    2
    31    56    57    1
    32     7     6    1
    33    57    58   ar
    34    57    59   ar
    35   106   104   ar
    36   106   105   ar
    37   104   102   ar
    38    74    73    1
    39    95    93    1
    40    69    70    1
    41    69    68    1
    42    72    73    1
    43    72    70   am
    44    79    78    1
    45     6     5    1
    46     6     8    1
    47    73    76    1
    48     5     2    1
    49   105   103   ar
    50    76    77    1
    51    70    71    2
    52    63    62    2
    53    68    62   am
    54   102   101   ar
    55    62    61    1
    56    93    92    1
    57    93    94    1
    58    21    18    1
    59    92    89    1
    60    78    77    1
    61    60    61    1
    62   103   101   ar
    63    99    98    2
    64    61    64    1
    65   101   100    1
    66     2     3    1
    67     2     1    1
    68     3     4    2
    69    18    17    1
    70    18    19    1
    71    89    90    1
    72    89    88    1
    73    98    97    1
    74    90    91    2
    75    17    11   am
    76   100    97    1
    77    20    19    2
    78    34    31    1
    79    64    65    1
    80    64    66    1
    81    88    82   am
    82    67    65    1
    83    97    96    1
    84    13    10    1
    85    13    14    1
    86    11    12    2
    87    11    10    1
    88    33    32    2
    89    32    31    1
    90    16    14   am
    91    31    30    1
    92    80    81    1
    93    82    81    1
    94    82    83    2
    95    84    81    1
    96    84    85    1
    97    10     9    1
    98    14    15    2
    99    87    85   am
   100    30    24   am
   101    85    86    2
   102    22    23    1
   103    37    38    2
   104    37    36    1
   105    24    25    2
   106    24    23    1
   107    39    36    1
   108    39    40    1
   109    35    36    1
   110    23    26    1
   111    40    41    1
   112    26    27    1
   113    27    29   ar
   114    27    28   ar
   115    41    42    1
   116    43    42    1
