@<TRIPOS>MOLECULE
tmp/5uc9A00.pdb
 194 187 0 0 0
SMALL
GASTEIGER

@<TRIPOS>ATOM
      1  N         14.1180   -9.6990  -14.8760 N.3    19  GLU19      -0.1245
      2  CA        14.0700  -10.7330  -15.9100 C.3    19  GLU19       0.1567
      3  C         15.2620  -10.6700  -16.8560 C.2    19  GLU19       0.2260
      4  O         15.5900  -11.6790  -17.4940 O.2    19  GLU19      -0.2867
      5  CB        12.7860  -10.6110  -16.7480 C.3    19  GLU19       0.0388
      6  CG        11.4760  -10.5490  -15.9560 C.3    19  GLU19       0.1160
      7  CD        10.9210  -11.9160  -15.5730 C.2    19  GLU19       0.3649
      8  OE1       11.1660  -12.8940  -16.3140 O.co2  19  GLU19      -0.2457
      9  OE2       10.2310  -12.0080  -14.5280 O.co2  19  GLU19      -0.2457
     10  N         21.8840  -13.9130  -14.6120 N.3    23  PHE23      -0.1227
     11  CA        21.5420  -15.2030  -14.0230 C.3    23  PHE23       0.1736
     12  C         20.2860  -15.7910  -14.6560 C.2    23  PHE23       0.2595
     13  O         20.2360  -16.9910  -14.9490 O.2    23  PHE23      -0.2718
     14  CB        21.3480  -15.0800  -12.5140 C.3    23  PHE23       0.0547
     15  CG        20.9100  -16.3640  -11.8710 C.ar   23  PHE23      -0.0202
     16  CD1       21.8470  -17.3070  -11.4950 C.ar   23  PHE23      -0.0042
     17  CD2       19.5610  -16.6440  -11.6780 C.ar   23  PHE23      -0.0042
     18  CE1       21.4540  -18.5010  -10.9180 C.ar   23  PHE23      -0.0003
     19  CE2       19.1630  -17.8300  -11.1050 C.ar   23  PHE23      -0.0003
     20  CZ        20.1070  -18.7630  -10.7210 C.ar   23  PHE23      -0.0000
     21  N         19.2630  -14.9640  -14.8680 N.am   24  VAL24      -0.1980
     22  CA        18.0260  -15.4650  -15.4620 C.3    24  VAL24       0.1595
     23  C         18.2560  -15.9010  -16.9050 C.2    24  VAL24       0.2287
     24  O         17.7850  -16.9600  -17.3350 O.2    24  VAL24      -0.2864
     25  CB        16.9200  -14.4040  -15.3760 C.3    24  VAL24       0.0276
     26  CG1       15.6880  -14.8910  -16.0960 C.3    24  VAL24       0.0022
     27  CG2       16.6140  -14.0590  -13.9260 C.3    24  VAL24       0.0022
     28  N         20.1530  -19.1710  -16.8340 N.3    27  PHE27      -0.1227
     29  CA        19.3170  -20.2770  -16.3870 C.3    27  PHE27       0.1736
     30  C         18.4170  -20.7750  -17.5110 C.2    27  PHE27       0.2595
     31  O         18.3840  -21.9760  -17.8070 O.2    27  PHE27      -0.2718
     32  CB        18.4700  -19.8580  -15.1890 C.3    27  PHE27       0.0547
     33  CG        17.5140  -20.9240  -14.7490 C.ar   27  PHE27      -0.0202
     34  CD1       17.9200  -21.9060  -13.8670 C.ar   27  PHE27      -0.0042
     35  CD2       16.2130  -20.9600  -15.2350 C.ar   27  PHE27      -0.0042
     36  CE1       17.0480  -22.9100  -13.4750 C.ar   27  PHE27      -0.0003
     37  CE2       15.3370  -21.9560  -14.8440 C.ar   27  PHE27      -0.0003
     38  CZ        15.7540  -22.9270  -13.9710 C.ar   27  PHE27      -0.0000
     39  N         17.6790  -19.8590  -18.1470 N.am   28  LEU28      -0.1980
     40  CA        16.7340  -20.2520  -19.1880 C.3    28  LEU28       0.1596
     41  C         17.4270  -20.9250  -20.3690 C.2    28  LEU28       0.2287
     42  O         16.8000  -21.7270  -21.0780 O.2    28  LEU28      -0.2864
     43  CB        15.9390  -19.0300  -19.6440 C.3    28  LEU28       0.0297
     44  CG        14.9880  -18.4530  -18.5900 C.3    28  LEU28       0.0022
     45  CD1       14.3420  -17.1690  -19.0720 C.3    28  LEU28       0.0001
     46  CD2       13.9250  -19.4690  -18.2220 C.3    28  LEU28       0.0001
     47  N         22.9030  -23.6190   -8.6400 N.3    37  PHE37      -0.1241
     48  CA        21.4730  -23.8390   -8.4300 C.3    37  PHE37       0.1605
     49  C         21.1650  -24.1550   -6.9650 C.2    37  PHE37       0.2264
     50  O         20.0940  -23.7910   -6.4520 O.2    37  PHE37      -0.2867
     51  CB        20.9980  -24.9630   -9.3530 C.3    37  PHE37       0.0534
     52  CG        19.5080  -25.1290   -9.3800 C.ar   37  PHE37      -0.0203
     53  CD1       18.7180  -24.2840  -10.1360 C.ar   37  PHE37      -0.0042
     54  CD2       18.9020  -26.1240   -8.6370 C.ar   37  PHE37      -0.0042
     55  CE1       17.3320  -24.4260  -10.1400 C.ar   37  PHE37      -0.0003
     56  CE2       17.5250  -26.2760   -8.6380 C.ar   37  PHE37      -0.0003
     57  CZ        16.7350  -25.4300   -9.3870 C.ar   37  PHE37      -0.0000
     58  N         21.0450  -20.8130   -5.3000 N.3    40  ALA40      -0.1245
     59  CA        19.8020  -20.1120   -5.6110 C.3    40  ALA40       0.1562
     60  C         18.6400  -20.7140   -4.8260 C.2    40  ALA40       0.2260
     61  O         17.7480  -19.9950   -4.3530 O.2    40  ALA40      -0.2867
     62  CB        19.5290  -20.1660   -7.1210 C.3    40  ALA40       0.0290
     63  N         18.6810  -19.5590   -1.2530 N.3    43  ALA43      -0.1231
     64  CA        18.0930  -18.2320   -1.1290 C.3    43  ALA43       0.1694
     65  C         16.5680  -18.3040   -1.0900 C.2    43  ALA43       0.2591
     66  O         15.9220  -17.5970   -0.3000 O.2    43  ALA43      -0.2718
     67  CB        18.5800  -17.3420   -2.2710 C.3    43  ALA43       0.0304
     68  N         15.9730  -19.1640   -1.9230 N.am   44  LEU44      -0.1980
     69  CA        14.5230  -19.3230   -1.9010 C.3    44  LEU44       0.1596
     70  C         14.0540  -19.8920   -0.5700 C.2    44  LEU44       0.2287
     71  O         13.0190  -19.4760   -0.0410 O.2    44  LEU44      -0.2864
     72  CB        14.0670  -20.2410   -3.0440 C.3    44  LEU44       0.0297
     73  CG        14.2690  -19.7200   -4.4680 C.3    44  LEU44       0.0022
     74  CD1       14.0650  -20.8480   -5.4920 C.3    44  LEU44       0.0001
     75  CD2       13.3230  -18.5630   -4.7360 C.3    44  LEU44       0.0001
     76  N         14.0400  -17.1670    1.9570 N.3    47  THR47      -0.1218
     77  CA        13.0460  -16.1690    1.5780 C.3    47  THR47       0.1862
     78  C         11.6410  -16.6470    1.8920 C.2    47  THR47       0.2287
     79  O         10.8600  -15.9320    2.5290 O.2    47  THR47      -0.2866
     80  CB        13.1550  -15.8360    0.0870 C.3    47  THR47       0.1770
     81  OG1       14.4220  -15.2100   -0.1740 O.3    47  THR47      -0.2211
     82  CG2       12.0140  -14.8980   -0.3190 C.3    47  THR47       0.0375
     83  N         16.6990   -9.1370    2.0540 N.3   104  TYR104     -0.1241
     84  CA        15.2920   -9.3000    1.7070 C.3   104  TYR104      0.1605
     85  C         14.5230   -9.9310    2.8610 C.2   104  TYR104      0.2264
     86  O         13.4130   -9.4890    3.1850 O.2   104  TYR104     -0.2867
     87  CB        15.1550  -10.1340    0.4280 C.3   104  TYR104      0.0534
     88  CG        13.7230  -10.2160   -0.0710 C.ar  104  TYR104     -0.0201
     89  CD1       12.9470   -9.0760   -0.1670 C.ar  104  TYR104     -0.0009
     90  CD2       13.1510  -11.4320   -0.4510 C.ar  104  TYR104     -0.0009
     91  CE1       11.6340   -9.1350   -0.6230 C.ar  104  TYR104      0.0417
     92  CE2       11.8360  -11.4960   -0.9040 C.ar  104  TYR104      0.0417
     93  CZ        11.0850  -10.3420   -0.9930 C.ar  104  TYR104      0.1957
     94  OH         9.7700  -10.3780   -1.4420 O.3   104  TYR104     -0.2866
     95  N          3.7030  -10.6710   -5.6130 N.3   125  THR125     -0.1203
     96  CA         4.8340  -10.7190   -6.5290 C.3   125  THR125      0.1994
     97  C          5.4930  -12.0890   -6.5540 C.2   125  THR125      0.2617
     98  O          5.8710  -12.5800   -7.6270 O.2   125  THR125     -0.2717
     99  CB         5.8420   -9.6450   -6.1440 C.3   125  THR125      0.1784
    100  OG1        5.1720   -8.3810   -6.1360 O.3   125  THR125     -0.2211
    101  CG2        6.9660   -9.5920   -7.1530 C.3   125  THR125      0.0376
    102  N          5.6630  -12.7190   -5.3910 N.am  126  ARG126     -0.1979
    103  CA         6.2960  -14.0310   -5.3740 C.3   126  ARG126      0.1597
    104  C          5.3570  -15.1050   -5.9330 C.2   126  ARG126      0.2287
    105  O          5.6890  -15.7780   -6.9150 O.2   126  ARG126     -0.2864
    106  CB         6.7650  -14.3890   -3.9580 C.3   126  ARG126      0.0334
    107  CG         8.0840  -13.6940   -3.5010 C.3   126  ARG126      0.0492
    108  CD         9.1880  -13.7120   -4.5770 C.3   126  ARG126      0.2205
    109  NE         9.4370  -15.0450   -5.1350 N.pl3 126  ARG126     -0.0865
    110  CZ        10.3960  -15.3340   -6.0160 C.cat 126  ARG126      0.5346
    111  NH1       11.2190  -14.3890   -6.4580 N.pl3 126  ARG126      0.1354
    112  NH2       10.5320  -16.5780   -6.4680 N.pl3 126  ARG126      0.1354
    113  N         10.0920  -23.3940  -15.5300 N.3   137  LEU137     -0.1245
    114  CA        11.3530  -23.4110  -14.7940 C.3   137  LEU137      0.1561
    115  C         11.7240  -24.8200  -14.3500 C.2   137  LEU137      0.2260
    116  O         12.9020  -25.1930  -14.3820 O.2   137  LEU137     -0.2867
    117  CB        11.2690  -22.4770  -13.5940 C.3   137  LEU137      0.0270
    118  CG        10.9830  -21.0160  -13.9330 C.3   137  LEU137      0.0019
    119  CD1       11.0070  -20.1870  -12.6340 C.3   137  LEU137      0.0001
    120  CD2       12.0170  -20.5140  -14.9360 C.3   137  LEU137      0.0001
    121  N          9.6640  -27.2130   -5.3850 N.3   156  PHE156     -0.1227
    122  CA         9.2860  -25.8080   -5.2580 C.3   156  PHE156      0.1736
    123  C          8.4080  -25.3410   -6.4110 C.2   156  PHE156      0.2595
    124  O          7.5120  -24.5150   -6.2150 O.2   156  PHE156     -0.2718
    125  CB        10.5510  -24.9360   -5.1730 C.3   156  PHE156      0.0547
    126  CG        10.2850  -23.4620   -5.3120 C.ar  156  PHE156     -0.0202
    127  CD1        9.6580  -22.7540   -4.2890 C.ar  156  PHE156     -0.0042
    128  CD2       10.6700  -22.7780   -6.4580 C.ar  156  PHE156     -0.0042
    129  CE1        9.4200  -21.3880   -4.4120 C.ar  156  PHE156     -0.0003
    130  CE2       10.4380  -21.4100   -6.5920 C.ar  156  PHE156     -0.0003
    131  CZ         9.8210  -20.7120   -5.5650 C.ar  156  PHE156     -0.0000
    132  N          8.6360  -25.8670   -7.6140 N.am  157  TYR157     -0.1976
    133  CA         8.0030  -25.3690   -8.8260 C.3   157  TYR157      0.1639
    134  C          6.6530  -26.0190   -9.1020 C.2   157  TYR157      0.2290
    135  O          5.9510  -25.5810  -10.0160 O.2   157  TYR157     -0.2864
    136  CB         8.9620  -25.5760  -10.0200 C.3   157  TYR157      0.0560
    137  CG        10.2850  -24.8680   -9.8060 C.ar  157  TYR157     -0.0198
    138  CD1       10.4210  -23.5050  -10.0900 C.ar  157  TYR157     -0.0009
    139  CD2       11.3670  -25.5280   -9.2500 C.ar  157  TYR157     -0.0009
    140  CE1       11.6230  -22.8300   -9.8580 C.ar  157  TYR157      0.0417
    141  CE2       12.5720  -24.8590   -9.0020 C.ar  157  TYR157      0.0417
    142  CZ        12.6910  -23.5080   -9.3120 C.ar  157  TYR157      0.1957
    143  OH        13.8940  -22.8390   -9.0790 O.3   157  TYR157     -0.2866
    144  N         10.5730   -5.1710   -3.8130 N.3   196  ALA196     -0.1231
    145  CA        10.7970   -6.6120   -3.8760 C.3   196  ALA196      0.1694
    146  C         11.5410   -7.0080   -5.1460 C.2   196  ALA196      0.2592
    147  O         12.4470   -7.8510   -5.1050 O.2   196  ALA196     -0.2718
    148  CB         9.4630   -7.3540   -3.7780 C.3   196  ALA196      0.0304
    149  N         11.1630   -6.4240   -6.2890 N.am  197  PHE197     -0.1976
    150  CA        11.8610   -6.7380   -7.5290 C.3   197  PHE197      0.1639
    151  C         13.3140   -6.3080   -7.4550 C.2   197  PHE197      0.2290
    152  O         14.1800   -6.9280   -8.0850 O.2   197  PHE197     -0.2864
    153  CB        11.1740   -6.0750   -8.7230 C.3   197  PHE197      0.0560
    154  CG        10.0520   -6.8790   -9.2950 C.ar  197  PHE197     -0.0200
    155  CD1       10.3110   -8.0070  -10.0580 C.ar  197  PHE197     -0.0042
    156  CD2        8.7370   -6.5190   -9.0710 C.ar  197  PHE197     -0.0042
    157  CE1        9.2670   -8.7590  -10.5800 C.ar  197  PHE197     -0.0003
    158  CE2        7.6980   -7.2640   -9.5970 C.ar  197  PHE197     -0.0003
    159  CZ         7.9600   -8.3770  -10.3500 C.ar  197  PHE197     -0.0000
    160  N         15.0530   -8.8490   -5.5510 N.3   200  ASN200     -0.1240
    161  CA        15.1180   -9.9140   -6.5400 C.3   200  ASN200      0.1653
    162  C         16.3430   -9.7570   -7.4250 C.2   200  ASN200      0.2266
    163  O         17.1150  -10.7000   -7.6170 O.2   200  ASN200     -0.2867
    164  CB        13.8370   -9.8750   -7.3800 C.3   200  ASN200      0.1155
    165  CG        13.6120  -11.1360   -8.1950 C.2   200  ASN200      0.2627
    166  OD1       13.7490  -12.2570   -7.6930 O.2   200  ASN200     -0.2716
    167  ND2       13.2490  -10.9580   -9.4640 N.am  200  ASN200     -0.0877
    168  N         19.5830  -10.3450   -5.4930 N.3   203  ILE203     -0.1231
    169  CA        19.8990  -11.7450   -5.2380 C.3   203  ILE203      0.1692
    170  C         20.4420  -12.4020   -6.5020 C.2   203  ILE203      0.2592
    171  O         21.4400  -13.1350   -6.4520 O.2   203  ILE203     -0.2718
    172  CB        18.6670  -12.4850   -4.6790 C.3   203  ILE203      0.0266
    173  CG1       18.2670  -11.8830   -3.3220 C.3   203  ILE203      0.0019
    174  CG2       18.9630  -13.9830   -4.5210 C.3   203  ILE203      0.0020
    175  CD1       16.9290  -12.3750   -2.8250 C.3   203  ILE203      0.0001
    176  N         19.8060  -12.1390   -7.6550 N.am  204  PHE204     -0.1976
    177  CA        20.2960  -12.6600   -8.9340 C.3   204  PHE204      0.1639
    178  C         21.7480  -12.2460   -9.1760 C.2   204  PHE204      0.2290
    179  O         22.5890  -13.0650   -9.5680 O.2   204  PHE204     -0.2864
    180  CB        19.4150  -12.1530  -10.0870 C.3   204  PHE204      0.0560
    181  CG        18.0800  -12.8620  -10.2280 C.ar  204  PHE204     -0.0200
    182  CD1       17.9680  -14.2330  -10.0440 C.ar  204  PHE204     -0.0042
    183  CD2       16.9400  -12.1470  -10.5690 C.ar  204  PHE204     -0.0042
    184  CE1       16.7180  -14.8840  -10.1980 C.ar  204  PHE204     -0.0003
    185  CE2       15.6990  -12.7850  -10.7120 C.ar  204  PHE204     -0.0003
    186  CZ        15.5930  -14.1500  -10.5160 C.ar  204  PHE204     -0.0000
    187  N         24.1300  -14.0990   -7.0830 N.3   207  LEU207     -0.1245
    188  CA        24.3250  -15.4300   -7.6430 C.3   207  LEU207      0.1561
    189  C         25.2480  -15.3970   -8.8470 C.2   207  LEU207      0.2260
    190  O         26.0800  -16.2970   -9.0200 O.2   207  LEU207     -0.2867
    191  CB        22.9850  -16.0350   -8.0420 C.3   207  LEU207      0.0270
    192  CG        22.1410  -16.3930   -6.8390 C.3   207  LEU207      0.0019
    193  CD1       20.7200  -16.6820   -7.3060 C.3   207  LEU207      0.0001
    194  CD2       22.7560  -17.5910   -6.1570 C.3   207  LEU207      0.0001
@<TRIPOS>BOND
     1    42    41    2
     2    41    40    1
     3    43    40    1
     4    43    44    1
     5    40    39    1
     6    45    44    1
     7    44    46    1
     8    39    30   am
     9    31    30    2
    10    30    29    1
    11     4     3    2
    12    24    23    2
    13    23    22    1
    14     3     2    1
    15    28    29    1
    16     5     6    1
    17     5     2    1
    18    29    32    1
    19     8     7   ar
    20    26    25    1
    21     6     7    1
    22     2     1    1
    23     7     9   ar
    24   113   114    1
    25    22    25    1
    26    22    21    1
    27    25    27    1
    28    35    37   ar
    29    35    33   ar
    30    32    33    1
    31    13    12    2
    32   120   118    1
    33    21    12   am
    34    37    38   ar
    35   114   115    1
    36   114   117    1
    37    33    34   ar
    38    12    11    1
    39    10    11    1
    40   116   115    2
    41    11    14    1
    42    38    36   ar
    43   118   117    1
    44   118   119    1
    45    34    36   ar
    46    14    15    1
    47    15    17   ar
    48    15    16   ar
    49    17    19   ar
    50    16    18   ar
    51    19    20   ar
    52    18    20   ar
    53   185   183   ar
    54   185   186   ar
    55   157   159   ar
    56   157   155   ar
    57   183   181   ar
    58   186   184   ar
    59   159   158   ar
    60   181   180    1
    61   181   182   ar
    62   184   182   ar
    63    55    53   ar
    64    55    57   ar
    65    53    52   ar
    66   138   140   ar
    67   138   137   ar
    68   180   177    1
    69   155   154   ar
    70   136   137    1
    71   136   133    1
    72   135   134    2
    73   140   142   ar
    74   137   139   ar
    75   158   156   ar
    76   179   178    2
    77   167   165   am
    78    57    56   ar
    79    52    51    1
    80    52    54   ar
    81    51    48    1
    82   142   143    1
    83   142   141   ar
    84   154   156   ar
    85   154   153    1
    86   139   141   ar
    87   178   177    1
    88   134   133    1
    89   190   189    2
    90   177   176    1
    91   189   188    1
    92   133   132    1
    93   153   150    1
    94    47    48    1
    95    56    54   ar
    96    48    49    1
    97   165   166    2
    98   165   164    1
    99   152   151    2
   100   191   188    1
   101   191   192    1
   102   176   170   am
   103   188   187    1
   104    98    97    2
   105   163   162    2
   106   132   123   am
   107   150   151    1
   108   150   149    1
   109   162   161    1
   110   164   161    1
   111   193   192    1
   112   101    99    1
   113    62    59    1
   114    49    50    2
   115   105   104    2
   116   192   194    1
   117   130   128   ar
   118   130   131   ar
   119    97    96    1
   120    97   102   am
   121   161   160    1
   122    96    99    1
   123    96    95    1
   124   170   171    2
   125   170   169    1
   126   112   110    1
   127   111   110    1
   128   128   126   ar
   129   123   124    2
   130   123   122    1
   131   149   146   am
   132    99   100    1
   133   110   109    2
   134   104   103    1
   135    59    58    1
   136    59    60    1
   137   131   129   ar
   138   168   169    1
   139    74    73    1
   140   102   103    1
   141   121   122    1
   142   103   106    1
   143   126   125    1
   144   126   127   ar
   145   122   125    1
   146   169   172    1
   147   146   147    2
   148   146   145    1
   149   109   108    1
   150    60    61    2
   151    75    73    1
   152   172   174    1
   153   172   173    1
   154   108   107    1
   155    73    72    1
   156   129   127   ar
   157   106   107    1
   158   145   144    1
   159   145   148    1
   160   173   175    1
   161    72    69    1
   162    67    64    1
   163    68    69    1
   164    68    65   am
   165    69    70    1
   166    94    93    1
   167    63    64    1
   168    64    65    1
   169    65    66    2
   170    93    92   ar
   171    93    91   ar
   172    92    90   ar
   173    91    89   ar
   174    70    71    2
   175    90    88   ar
   176    82    80    1
   177    81    80    1
   178    89    88   ar
   179    88    87    1
   180    80    77    1
   181    87    84    1
   182    77    78    1
   183    77    76    1
   184    84    83    1
   185    84    85    1
   186    78    79    2
   187    85    86    2
