@<TRIPOS>MOLECULE
tmp/5ucaC00.pdb
 171 164 0 0 0
SMALL
GASTEIGER

@<TRIPOS>ATOM
      1  N        -21.3020   -6.2640  -18.7010 N.3    19  GLU19      -0.1245
      2  CA       -21.3410   -5.2120  -17.6890 C.3    19  GLU19       0.1567
      3  C        -20.1740   -5.3000  -16.7170 C.2    19  GLU19       0.2260
      4  O        -19.8170   -4.2900  -16.1010 O.2    19  GLU19      -0.2867
      5  CB       -22.6480   -5.2780  -16.8890 C.3    19  GLU19       0.0388
      6  CG       -23.8960   -4.8610  -17.6480 C.3    19  GLU19       0.1160
      7  CD       -23.8000   -3.4470  -18.1900 C.2    19  GLU19       0.3649
      8  OE1      -23.5860   -2.5200  -17.3720 O.co2  19  GLU19      -0.2457
      9  OE2      -23.9290   -3.2640  -19.4280 O.co2  19  GLU19      -0.2457
     10  N        -13.7890   -1.6760  -18.7800 N.3    23  PHE23      -0.1227
     11  CA       -14.2310   -0.4450  -19.4330 C.3    23  PHE23       0.1736
     12  C        -15.5410    0.0590  -18.8290 C.2    23  PHE23       0.2595
     13  O        -15.6580    1.2400  -18.4870 O.2    23  PHE23      -0.2718
     14  CB       -14.3920   -0.6300  -20.9410 C.3    23  PHE23       0.0547
     15  CG       -14.9280    0.5950  -21.6180 C.ar   23  PHE23      -0.0202
     16  CD1      -14.0980    1.6580  -21.8970 C.ar   23  PHE23      -0.0042
     17  CD2      -16.2740    0.7050  -21.9230 C.ar   23  PHE23      -0.0042
     18  CE1      -14.5920    2.7940  -22.4890 C.ar   23  PHE23      -0.0003
     19  CE2      -16.7740    1.8410  -22.4930 C.ar   23  PHE23      -0.0003
     20  CZ       -15.9280    2.8900  -22.7860 C.ar   23  PHE23      -0.0000
     21  N        -16.5360   -0.8160  -18.6880 N.am   24  VAL24      -0.1980
     22  CA       -17.8280   -0.3690  -18.1600 C.3    24  VAL24       0.1595
     23  C        -17.6780    0.0820  -16.7070 C.2    24  VAL24       0.2287
     24  O        -18.1510    1.1620  -16.3250 O.2    24  VAL24      -0.2864
     25  CB       -18.8950   -1.4690  -18.3120 C.3    24  VAL24       0.0276
     26  CG1      -20.1900   -1.0640  -17.5980 C.3    24  VAL24       0.0022
     27  CG2      -19.1700   -1.7480  -19.8060 C.3    24  VAL24       0.0022
     28  N        -15.9750    3.4430  -16.6800 N.3    27  PHE27      -0.1227
     29  CA       -16.8450    4.5100  -17.1510 C.3    27  PHE27       0.1736
     30  C        -17.8280    4.9350  -16.0610 C.2    27  PHE27       0.2595
     31  O        -17.9660    6.1250  -15.7610 O.2    27  PHE27      -0.2718
     32  CB       -17.5940    4.0720  -18.4080 C.3    27  PHE27       0.0547
     33  CG       -18.5420    5.1100  -18.9110 C.ar   27  PHE27      -0.0202
     34  CD1      -18.0960    6.1260  -19.7530 C.ar   27  PHE27      -0.0042
     35  CD2      -19.8740    5.1040  -18.5090 C.ar   27  PHE27      -0.0042
     36  CE1      -18.9630    7.1060  -20.1990 C.ar   27  PHE27      -0.0003
     37  CE2      -20.7490    6.0780  -18.9530 C.ar   27  PHE27      -0.0003
     38  CZ       -20.2900    7.0840  -19.8070 C.ar   27  PHE27      -0.0000
     39  N        -18.5140    3.9660  -15.4520 N.am   28  LEU28      -0.1980
     40  CA       -19.4860    4.2880  -14.4080 C.3    28  LEU28       0.1596
     41  C        -18.8420    5.0370  -13.2400 C.2    28  LEU28       0.2287
     42  O        -19.4720    5.9260  -12.6490 O.2    28  LEU28      -0.2864
     43  CB       -20.1740    3.0050  -13.9390 C.3    28  LEU28       0.0297
     44  CG       -20.9760    2.3290  -15.0580 C.3    28  LEU28       0.0022
     45  CD1      -21.4700    0.9410  -14.6760 C.3    28  LEU28       0.0001
     46  CD2      -22.1380    3.2050  -15.4560 C.3    28  LEU28       0.0001
     47  N        -13.4490    8.4370  -24.7900 N.3    37  PHE37      -0.1241
     48  CA       -14.8750    8.6610  -25.0350 C.3    37  PHE37       0.1605
     49  C        -15.1350    8.9380  -26.5040 C.2    37  PHE37       0.2264
     50  O        -16.1420    8.4800  -27.0530 O.2    37  PHE37      -0.2867
     51  CB       -15.3920    9.8180  -24.1700 C.3    37  PHE37       0.0534
     52  CG       -16.9030   10.0040  -24.2090 C.ar   37  PHE37      -0.0203
     53  CD1      -17.7380    9.1900  -23.4670 C.ar   37  PHE37      -0.0042
     54  CD2      -17.4720   11.0110  -24.9590 C.ar   37  PHE37      -0.0042
     55  CE1      -19.1210    9.3630  -23.4930 C.ar   37  PHE37      -0.0003
     56  CE2      -18.8550   11.1900  -24.9830 C.ar   37  PHE37      -0.0003
     57  CZ       -19.6730   10.3570  -24.2400 C.ar   37  PHE37      -0.0000
     58  N        -15.1250    5.6300  -28.1210 N.3    40  ALA40      -0.1245
     59  CA       -16.3640    4.9080  -27.8310 C.3    40  ALA40       0.1562
     60  C        -17.5130    5.4290  -28.6870 C.2    40  ALA40       0.2260
     61  O        -18.2790    4.6380  -29.2560 O.2    40  ALA40      -0.2867
     62  CB       -16.7200    5.0040  -26.3410 C.3    40  ALA40       0.0290
     63  N        -17.4230    4.1390  -32.1970 N.3    43  ALA43      -0.1231
     64  CA       -17.9140    2.7700  -32.3080 C.3    43  ALA43       0.1694
     65  C        -19.4340    2.7420  -32.2490 C.2    43  ALA43       0.2591
     66  O        -20.0870    1.9940  -32.9940 O.2    43  ALA43      -0.2718
     67  CB       -17.3090    1.9080  -31.1990 C.3    43  ALA43       0.0304
     68  N        -20.0150    3.5730  -31.3860 N.am   44  LEU44      -0.1980
     69  CA       -21.4670    3.7330  -31.3900 C.3    44  LEU44       0.1596
     70  C        -21.9510    4.2200  -32.7500 C.2    44  LEU44       0.2287
     71  O        -22.9190    3.6800  -33.2940 O.2    44  LEU44      -0.2864
     72  CB       -21.9040    4.7020  -30.2780 C.3    44  LEU44       0.0297
     73  CG       -21.7150    4.2870  -28.8160 C.3    44  LEU44       0.0022
     74  CD1      -22.0920    5.4340  -27.8750 C.3    44  LEU44       0.0001
     75  CD2      -22.5570    3.0650  -28.4780 C.3    44  LEU44       0.0001
     76  N        -21.8680    1.3470  -35.3050 N.3    47  THR47      -0.1218
     77  CA       -22.7600    0.2570  -34.9330 C.3    47  THR47       0.1862
     78  C        -24.2190    0.6210  -35.1790 C.2    47  THR47       0.2287
     79  O        -24.9550   -0.1320  -35.8230 O.2    47  THR47      -0.2866
     80  CB       -22.5330   -0.1260  -33.4670 C.3    47  THR47       0.1770
     81  OG1      -21.2070   -0.6440  -33.3140 O.3    47  THR47      -0.2211
     82  CG2      -23.5070   -1.2030  -33.0600 C.3    47  THR47       0.0375
     83  N        -18.8500   -6.5470  -35.4300 N.3   104  TYR104     -0.1241
     84  CA       -20.2640   -6.5080  -35.0500 C.3   104  TYR104      0.1605
     85  C        -21.1030   -5.9080  -36.1780 C.2   104  TYR104      0.2264
     86  O        -22.1600   -6.4430  -36.5210 O.2   104  TYR104     -0.2867
     87  CB       -20.4290   -5.7200  -33.7360 C.3   104  TYR104      0.0534
     88  CG       -21.8280   -5.7380  -33.1580 C.ar  104  TYR104     -0.0201
     89  CD1      -22.6420   -6.8630  -33.2960 C.ar  104  TYR104     -0.0009
     90  CD2      -22.3360   -4.6450  -32.4660 C.ar  104  TYR104     -0.0009
     91  CE1      -23.9220   -6.8970  -32.7660 C.ar  104  TYR104      0.0417
     92  CE2      -23.6470   -4.6700  -31.9310 C.ar  104  TYR104      0.0417
     93  CZ       -24.4250   -5.8090  -32.0930 C.ar  104  TYR104      0.1957
     94  OH       -25.7090   -5.8840  -31.5930 O.3   104  TYR104     -0.2866
     95  N        -29.9050   -3.4380  -27.8920 N.3   126  ARG126     -0.1245
     96  CA       -29.3370   -2.0980  -27.9550 C.3   126  ARG126      0.1563
     97  C        -30.3110   -1.0710  -27.3630 C.2   126  ARG126      0.2260
     98  O        -29.9980   -0.4360  -26.3560 O.2   126  ARG126     -0.2867
     99  CB       -28.9410   -1.7220  -29.3920 C.3   126  ARG126      0.0307
    100  CG       -27.6310   -2.3520  -29.9120 C.3   126  ARG126      0.0489
    101  CD       -26.3910   -2.1300  -28.9990 C.3   126  ARG126      0.2205
    102  NE       -26.3080   -0.8110  -28.3620 N.pl3 126  ARG126     -0.0865
    103  CZ       -25.3980   -0.4840  -27.4390 C.cat 126  ARG126      0.5346
    104  NH1      -24.4970   -1.3790  -27.0650 N.pl3 126  ARG126      0.1354
    105  NH2      -25.3860    0.7340  -26.8780 N.pl3 126  ARG126      0.1354
    106  N        -26.1480    7.3260  -17.7530 N.3   137  LEU137     -0.1245
    107  CA       -24.8940    7.3710  -18.5000 C.3   137  LEU137      0.1561
    108  C        -24.6080    8.7710  -19.0250 C.2   137  LEU137      0.2260
    109  O        -23.4470    9.1850  -19.0820 O.2   137  LEU137     -0.2867
    110  CB       -24.9220    6.3660  -19.6600 C.3   137  LEU137      0.0270
    111  CG       -25.0950    4.8810  -19.3370 C.3   137  LEU137      0.0019
    112  CD1      -25.1380    4.0270  -20.6140 C.3   137  LEU137      0.0001
    113  CD2      -23.9830    4.4160  -18.4070 C.3   137  LEU137      0.0001
    114  N        -26.6960   11.3870  -28.0180 N.3   156  PHE156     -0.1227
    115  CA       -26.9760    9.9650  -28.1580 C.3   156  PHE156      0.1736
    116  C        -27.8530    9.4570  -27.0250 C.2   156  PHE156      0.2595
    117  O        -28.7070    8.5920  -27.2440 O.2   156  PHE156     -0.2718
    118  CB       -25.6670    9.1750  -28.2050 C.3   156  PHE156      0.0547
    119  CG       -25.8470    7.6880  -28.0300 C.ar  156  PHE156     -0.0202
    120  CD1      -26.3260    6.9030  -29.0790 C.ar  156  PHE156     -0.0042
    121  CD2      -25.5530    7.0810  -26.8300 C.ar  156  PHE156     -0.0042
    122  CE1      -26.5020    5.5260  -28.9420 C.ar  156  PHE156     -0.0003
    123  CE2      -25.7170    5.6920  -26.6830 C.ar  156  PHE156     -0.0003
    124  CZ       -26.1860    4.9230  -27.7400 C.ar  156  PHE156     -0.0000
    125  N        -27.6460    9.9700  -25.8040 N.am  157  TYR157     -0.1976
    126  CA       -28.2850    9.4440  -24.6030 C.3   157  TYR157      0.1639
    127  C        -29.6560   10.0560  -24.3330 C.2   157  TYR157      0.2290
    128  O        -30.3250    9.6530  -23.3780 O.2   157  TYR157     -0.2864
    129  CB       -27.3750    9.6430  -23.3820 C.3   157  TYR157      0.0560
    130  CG       -26.0190    9.0200  -23.5770 C.ar  157  TYR157     -0.0198
    131  CD1      -25.7830    7.6840  -23.2410 C.ar  157  TYR157     -0.0009
    132  CD2      -24.9850    9.7450  -24.1490 C.ar  157  TYR157     -0.0009
    133  CE1      -24.5430    7.1010  -23.4530 C.ar  157  TYR157      0.0417
    134  CE2      -23.7440    9.1680  -24.3720 C.ar  157  TYR157      0.0417
    135  CZ       -23.5260    7.8540  -24.0210 C.ar  157  TYR157      0.1957
    136  OH       -22.2840    7.3040  -24.2570 O.3   157  TYR157     -0.2866
    137  N        -20.5600   -6.9490  -27.7830 N.3   200  ASN200     -0.1240
    138  CA       -20.4050   -5.7990  -26.8980 C.3   200  ASN200      0.1653
    139  C        -19.1620   -5.9430  -26.0360 C.2   200  ASN200      0.2266
    140  O        -18.3380   -5.0270  -25.9470 O.2   200  ASN200     -0.2867
    141  CB       -21.6280   -5.6520  -26.0040 C.3   200  ASN200      0.1155
    142  CG       -22.8210   -5.1670  -26.7520 C.2   200  ASN200      0.2627
    143  OD1      -22.7710   -5.0190  -27.9720 O.2   200  ASN200     -0.2716
    144  ND2      -23.9140   -4.9230  -26.0360 N.am  200  ASN200     -0.0877
    145  N        -15.9790   -5.2880  -27.8980 N.3   203  ILE203     -0.1231
    146  CA       -15.7710   -3.8650  -28.1460 C.3   203  ILE203      0.1692
    147  C        -15.2920   -3.1690  -26.8780 C.2   203  ILE203      0.2592
    148  O        -14.3620   -2.3530  -26.9210 O.2   203  ILE203     -0.2718
    149  CB       -17.0570   -3.2370  -28.7090 C.3   203  ILE203      0.0266
    150  CG1      -17.3890   -3.8800  -30.0510 C.3   203  ILE203      0.0019
    151  CG2      -16.9130   -1.7310  -28.8500 C.3   203  ILE203      0.0020
    152  CD1      -18.8240   -3.6480  -30.5240 C.3   203  ILE203      0.0001
    153  N        -15.9040   -3.4970  -25.7280 N.am  204  PHE204     -0.1976
    154  CA       -15.4600   -2.9590  -24.4400 C.3   204  PHE204      0.1639
    155  C        -13.9980   -3.3070  -24.1680 C.2   204  PHE204      0.2290
    156  O        -13.2040   -2.4430  -23.7800 O.2   204  PHE204     -0.2864
    157  CB       -16.3290   -3.4980  -23.3020 C.3   204  PHE204      0.0560
    158  CG       -17.7450   -2.9930  -23.3060 C.ar  204  PHE204     -0.0200
    159  CD1      -18.0540   -1.7170  -23.7410 C.ar  204  PHE204     -0.0042
    160  CD2      -18.7650   -3.7970  -22.8530 C.ar  204  PHE204     -0.0042
    161  CE1      -19.3710   -1.2630  -23.7440 C.ar  204  PHE204     -0.0003
    162  CE2      -20.0870   -3.3520  -22.8620 C.ar  204  PHE204     -0.0003
    163  CZ       -20.3850   -2.0870  -23.2950 C.ar  204  PHE204     -0.0000
    164  N        -11.7400   -1.2870  -26.3470 N.3   207  LEU207     -0.1245
    165  CA       -11.6660    0.0860  -25.8400 C.3   207  LEU207      0.1561
    166  C        -10.7620    0.1830  -24.6160 C.2   207  LEU207      0.2260
    167  O        -10.0050    1.1490  -24.4730 O.2   207  LEU207     -0.2867
    168  CB       -13.0610    0.6040  -25.4910 C.3   207  LEU207      0.0270
    169  CG       -13.9790    0.9040  -26.6680 C.3   207  LEU207      0.0019
    170  CD1      -15.3920    1.0140  -26.1690 C.3   207  LEU207      0.0001
    171  CD2      -13.5480    2.1800  -27.3550 C.3   207  LEU207      0.0001
@<TRIPOS>BOND
     1    86    85    2
     2    85    84    1
     3    79    78    2
     4    83    84    1
     5    76    77    1
     6    78    77    1
     7    84    87    1
     8    77    80    1
     9    87    88    1
    10    80    81    1
    11    80    82    1
    12    89    88   ar
    13    89    91   ar
    14    71    70    2
    15    88    90   ar
    16    66    65    2
    17    91    93   ar
    18    70    69    1
    19    90    92   ar
    20    64    65    1
    21    64    63    1
    22    64    67    1
    23    65    68   am
    24    93    92   ar
    25    93    94    1
    26    69    68    1
    27    69    72    1
    28   152   150    1
    29    72    73    1
    30   150   149    1
    31   100    99    1
    32   100   101    1
    33    99    96    1
    34    61    60    2
    35   120   122   ar
    36   120   119   ar
    37   101   102    1
    38   122   124   ar
    39   151   149    1
    40    73    75    1
    41    73    74    1
    42   149   146    1
    43    60    59    1
    44   102   103    2
    45   118   115    1
    46   118   119    1
    47   115   114    1
    48   115   116    1
    49   146   145    1
    50   146   147    1
    51    58    59    1
    52   119   121   ar
    53   143   142    2
    54    96    95    1
    55    96    97    1
    56    59    62    1
    57   137   138    1
    58   124   123   ar
    59   103   104    1
    60   103   105    1
    61    97    98    2
    62   171   169    1
    63   117   116    2
    64    50    49    2
    65   116   125   am
    66   148   147    2
    67   138   139    1
    68   138   141    1
    69   147   153   am
    70   121   123   ar
    71   142   144   am
    72   142   141    1
    73   169   170    1
    74   169   168    1
    75    49    48    1
    76   164   165    1
    77   139   140    2
    78   165   168    1
    79   165   166    1
    80   125   126    1
    81   153   154    1
    82    48    47    1
    83    48    51    1
    84    56    54   ar
    85    56    57   ar
    86    54    52   ar
    87   166   167    2
    88   126   127    1
    89   126   129    1
    90   154   155    1
    91   154   157    1
    92   134   132   ar
    93   134   135   ar
    94   127   128    2
    95   136   135    1
    96    57    55   ar
    97    52    51    1
    98    52    53   ar
    99   155   156    2
   100   132   130   ar
   101   135   133   ar
   102   161   159   ar
   103   161   163   ar
   104   159   158   ar
   105   130   129    1
   106   130   131   ar
   107    55    53   ar
   108   133   131   ar
   109   158   157    1
   110   158   160   ar
   111   163   162   ar
   112   162   160   ar
   113    20    19   ar
   114    20    18   ar
   115    19    17   ar
   116    18    16   ar
   117    17    15   ar
   118    16    15   ar
   119    15    14    1
   120    14    11    1
   121   112   111    1
   122    36    38   ar
   123    36    34   ar
   124    38    37   ar
   125    27    25    1
   126    34    33   ar
   127   110   111    1
   128   110   107    1
   129    11    12    1
   130    11    10    1
   131     9     7   ar
   132   111   113    1
   133   109   108    2
   134   108   107    1
   135    37    35   ar
   136    33    35   ar
   137    33    32    1
   138    12    21   am
   139    12    13    2
   140     1     2    1
   141    21    22    1
   142   107   106    1
   143    32    29    1
   144    25    22    1
   145    25    26    1
   146     7     6    1
   147     7     8   ar
   148    22    23    1
   149     2     5    1
   150     2     3    1
   151     6     5    1
   152    29    28    1
   153    29    30    1
   154     3     4    2
   155    23    24    2
   156    30    31    2
   157    30    39   am
   158    46    44    1
   159    39    40    1
   160    44    45    1
   161    44    43    1
   162    40    43    1
   163    40    41    1
   164    41    42    2
