@<TRIPOS>MOLECULE
tmp/5uchD00.pdb
 127 116 0 0 0
SMALL
GASTEIGER

@<TRIPOS>ATOM
      1  N        -15.4630  114.1940   25.7460 N.3    33  LEU33      -0.1245
      2  CA       -16.5630  113.9120   26.6640 C.3    33  LEU33       0.1561
      3  C        -17.7650  114.8300   26.4180 C.2    33  LEU33       0.2260
      4  O        -18.9060  114.3660   26.3230 O.2    33  LEU33      -0.2867
      5  CB       -16.0690  114.0550   28.0960 C.3    33  LEU33       0.0270
      6  CG       -14.8880  113.1480   28.4360 C.3    33  LEU33       0.0019
      7  CD1      -14.7060  113.1400   29.9120 C.3    33  LEU33       0.0001
      8  CD2      -15.1160  111.7580   27.9410 C.3    33  LEU33       0.0001
      9  N        -19.7040  113.8430   23.3860 N.3    36  ASN36      -0.1225
     10  CA       -20.5860  112.7030   23.5840 C.3    36  ASN36       0.1785
     11  C        -21.7870  113.0770   24.4380 C.2    36  ASN36       0.2597
     12  O        -22.8990  112.6020   24.1840 O.2    36  ASN36      -0.2718
     13  CB       -19.8140  111.5450   24.2010 C.3    36  ASN36       0.1169
     14  CG       -19.0940  110.7430   23.1590 C.2    36  ASN36       0.2627
     15  OD1      -19.4780  110.7550   21.9890 O.2    36  ASN36      -0.2716
     16  ND2      -18.0440  110.0560   23.5570 N.am   36  ASN36      -0.0877
     17  N        -21.5860  113.9380   25.4430 N.am   37  ALA37      -0.1979
     18  CA       -22.7010  114.3960   26.2610 C.3    37  ALA37       0.1597
     19  C        -23.6950  115.1850   25.4230 C.2    37  ALA37       0.2287
     20  O        -24.9150  115.0010   25.5480 O.2    37  ALA37      -0.2864
     21  CB       -22.1800  115.2480   27.4150 C.3    37  ALA37       0.0319
     22  N        -24.2970  114.9070   22.2410 N.3    39  ASP39      -0.1225
     23  CA       -25.0540  114.0500   21.3330 C.3    39  ASP39       0.1805
     24  C        -26.1830  113.3500   22.0740 C.2    39  ASP39       0.2597
     25  O        -27.3020  113.2410   21.5560 O.2    39  ASP39      -0.2718
     26  CB       -24.1330  113.0220   20.6700 C.3    39  ASP39       0.1424
     27  CG       -23.3240  113.5930   19.4920 C.2    39  ASP39       0.3668
     28  OD1      -23.7280  114.6150   18.8620 O.co2  39  ASP39      -0.2456
     29  OD2      -22.2740  112.9800   19.1820 O.co2  39  ASP39      -0.2456
     30  N        -25.9020  112.8790   23.2950 N.am   40  ALA40      -0.1979
     31  CA       -26.9310  112.2750   24.1340 C.3    40  ALA40       0.1597
     32  C        -28.0150  113.2830   24.4870 C.2    40  ALA40       0.2287
     33  O        -29.2050  112.9460   24.5000 O.2    40  ALA40      -0.2864
     34  CB       -26.3030  111.7150   25.4110 C.3    40  ALA40       0.0319
     35  N        -30.3320  113.6100   21.7160 N.3    43  LYS43      -0.1245
     36  CA       -31.2250  112.4980   21.4130 C.3    43  LYS43       0.1561
     37  C        -32.4820  112.5620   22.2680 C.2    43  LYS43       0.2260
     38  O        -33.6000  112.4220   21.7530 O.2    43  LYS43      -0.2867
     39  CB       -30.5060  111.1590   21.5830 C.3    43  LYS43       0.0271
     40  CG       -31.1810  110.0410   20.7760 C.3    43  LYS43       0.0035
     41  CD       -30.2760  108.8440   20.4990 C.3    43  LYS43       0.0206
     42  CE       -30.8000  107.9680   19.3460 C.3    43  LYS43       0.1093
     43  NZ       -31.9670  107.0980   19.7010 N.3    43  LYS43      -0.1314
     44  N        -17.9770  114.5830   34.9460 N.3    76  LEU76      -0.1245
     45  CA       -18.9150  115.1870   34.0180 C.3    76  LEU76       0.1561
     46  C        -20.2670  114.5020   34.1540 C.2    76  LEU76       0.2260
     47  O        -20.3570  113.2720   34.0880 O.2    76  LEU76      -0.2867
     48  CB       -18.3960  115.0760   32.5950 C.3    76  LEU76       0.0270
     49  CG       -17.2430  116.0280   32.3090 C.3    76  LEU76       0.0019
     50  CD1      -15.9010  115.3160   32.4310 C.3    76  LEU76       0.0001
     51  CD2      -17.4390  116.6550   30.9380 C.3    76  LEU76       0.0001
     52  N        -24.2270  114.6940   32.6070 N.3    78  ASP78      -0.1239
     53  CA       -25.1160  115.2190   31.5780 C.3    78  ASP78       0.1674
     54  C        -26.5280  114.6800   31.7960 C.2    78  ASP78       0.2266
     55  O        -26.7350  113.6280   32.4010 O.2    78  ASP78      -0.2867
     56  CB       -24.6010  114.8900   30.1610 C.3    78  ASP78       0.1410
     57  CG       -24.7890  113.4270   29.7570 C.2    78  ASP78       0.3668
     58  OD1      -25.2810  112.5870   30.5140 O.co2  78  ASP78      -0.2456
     59  OD2      -24.4060  113.0840   28.6340 O.co2  78  ASP78      -0.2456
     60  N        -29.9170  111.2740   27.2080 N.3    81  ILE81      -0.1231
     61  CA       -30.8420  110.1450   27.1830 C.3    81  ILE81       0.1692
     62  C        -30.3280  108.9870   28.0080 C.2    81  ILE81       0.2593
     63  O        -31.1000  108.1080   28.3740 O.2    81  ILE81      -0.2718
     64  CB       -31.1040  109.7190   25.7180 C.3    81  ILE81       0.0266
     65  CG1      -32.2800  108.7530   25.6110 C.3    81  ILE81       0.0019
     66  CG2      -29.8440  109.1160   25.0710 C.3    81  ILE81       0.0020
     67  CD1      -32.6510  108.4550   24.1940 C.3    81  ILE81       0.0001
     68  N        -29.0440  108.9760   28.3380 N.am   82  GLY82      -0.1942
     69  CA       -28.4540  107.8560   29.0570 C.3    82  GLY82       0.2014
     70  C        -28.4710  106.5770   28.2340 C.2    82  GLY82       0.2638
     71  O        -28.9070  106.5400   27.0880 O.2    82  GLY82      -0.2714
     72  N        -27.9990  105.5020   28.8640 N.am   83  MET83      -0.1976
     73  CA       -27.8790  104.1880   28.2480 C.3    83  MET83       0.1605
     74  C        -28.5360  103.1170   29.1070 C.2    83  MET83       0.2287
     75  O        -28.5000  103.1870   30.3400 O.2    83  MET83      -0.2864
     76  CB       -26.4040  103.8010   28.0450 C.3    83  MET83       0.0413
     77  CG       -25.6270  104.7560   27.1660 C.3    83  MET83       0.0598
     78  SD       -23.8520  104.4460   27.1810 S.3    83  MET83      -0.1393
     79  CE       -23.3460  105.3680   28.6390 C.3    83  MET83       0.0692
     80  N        -21.8360   99.4980   23.7320 N.3    91  ASN91      -0.1225
     81  CA       -21.1530  100.7110   23.3030 C.3    91  ASN91       0.1785
     82  C        -19.7260  100.7440   23.8230 C.2    91  ASN91       0.2597
     83  O        -18.7840  101.0270   23.0700 O.2    91  ASN91      -0.2718
     84  CB       -21.9080  101.9550   23.7740 C.3    91  ASN91       0.1169
     85  CG       -23.2710  102.1100   23.1290 C.2    91  ASN91       0.2627
     86  OD1      -23.6500  101.3660   22.2220 O.2    91  ASN91      -0.2716
     87  ND2      -24.0200  103.1030   23.5990 N.am   91  ASN91      -0.0877
     88  N        -19.5410  100.4440   25.1110 N.am   92  LEU92      -0.1980
     89  CA       -18.2160  100.6240   25.6890 C.3    92  LEU92       0.1596
     90  C        -17.3350   99.3920   25.5160 C.2    92  LEU92       0.2287
     91  O        -16.1080   99.5200   25.5170 O.2    92  LEU92      -0.2864
     92  CB       -18.3230  100.9810   27.1710 C.3    92  LEU92       0.0297
     93  CG       -19.1820  102.1910   27.5870 C.3    92  LEU92       0.0022
     94  CD1      -18.7600  102.6540   28.9740 C.3    92  LEU92       0.0001
     95  CD2      -19.1050  103.3320   26.5950 C.3    92  LEU92       0.0001
     96  N        -14.5140  108.5970   23.4270 N.3   123  PHE123     -0.1241
     97  CA       -14.6370  108.2970   24.8490 C.3   123  PHE123      0.1605
     98  C        -13.3130  107.8210   25.4430 C.2   123  PHE123      0.2264
     99  O        -12.9280  108.2470   26.5400 O.2   123  PHE123     -0.2867
    100  CB       -15.7020  107.2410   25.0930 C.3   123  PHE123      0.0534
    101  CG       -15.6190  106.6400   26.4490 C.ar  123  PHE123     -0.0203
    102  CD1      -15.9920  107.3790   27.5580 C.ar  123  PHE123     -0.0042
    103  CD2      -15.1350  105.3460   26.6260 C.ar  123  PHE123     -0.0042
    104  CE1      -15.9020  106.8530   28.8240 C.ar  123  PHE123     -0.0003
    105  CE2      -15.0510  104.7980   27.8920 C.ar  123  PHE123     -0.0003
    106  CZ       -15.4300  105.5620   28.9980 C.ar  123  PHE123     -0.0000
    107  N        -18.4290  105.1240   34.7900 N.3   135  VAL135     -0.1245
    108  CA       -19.5670  105.6690   34.0480 C.3   135  VAL135      0.1561
    109  C        -20.8330  105.1930   34.7630 C.2   135  VAL135      0.2260
    110  O        -21.1200  103.9870   34.7870 O.2   135  VAL135     -0.2867
    111  CB       -19.5670  105.2080   32.5790 C.3   135  VAL135      0.0252
    112  CG1      -20.7990  105.6780   31.8430 C.3   135  VAL135      0.0019
    113  CG2      -18.3130  105.6470   31.8530 C.3   135  VAL135      0.0019
    114  N        -26.0120  110.4300   32.1150 N.3   169  THR169     -0.1218
    115  CA       -24.7500  109.7380   32.2480 C.3   169  THR169      0.1862
    116  C        -23.8470  110.6130   33.1010 C.2   169  THR169      0.2287
    117  O        -23.9720  111.8440   33.1060 O.2   169  THR169     -0.2866
    118  CB       -24.1400  109.4550   30.8670 C.3   169  THR169      0.1770
    119  OG1      -24.9460  108.4850   30.1870 O.3   169  THR169     -0.2211
    120  CG2      -22.7250  108.9120   30.9680 C.3   169  THR169      0.0375
    121  N        -19.6830  110.5990   34.1980 N.3   171  VAL171     -0.1245
    122  CA       -18.3530  110.0450   34.0110 C.3   171  VAL171      0.1561
    123  C        -17.4760  110.5490   35.1360 C.2   171  VAL171      0.2260
    124  O        -17.4840  111.7470   35.4410 O.2   171  VAL171     -0.2867
    125  CB       -17.7630  110.4500   32.6580 C.3   171  VAL171      0.0252
    126  CG1      -16.4950  109.6790   32.4170 C.3   171  VAL171      0.0019
    127  CG2      -18.7640  110.2090   31.5910 C.3   171  VAL171      0.0019
@<TRIPOS>BOND
     1    28    27   ar
     2    29    27   ar
     3    42    43    1
     4    42    41    1
     5    27    26    1
     6    41    40    1
     7    26    23    1
     8    40    39    1
     9    23    24    1
    10    23    22    1
    11    36    39    1
    12    36    35    1
    13    36    37    1
    14    25    24    2
    15    38    37    2
    16    15    14    2
    17    24    30   am
    18    86    85    2
    19    83    82    2
    20    85    87   am
    21    85    84    1
    22    14    16   am
    23    14    13    1
    24    30    31    1
    25    81    80    1
    26    81    84    1
    27    81    82    1
    28     9    10    1
    29    96    97    1
    30    10    13    1
    31    10    11    1
    32    82    88   am
    33    31    32    1
    34    31    34    1
    35    12    11    2
    36    67    65    1
    37    11    17   am
    38    32    33    2
    39    97   100    1
    40    97    98    1
    41    66    64    1
    42   100   101    1
    43    88    89    1
    44    19    20    2
    45    19    18    1
    46    17    18    1
    47    98    99    2
    48    90    91    2
    49    90    89    1
    50    65    64    1
    51    89    92    1
    52    64    61    1
    53     1     2    1
    54    18    21    1
    55     4     3    2
    56     3     2    1
    57   101   103   ar
    58   101   102   ar
    59    95    93    1
    60   103   105   ar
    61     2     5    1
    62    71    70    2
    63    77    78    1
    64    77    76    1
    65    92    93    1
    66    78    79    1
    67    61    60    1
    68    61    62    1
    69   102   104   ar
    70    93    94    1
    71   105   106   ar
    72     8     6    1
    73    62    68   am
    74    62    63    2
    75    76    73    1
    76     5     6    1
    77    70    72   am
    78    70    69    1
    79    73    72    1
    80    73    74    1
    81    68    69    1
    82     6     7    1
    83    59    57   ar
    84   104   106   ar
    85    74    75    2
    86    57    56    1
    87    57    58   ar
    88    56    53    1
    89   119   118    1
    90   118   120    1
    91   118   115    1
    92    51    49    1
    93    53    54    1
    94    53    52    1
    95   127   125    1
    96    54    55    2
    97   112   111    1
    98   113   111    1
    99   114   115    1
   100   115   116    1
   101    49    50    1
   102    49    48    1
   103   126   125    1
   104   111   108    1
   105    48    45    1
   106   125   122    1
   107   116   117    2
   108   122   121    1
   109   122   123    1
   110    45    46    1
   111    45    44    1
   112   108   109    1
   113   108   107    1
   114    47    46    2
   115   109   110    2
   116   123   124    2
