@<TRIPOS>MOLECULE
tmp/5uciC00.pdb
 127 116 0 0 0
SMALL
GASTEIGER

@<TRIPOS>ATOM
      1  N          7.8550   48.0970   74.7280 N.3    43  LEU43      -0.1245
      2  CA         7.8990   46.9850   75.6730 C.3    43  LEU43       0.1561
      3  C          6.7050   46.0530   75.4840 C.2    43  LEU43       0.2260
      4  O          6.8610   44.8240   75.4240 O.2    43  LEU43      -0.2867
      5  CB         7.9420   47.4890   77.1100 C.3    43  LEU43       0.0270
      6  CG         9.2760   48.1360   77.4610 C.3    43  LEU43       0.0019
      7  CD1        9.2460   48.5740   78.9380 C.3    43  LEU43       0.0001
      8  CD2       10.4760   47.2620   77.1070 C.3    43  LEU43       0.0001
      9  N          7.1140   43.8970   72.4700 N.3    46  ASN46      -0.1225
     10  CA         7.9950   42.7570   72.7330 C.3    46  ASN46       0.1785
     11  C          7.2840   41.6690   73.5170 C.2    46  ASN46       0.2597
     12  O          7.5060   40.4780   73.2700 O.2    46  ASN46      -0.2718
     13  CB         9.2510   43.1990   73.4770 C.3    46  ASN46       0.1169
     14  CG        10.2990   43.7560   72.5540 C.2    46  ASN46       0.2627
     15  OD1       10.3100   43.4420   71.3590 O.2    46  ASN46      -0.2716
     16  ND2       11.1840   44.5900   73.0880 N.am   46  ASN46      -0.0877
     17  N          6.4730   42.0590   74.5010 N.am   47  ALA47      -0.1979
     18  CA         5.7390   41.0760   75.2910 C.3    47  ALA47       0.1597
     19  C          4.7510   40.3140   74.4220 C.2    47  ALA47       0.2287
     20  O          4.6470   39.0860   74.5170 O.2    47  ALA47      -0.2864
     21  CB         5.0220   41.7540   76.4610 C.3    47  ALA47       0.0319
     22  N          5.0290   39.6490   71.3190 N.3    49  ASP49      -0.1225
     23  CA         5.7830   38.7110   70.4880 C.3    49  ASP49       0.1805
     24  C          6.2420   37.4980   71.3010 C.2    49  ASP49       0.2597
     25  O          6.1630   36.3590   70.8240 O.2    49  ASP49      -0.2718
     26  CB         6.9640   39.4320   69.8240 C.3    49  ASP49       0.1424
     27  CG         6.5080   40.5230   68.8220 C.2    49  ASP49       0.3668
     28  OD1        5.3650   40.4370   68.3010 O.co2  49  ASP49      -0.2456
     29  OD2        7.2880   41.4780   68.5530 O.co2  49  ASP49      -0.2456
     30  N          6.7200   37.7210   72.5320 N.am   50  ALA50      -0.1979
     31  CA         7.0730   36.6070   73.4090 C.3    50  ALA50       0.1597
     32  C          5.8570   35.7310   73.7180 C.2    50  ALA50       0.2287
     33  O          5.9540   34.4930   73.7360 O.2    50  ALA50      -0.2864
     34  CB         7.6790   37.1390   74.7010 C.3    50  ALA50       0.0319
     35  N          4.9210   33.5300   70.8320 N.3    53  LYS53      -0.1245
     36  CA         5.8140   32.4200   70.5280 C.3    53  LYS53       0.1561
     37  C          5.4910   31.2120   71.4030 C.2    53  LYS53       0.2260
     38  O          5.4230   30.0760   70.9130 O.2    53  LYS53      -0.2867
     39  CB         7.2730   32.8600   70.6910 C.3    53  LYS53       0.0271
     40  CG         8.2770   31.9030   70.0300 C.3    53  LYS53       0.0035
     41  CD         9.7400   32.3570   70.2210 C.3    53  LYS53       0.0206
     42  CE        10.7320   31.7810   69.1770 C.3    53  LYS53       0.1093
     43  NZ        10.5540   30.3310   68.9070 N.3    53  LYS53      -0.1314
     44  N          6.9970   45.9040   83.9780 N.3    86  LEU86      -0.1245
     45  CA         6.1510   45.2260   83.0120 C.3    86  LEU86       0.1561
     46  C          6.4690   43.7430   83.0870 C.2    86  LEU86       0.2260
     47  O          7.6220   43.3460   82.9140 O.2    86  LEU86      -0.2867
     48  CB         6.3630   45.7810   81.6030 C.3    86  LEU86       0.0270
     49  CG         5.3660   45.2480   80.5640 C.3    86  LEU86       0.0019
     50  CD1        5.1010   46.2750   79.4640 C.3    86  LEU86       0.0001
     51  CD2        5.8150   43.9070   79.9350 C.3    86  LEU86       0.0001
     52  N          5.4970   39.9190   81.5740 N.3    88  ASP88      -0.1239
     53  CA         4.7530   39.0930   80.6430 C.3    88  ASP88       0.1674
     54  C          5.0240   37.6170   80.9140 C.2    88  ASP88       0.2266
     55  O          6.1070   37.2230   81.3640 O.2    88  ASP88      -0.2867
     56  CB         5.0840   39.4130   79.1910 C.3    88  ASP88       0.1410
     57  CG         6.4800   39.0080   78.8050 C.2    88  ASP88       0.3668
     58  OD1        7.3920   39.8580   78.8600 O.co2  88  ASP88      -0.2456
     59  OD2        6.6600   37.8340   78.4100 O.co2  88  ASP88      -0.2456
     60  N          7.4090   33.5290   76.2930 N.3    91  ILE91      -0.1231
     61  CA         8.3250   32.4020   76.2940 C.3    91  ILE91       0.1692
     62  C          9.5890   32.6340   77.1080 C.2    91  ILE91       0.2593
     63  O         10.2970   31.6710   77.4020 O.2    91  ILE91      -0.2718
     64  CB         8.7000   32.0530   74.8470 C.3    91  ILE91       0.0266
     65  CG1        9.2850   30.6440   74.7710 C.3    91  ILE91       0.0019
     66  CG2        9.7230   33.0470   74.3440 C.3    91  ILE91       0.0020
     67  CD1        9.4460   30.1730   73.3700 C.3    91  ILE91       0.0001
     68  N          9.9070   33.8700   77.4910 N.am   92  GLY92      -0.1942
     69  CA        11.1390   34.1120   78.2420 C.3    92  GLY92       0.2014
     70  C         12.3940   33.9600   77.3840 C.2    92  GLY92       0.2638
     71  O         12.3400   33.7620   76.1790 O.2    92  GLY92      -0.2714
     72  N         13.5450   34.0390   78.0470 N.am   93  MET93      -0.1976
     73  CA        14.8500   34.0180   77.3930 C.3    93  MET93       0.1605
     74  C         15.8050   33.1470   78.1880 C.2    93  MET93       0.2287
     75  O         15.8560   33.2550   79.4130 O.2    93  MET93      -0.2864
     76  CB        15.4750   35.4130   77.2960 C.3    93  MET93       0.0413
     77  CG        14.7200   36.4070   76.4550 C.3    93  MET93       0.0598
     78  SD        15.5410   38.0370   76.4160 S.3    93  MET93      -0.1393
     79  CE        14.8820   38.7360   77.9380 C.3    93  MET93       0.0692
     80  N         21.2100   38.7010   72.8530 N.3   101  ASN101     -0.1225
     81  CA        20.2580   39.6230   72.2380 C.3   101  ASN101      0.1785
     82  C         20.4650   41.0440   72.7310 C.2   101  ASN101      0.2597
     83  O         20.4000   41.9960   71.9430 O.2   101  ASN101     -0.2718
     84  CB        18.8180   39.1940   72.5100 C.3   101  ASN101      0.1169
     85  CG        18.4530   37.8590   71.8620 C.2   101  ASN101      0.2627
     86  OD1       19.1480   37.3550   70.9760 O.2   101  ASN101     -0.2716
     87  ND2       17.3360   37.2850   72.3100 N.am  101  ASN101     -0.0877
     88  N         20.6830   41.2190   74.0340 N.am  102  LEU102     -0.1980
     89  CA        20.7790   42.5710   74.5800 C.3   102  LEU102      0.1596
     90  C         22.1830   43.1510   74.5080 C.2   102  LEU102      0.2287
     91  O         22.3330   44.3790   74.4390 O.2   102  LEU102     -0.2864
     92  CB        20.2630   42.6090   76.0200 C.3   102  LEU102      0.0297
     93  CG        18.7560   42.5780   76.2650 C.3   102  LEU102      0.0022
     94  CD1       18.0420   41.4400   75.5960 C.3   102  LEU102      0.0001
     95  CD2       18.4630   42.6030   77.7590 C.3   102  LEU102      0.0001
     96  N         13.5390   47.6160   72.5490 N.3   133  PHE133     -0.1241
     97  CA        13.7950   47.4850   73.9790 C.3   133  PHE133      0.1605
     98  C         14.5660   48.6890   74.5320 C.2   133  PHE133      0.2264
     99  O         14.2930   49.1540   75.6480 O.2   133  PHE133     -0.2867
    100  CB        14.5690   46.2050   74.2970 C.3   133  PHE133      0.0534
    101  CG        15.1630   46.2330   75.6590 C.ar  133  PHE133     -0.0203
    102  CD1       14.3440   46.1080   76.7720 C.ar  133  PHE133     -0.0042
    103  CD2       16.5190   46.4750   75.8430 C.ar  133  PHE133     -0.0042
    104  CE1       14.8650   46.1900   78.0520 C.ar  133  PHE133     -0.0003
    105  CE2       17.0620   46.5610   77.1270 C.ar  133  PHE133     -0.0003
    106  CZ        16.2310   46.4150   78.2340 C.ar  133  PHE133     -0.0000
    107  N         16.2230   43.4170   83.7970 N.3   145  VAL145     -0.1245
    108  CA        15.4610   42.4440   83.0430 C.3   145  VAL145      0.1561
    109  C         15.6450   41.1000   83.7340 C.2   145  VAL145      0.2260
    110  O         16.7630   40.5740   83.8080 O.2   145  VAL145     -0.2867
    111  CB        15.8920   42.3990   81.5720 C.3   145  VAL145      0.0252
    112  CG1       15.1540   41.2700   80.8190 C.3   145  VAL145      0.0019
    113  CG2       15.6430   43.7780   80.8940 C.3   145  VAL145      0.0019
    114  N          9.0730   37.2560   81.2490 N.3   179  THR179     -0.1218
    115  CA        10.0570   38.3090   81.4330 C.3   179  THR179      0.1862
    116  C          9.4150   39.4640   82.1810 C.2   179  THR179      0.2287
    117  O          8.2940   39.8740   81.8650 O.2   179  THR179     -0.2866
    118  CB        10.5880   38.7940   80.0700 C.3   179  THR179      0.1770
    119  OG1       11.3650   37.7500   79.4640 O.3   179  THR179     -0.2211
    120  CG2       11.4310   40.0580   80.2240 C.3   179  THR179      0.0375
    121  N         10.3920   43.3980   83.1270 N.3   181  VAL181     -0.1245
    122  CA        11.2910   44.5140   82.9510 C.3   181  VAL181      0.1561
    123  C         10.9900   45.5240   84.0460 C.2   181  VAL181      0.2260
    124  O          9.8190   45.8150   84.3240 O.2   181  VAL181     -0.2867
    125  CB        11.1340   45.1280   81.5570 C.3   181  VAL181      0.0252
    126  CG1       12.1900   46.2110   81.3710 C.3   181  VAL181      0.0019
    127  CG2       11.2430   44.0270   80.4810 C.3   181  VAL181      0.0019
@<TRIPOS>BOND
     1    28    27   ar
     2    29    27   ar
     3    27    26    1
     4    43    42    1
     5    42    41    1
     6    26    23    1
     7    40    41    1
     8    40    39    1
     9    23    24    1
    10    23    22    1
    11    36    39    1
    12    36    35    1
    13    36    37    1
    14    25    24    2
    15    38    37    2
    16    86    85    2
    17    24    30   am
    18    15    14    2
    19    85    87   am
    20    85    84    1
    21    83    82    2
    22    81    84    1
    23    81    82    1
    24    81    80    1
    25     9    10    1
    26    30    31    1
    27    96    97    1
    28    14    16   am
    29    14    13    1
    30    82    88   am
    31    10    13    1
    32    10    11    1
    33    12    11    2
    34    67    65    1
    35    31    32    1
    36    31    34    1
    37    11    17   am
    38    32    33    2
    39    97   100    1
    40    97    98    1
    41    88    89    1
    42   100   101    1
    43    66    64    1
    44    19    20    2
    45    19    18    1
    46    91    90    2
    47    17    18    1
    48    90    89    1
    49    98    99    2
    50    89    92    1
    51     1     2    1
    52    65    64    1
    53    64    61    1
    54    18    21    1
    55     4     3    2
    56     3     2    1
    57    94    93    1
    58   101   103   ar
    59   101   102   ar
    60     2     5    1
    61   103   105   ar
    62    92    93    1
    63    71    70    2
    64    93    95    1
    65    60    61    1
    66    61    62    1
    67    78    77    1
    68    78    79    1
    69    77    76    1
    70   102   104   ar
    71     8     6    1
    72    62    63    2
    73    62    68   am
    74     5     6    1
    75   105   106   ar
    76    76    73    1
    77    70    72   am
    78    70    69    1
    79    73    72    1
    80    73    74    1
    81     6     7    1
    82    68    69    1
    83   104   106   ar
    84    74    75    2
    85    59    57   ar
    86    57    58   ar
    87    57    56    1
    88    56    53    1
    89   119   118    1
    90    50    49    1
    91    51    49    1
    92   118   120    1
    93   118   115    1
    94   127   125    1
    95    49    48    1
    96    53    54    1
    97    53    52    1
    98   112   111    1
    99   113   111    1
   100    54    55    2
   101   114   115    1
   102   126   125    1
   103   115   116    1
   104   125   122    1
   105   111   108    1
   106    48    45    1
   107   117   116    2
   108    47    46    2
   109   122   121    1
   110   122   123    1
   111    45    46    1
   112    45    44    1
   113   108   109    1
   114   108   107    1
   115   109   110    2
   116   123   124    2
