@<TRIPOS>MOLECULE
tmp/5ucjA00.pdb
 127 116 0 0 0
SMALL
GASTEIGER

@<TRIPOS>ATOM
      1  N        -19.1200   94.5090    2.1730 N.3    44  LEU44      -0.1245
      2  CA       -20.0630   95.1310    1.2450 C.3    44  LEU44       0.1561
      3  C        -21.4520   94.5420    1.4110 C.2    44  LEU44       0.2260
      4  O        -22.4510   95.2740    1.3730 O.2    44  LEU44      -0.2867
      5  CB       -19.6020   94.9580   -0.2050 C.3    44  LEU44       0.0270
      6  CG       -18.3270   95.7180   -0.5670 C.3    44  LEU44       0.0019
      7  CD1      -17.9440   95.4180   -2.0040 C.3    44  LEU44       0.0001
      8  CD2      -18.4520   97.2270   -0.3390 C.3    44  LEU44       0.0001
      9  N        -23.0150   96.0990    4.4650 N.3    47  ASN47      -0.1225
     10  CA       -23.5680   97.4210    4.1690 C.3    47  ASN47       0.1785
     11  C        -24.8760   97.3160    3.3870 C.2    47  ASN47       0.2597
     12  O        -25.8250   98.0590    3.6590 O.2    47  ASN47      -0.2718
     13  CB       -22.5680   98.2760    3.3870 C.3    47  ASN47       0.1169
     14  CG       -21.4310   98.8030    4.2530 C.2    47  ASN47       0.2627
     15  OD1      -21.5530   98.8870    5.4710 O.2    47  ASN47      -0.2716
     16  ND2      -20.3590   99.2260    3.6210 N.am   47  ASN47      -0.0877
     17  N        -24.9330   96.4190    2.3930 N.am   48  ALA48      -0.1979
     18  CA       -26.1690   96.2200    1.6330 C.3    48  ALA48       0.1597
     19  C        -27.3020   95.7620    2.5370 C.2    48  ALA48       0.2287
     20  O        -28.4310   96.2610    2.4430 O.2    48  ALA48      -0.2864
     21  CB       -25.9560   95.1900    0.5180 C.3    48  ALA48       0.0319
     22  N        -27.6450   96.2580    5.7310 N.3    50  ASP50      -0.1225
     23  CA       -28.0920   97.3710    6.5690 C.3    50  ASP50       0.1805
     24  C        -28.9870   98.3290    5.7760 C.2    50  ASP50       0.2597
     25  O        -29.9950   98.8240    6.2950 O.2    50  ASP50      -0.2718
     26  CB       -26.8890   98.1280    7.1510 C.3    50  ASP50       0.1424
     27  CG       -26.0850   97.3080    8.1700 C.2    50  ASP50       0.3668
     28  OD1      -26.5650   96.2380    8.6150 O.co2  50  ASP50      -0.2456
     29  OD2      -24.9610   97.7500    8.5310 O.co2  50  ASP50      -0.2456
     30  N        -28.6350   98.5990    4.5140 N.am   51  ALA51      -0.1979
     31  CA       -29.4340   99.5220    3.7090 C.3    51  ALA51       0.1597
     32  C        -30.7800   98.9090    3.3510 C.2    51  ALA51       0.2287
     33  O        -31.7790   99.6230    3.2260 O.2    51  ALA51      -0.2864
     34  CB       -28.6760   99.9160    2.4310 C.3    51  ALA51       0.0319
     35  N        -33.0520   99.1440    6.2470 N.3    54  LYS54      -0.1245
     36  CA       -33.5460  100.5030    6.4330 C.3    54  LYS54       0.1561
     37  C        -34.7800  100.7640    5.5720 C.2    54  LYS54       0.2260
     38  O        -35.8010  101.2470    6.0700 O.2    54  LYS54      -0.2867
     39  CB       -32.4150  101.4940    6.1210 C.3    54  LYS54       0.0271
     40  CG       -32.7610  102.9400    6.3910 C.3    54  LYS54       0.0035
     41  CD       -32.7670  103.2250    7.8780 C.3    54  LYS54       0.0206
     42  CE       -32.8130  104.7160    8.1520 C.3    54  LYS54       0.1093
     43  NZ       -34.1880  105.2540    7.9420 N.3    54  LYS54      -0.1314
     44  N        -21.4630   94.8380   -7.0700 N.3    87  LEU87      -0.1245
     45  CA       -22.5080   94.4510   -6.1240 C.3    87  LEU87       0.1561
     46  C        -23.6070   95.4980   -6.1980 C.2    87  LEU87       0.2260
     47  O        -23.3250   96.6950   -6.1190 O.2    87  LEU87      -0.2867
     48  CB       -21.9680   94.3350   -4.6920 C.3    87  LEU87       0.0270
     49  CG       -22.9720   93.8730   -3.6210 C.3    87  LEU87       0.0019
     50  CD1      -22.2500   93.0140   -2.5840 C.3    87  LEU87       0.0001
     51  CD2      -23.6810   95.0550   -2.9350 C.3    87  LEU87       0.0001
     52  N        -27.4480   96.4430   -4.6280 N.3    89  ASP89      -0.1239
     53  CA       -28.5580   96.1250   -3.7410 C.3    89  ASP89       0.1674
     54  C        -29.7060   97.0880   -4.0050 C.2    89  ASP89       0.2266
     55  O        -29.5280   98.1600   -4.5910 O.2    89  ASP89      -0.2867
     56  CB       -28.1390   96.1700   -2.2640 C.3    89  ASP89       0.1410
     57  CG       -27.7570   97.5600   -1.7970 C.2    89  ASP89       0.3668
     58  OD1      -28.6270   98.4550   -1.7820 O.co2  89  ASP89      -0.2456
     59  OD2      -26.5830   97.7570   -1.4140 O.co2  89  ASP89      -0.2456
     60  N        -31.9740  101.3420    0.6900 N.3    92  ILE92      -0.1231
     61  CA       -32.5340  102.6890    0.7660 C.3    92  ILE92       0.1692
     62  C        -31.7400  103.6940   -0.0550 C.2    92  ILE92       0.2593
     63  O        -32.2610  104.7650   -0.3880 O.2    92  ILE92      -0.2718
     64  CB       -32.6280  103.1350    2.2380 C.3    92  ILE92       0.0266
     65  CG1      -33.4310  104.4330    2.3530 C.3    92  ILE92       0.0019
     66  CG2      -31.2230  103.2730    2.8420 C.3    92  ILE92       0.0020
     67  CD1      -34.2060  104.5760    3.6330 C.3    92  ILE92       0.0001
     68  N        -30.4950  103.3900   -0.3820 N.am   93  GLY93      -0.1942
     69  CA       -29.6680  104.3090   -1.1500 C.3    93  GLY93       0.2014
     70  C        -29.2240  105.5100   -0.3230 C.2    93  GLY93       0.2638
     71  O        -29.5000  105.6270    0.8730 O.2    93  GLY93      -0.2714
     72  N        -28.5090  106.4200   -0.9910 N.am   94  MET94      -0.1976
     73  CA       -27.9910  107.6310   -0.3660 C.3    94  MET94       0.1605
     74  C        -28.3220  108.8620   -1.2040 C.2    94  MET94       0.2287
     75  O        -28.2240  108.8310   -2.4280 O.2    94  MET94      -0.2864
     76  CB       -26.4620  107.5540   -0.1900 C.3    94  MET94       0.0413
     77  CG       -26.0280  106.5320    0.8510 C.3    94  MET94       0.0598
     78  SD       -24.2450  106.2790    0.7570 S.3    94  MET94      -0.1393
     79  CE       -24.1270  105.2430   -0.7060 C.3    94  MET94       0.0692
     80  N        -20.8740  110.8910    4.0330 N.3   102  ASN102     -0.1225
     81  CA       -20.5930  109.5890    4.6360 C.3   102  ASN102      0.1785
     82  C        -19.2580  109.0190    4.1660 C.2   102  ASN102      0.2597
     83  O        -18.4810  108.5060    4.9880 O.2   102  ASN102     -0.2718
     84  CB       -21.7280  108.6100    4.3430 C.3   102  ASN102      0.1169
     85  CG       -23.0070  108.9590    5.0910 C.2   102  ASN102      0.2627
     86  OD1      -23.0630  109.9420    5.8240 O.2   102  ASN102     -0.2716
     87  ND2      -24.0440  108.1640    4.8850 N.am  102  ASN102     -0.0877
     88  N        -18.9610  109.0970    2.8590 N.am  103  LEU103     -0.1980
     89  CA       -17.7310  108.5050    2.3410 C.3   103  LEU103      0.1596
     90  C        -16.5270  109.4280    2.4550 C.2   103  LEU103      0.2287
     91  O        -15.3850  108.9490    2.5280 O.2   103  LEU103     -0.2864
     92  CB       -17.9030  108.1080    0.8710 C.3   103  LEU103      0.0297
     93  CG       -18.9430  107.0130    0.6270 C.3   103  LEU103      0.0022
     94  CD1      -18.8470  106.5110   -0.7910 C.3   103  LEU103      0.0001
     95  CD2      -18.7430  105.8820    1.6000 C.3   103  LEU103      0.0001
     96  N        -16.6120   99.6520    4.3630 N.3   134  PHE134     -0.1241
     97  CA       -16.6320   99.9520    2.9330 C.3   134  PHE134      0.1605
     98  C        -15.2270  100.0580    2.3610 C.2   134  PHE134      0.2264
     99  O        -14.9600   99.5620    1.2650 O.2   134  PHE134     -0.2867
    100  CB       -17.3890  101.2550    2.6630 C.3   134  PHE134      0.0534
    101  CG       -17.1010  101.8430    1.3060 C.ar  134  PHE134     -0.0203
    102  CD1      -17.6000  101.2450    0.1580 C.ar  134  PHE134     -0.0042
    103  CD2      -16.3020  102.9750    1.1790 C.ar  134  PHE134     -0.0042
    104  CE1      -17.3180  101.7620   -1.1060 C.ar  134  PHE134     -0.0003
    105  CE2      -16.0110  103.5040   -0.0890 C.ar  134  PHE134     -0.0003
    106  CZ       -16.5270  102.8840   -1.2320 C.ar  134  PHE134     -0.0000
    107  N        -19.2100  104.1420   -6.8580 N.3   146  VAL146     -0.1245
    108  CA       -20.4410  103.9580   -6.1010 C.3   146  VAL146      0.1561
    109  C        -21.5360  104.7500   -6.8000 C.2   146  VAL146      0.2260
    110  O        -21.4630  105.9840   -6.8870 O.2   146  VAL146     -0.2867
    111  CB       -20.2960  104.3920   -4.6340 C.3   146  VAL146      0.0252
    112  CG1      -21.6460  104.2510   -3.8930 C.3   146  VAL146      0.0019
    113  CG2      -19.2350  103.5490   -3.9110 C.3   146  VAL146      0.0019
    114  N        -28.0160  100.9620   -4.1410 N.3   180  THR180     -0.1218
    115  CA       -26.6220  101.3260   -4.3000 C.3   180  THR180      0.1862
    116  C        -25.9240  100.2390   -5.1010 C.2   180  THR180      0.2287
    117  O        -26.1590   99.0440   -4.8910 O.2   180  THR180     -0.2866
    118  CB       -25.9660  101.5360   -2.9360 C.3   180  THR180      0.1770
    119  OG1      -26.5820  102.6620   -2.3000 O.3   180  THR180     -0.2211
    120  CG2      -24.4740  101.7990   -3.0460 C.3   180  THR180      0.0375
    121  N        -22.0450   99.1430   -6.2530 N.3   182  VAL182     -0.1245
    122  CA       -20.6210   99.3360   -5.9990 C.3   182  VAL182      0.1561
    123  C        -19.8750   98.5640   -7.0800 C.2   182  VAL182      0.2260
    124  O        -20.0720   97.3510   -7.2250 O.2   182  VAL182     -0.2867
    125  CB       -20.2200   98.8690   -4.5870 C.3   182  VAL182      0.0252
    126  CG1      -18.7210   99.1020   -4.3520 C.3   182  VAL182      0.0019
    127  CG2      -21.0440   99.5930   -3.4990 C.3   182  VAL182      0.0019
@<TRIPOS>BOND
     1   124   123    2
     2   123   122    1
     3    44    45    1
     4   110   109    2
     5   107   108    1
     6   109   108    1
     7   121   122    1
     8    46    45    1
     9    46    47    2
    10    45    48    1
    11   108   111    1
    12   122   125    1
    13   116   117    2
    14   116   115    1
    15    48    49    1
    16   111   113    1
    17   111   112    1
    18    52    53    1
    19    55    54    2
    20   125   126    1
    21   125   127    1
    22   115   114    1
    23   115   118    1
    24    54    53    1
    25    53    56    1
    26    49    51    1
    27    49    50    1
    28   120   118    1
    29   118   119    1
    30    75    74    2
    31    56    57    1
    32     7     6    1
    33    57    58   ar
    34    57    59   ar
    35   106   104   ar
    36   106   105   ar
    37    74    73    1
    38    69    68    1
    39    69    70    1
    40   104   102   ar
    41    72    73    1
    42    72    70   am
    43    94    93    1
    44    79    78    1
    45     6     8    1
    46     6     5    1
    47    63    62    2
    48    68    62   am
    49    73    76    1
    50    70    71    2
    51     5     2    1
    52    76    77    1
    53   105   103   ar
    54    62    61    1
    55   102   101   ar
    56    21    18    1
    57    93    92    1
    58    93    95    1
    59    60    61    1
    60    78    77    1
    61    61    64    1
    62    92    89    1
    63   103   101   ar
    64     2     3    1
    65     2     1    1
    66    99    98    2
    67   101   100    1
    68     4     3    2
    69    18    17    1
    70    18    19    1
    71    64    65    1
    72    64    66    1
    73    89    90    1
    74    89    88    1
    75    65    67    1
    76    98    97    1
    77    17    11   am
    78    34    31    1
    79    20    19    2
    80    90    91    2
    81   100    97    1
    82    88    82   am
    83    97    96    1
    84    33    32    2
    85    32    31    1
    86    13    10    1
    87    13    14    1
    88    11    12    2
    89    11    10    1
    90    16    14   am
    91    31    30    1
    92    80    81    1
    93    82    81    1
    94    82    83    2
    95    10     9    1
    96    14    15    2
    97    84    81    1
    98    84    85    1
    99    30    24   am
   100    87    85   am
   101    85    86    2
   102    37    38    2
   103    37    36    1
   104    22    23    1
   105    24    25    2
   106    24    23    1
   107    39    40    1
   108    39    36    1
   109    35    36    1
   110    40    41    1
   111    23    26    1
   112    26    27    1
   113    41    42    1
   114    43    42    1
   115    27    29   ar
   116    27    28   ar
