@<TRIPOS>MOLECULE
tmp/5ucpB01.pdb
 85 78 0 0 0
SMALL
GASTEIGER

@<TRIPOS>ATOM
      1  N        -11.8670    0.1870  -49.8940 N.3    23  ASN23      -0.1240
      2  CA       -10.6000    0.6070  -49.3270 C.3    23  ASN23       0.1653
      3  C        -10.7750    1.8630  -48.4840 C.2    23  ASN23       0.2266
      4  O        -11.6640    2.6800  -48.7270 O.2    23  ASN23      -0.2867
      5  CB        -9.6000    0.8880  -50.4430 C.3    23  ASN23       0.1155
      6  CG        -9.0800   -0.3660  -51.0790 C.2    23  ASN23       0.2627
      7  OD1       -9.7410   -0.9840  -51.9150 O.2    23  ASN23      -0.2716
      8  ND2       -7.8800   -0.7500  -50.6990 N.am   23  ASN23      -0.0877
      9  N         -8.1780    4.8810  -46.1660 N.3    25  VAL25      -0.1245
     10  CA        -6.8520    5.3490  -45.7710 C.3    25  VAL25       0.1561
     11  C         -6.9070    6.2280  -44.5230 C.2    25  VAL25       0.2260
     12  O         -5.8550    6.6060  -44.0010 O.2    25  VAL25      -0.2867
     13  CB        -6.1250    6.0990  -46.9050 C.3    25  VAL25       0.0252
     14  CG1       -6.0820    5.2660  -48.1660 C.3    25  VAL25       0.0019
     15  CG2       -6.7540    7.4620  -47.1680 C.3    25  VAL25       0.0019
     16  N         -4.7590   -1.3380  -48.2330 N.3    49  SER49      -0.1217
     17  CA        -3.5550   -1.6610  -48.9770 C.3    49  SER49       0.1889
     18  C         -2.3160   -1.5390  -48.0890 C.2    49  SER49       0.2288
     19  O         -2.3400   -0.9620  -46.9940 O.2    49  SER49      -0.2866
     20  CB        -3.4010   -0.7020  -50.1510 C.3    49  SER49       0.2089
     21  OG        -3.1060    0.6020  -49.6760 O.3    49  SER49      -0.2183
     22  N          0.0970    0.3760  -48.7970 N.3    51  GLY51      -0.1210
     23  CA         0.3800    1.7980  -48.7340 C.3    51  GLY51       0.1956
     24  C         -0.4780    2.4940  -47.6970 C.2    51  GLY51       0.2611
     25  O         -0.0140    3.3940  -46.9880 O.2    51  GLY51      -0.2717
     26  N         -1.7400    2.0890  -47.5910 N.am   52  ALA52      -0.1979
     27  CA        -2.6110    2.6670  -46.5770 C.3    52  ALA52       0.1597
     28  C         -2.1300    2.3130  -45.1780 C.2    52  ALA52       0.2287
     29  O         -2.1540    3.1520  -44.2680 O.2    52  ALA52      -0.2864
     30  CB        -4.0300    2.1600  -46.7870 C.3    52  ALA52       0.0319
     31  N         -5.3000   -5.7890  -48.5390 N.3    82  ASP82      -0.1225
     32  CA        -5.4400   -5.7340  -49.9840 C.3    82  ASP82       0.1805
     33  C         -4.0500   -5.7290  -50.6160 C.2    82  ASP82       0.2597
     34  O         -3.2120   -4.8960  -50.2720 O.2    82  ASP82      -0.2718
     35  CB        -6.2010   -4.4460  -50.3000 C.3    82  ASP82       0.1424
     36  CG        -6.4680   -4.2500  -51.7670 C.2    82  ASP82       0.3668
     37  OD1       -6.5140   -5.2480  -52.5180 O.co2  82  ASP82      -0.2456
     38  OD2       -6.6480   -3.0740  -52.1720 O.co2  82  ASP82      -0.2456
     39  N         -3.8150   -6.6750  -51.5260 N.am   83  HIS83      -0.1975
     40  CA        -2.5620   -6.7970  -52.2780 C.3    83  HIS83       0.1656
     41  C         -1.3320   -6.8280  -51.3670 C.2    83  HIS83       0.2291
     42  O         -0.3890   -6.0460  -51.5110 O.2    83  HIS83      -0.2864
     43  CB        -2.4530   -5.7380  -53.3790 C.3    83  HIS83       0.0771
     44  CG        -3.3080   -6.0330  -54.5700 C.ar   83  HIS83       0.0820
     45  ND1       -4.6420   -5.6940  -54.6300 N.ar   83  HIS83      -0.2267
     46  CD2       -3.0270   -6.6640  -55.7340 C.ar   83  HIS83       0.1154
     47  CE1       -5.1430   -6.0890  -55.7860 C.ar   83  HIS83       0.1986
     48  NE2       -4.1840   -6.6810  -56.4750 N.ar   83  HIS83      -0.2212
     49  N         -6.5030   -1.8680  -62.4210 N.3   166  HIS166     -0.1241
     50  CA        -6.6830   -0.9040  -61.3470 C.3   166  HIS166      0.1621
     51  C         -6.5850    0.5270  -61.8630 C.2   166  HIS166      0.2264
     52  O         -6.1050    0.7910  -62.9690 O.2   166  HIS166     -0.2867
     53  CB        -5.6510   -1.1360  -60.2460 C.3   166  HIS166      0.0745
     54  CG        -5.7080   -2.5090  -59.6580 C.ar  166  HIS166      0.0817
     55  ND1       -5.4250   -3.6430  -60.3890 N.ar  166  HIS166     -0.2268
     56  CD2       -6.0350   -2.9320  -58.4160 C.ar  166  HIS166      0.1154
     57  CE1       -5.5660   -4.7070  -59.6180 C.ar  166  HIS166      0.1986
     58  NE2       -5.9350   -4.3020  -58.4160 N.ar  166  HIS166     -0.2212
     59  N        -13.7820   -5.3310  -55.4390 N.3   239  ASN239     -0.1240
     60  CA       -12.8540   -4.3650  -54.8710 C.3   239  ASN239      0.1653
     61  C        -13.1310   -2.9770  -55.4240 C.2   239  ASN239      0.2266
     62  O        -13.1300   -2.7680  -56.6400 O.2   239  ASN239     -0.2867
     63  CB       -11.4300   -4.7740  -55.2180 C.3   239  ASN239      0.1155
     64  CG       -10.9480   -5.9700  -54.4200 C.2   239  ASN239      0.2627
     65  OD1      -11.7350   -6.7720  -53.9280 O.2   239  ASN239     -0.2716
     66  ND2       -9.6300   -6.1050  -54.3080 N.am  239  ASN239     -0.0877
     67  N        -12.2610    1.2110  -54.8390 N.3   241  ASP241     -0.1239
     68  CA       -11.3910    2.2090  -54.2130 C.3   241  ASP241      0.1674
     69  C        -11.4610    3.5270  -54.9800 C.2   241  ASP241      0.2266
     70  O        -11.8100    4.5670  -54.4080 O.2   241  ASP241     -0.2867
     71  CB        -9.9450    1.6810  -54.1530 C.3   241  ASP241      0.1410
     72  CG        -8.9880    2.5970  -53.3780 C.2   241  ASP241      0.3668
     73  OD1       -9.3710    3.7090  -52.9850 O.co2 241  ASP241     -0.2456
     74  OD2       -7.8240    2.1910  -53.1400 O.co2 241  ASP241     -0.2456
     75  N        -12.4580    7.5630  -53.8810 N.3   245  ARG245     -0.1245
     76  CA       -11.5190    8.6830  -53.8770 C.3   245  ARG245      0.1563
     77  C        -12.0370    9.8320  -54.7260 C.2   245  ARG245      0.2260
     78  O        -11.9660   10.9980  -54.3250 O.2   245  ARG245     -0.2867
     79  CB       -10.1640    8.2620  -54.4350 C.3   245  ARG245      0.0307
     80  CG        -9.4520    7.1550  -53.7340 C.3   245  ARG245      0.0489
     81  CD        -8.1530    6.8620  -54.4850 C.3   245  ARG245      0.2205
     82  NE        -7.5240    5.6620  -53.9800 N.pl3 245  ARG245     -0.0865
     83  CZ        -6.2700    5.2970  -54.2350 C.cat 245  ARG245      0.5346
     84  NH1       -5.4820    6.0540  -54.9890 N.pl3 245  ARG245      0.1354
     85  NH2       -5.7970    4.1700  -53.7160 N.pl3 245  ARG245      0.1354
@<TRIPOS>BOND
     1    52    51    2
     2    49    50    1
     3    51    50    1
     4    50    53    1
     5    55    54   ar
     6    55    57   ar
     7    53    54    1
     8    54    56   ar
     9    57    58   ar
    10    58    56   ar
    11    62    61    2
    12    48    47   ar
    13    48    46   ar
    14    47    45   ar
    15    46    44   ar
    16    59    60    1
    17    61    60    1
    18    63    60    1
    19    63    64    1
    20    84    83    1
    21    69    70    2
    22    69    68    1
    23    67    68    1
    24    77    78    2
    25    77    76    1
    26    45    44   ar
    27    44    43    1
    28    81    82    1
    29    81    80    1
    30    79    76    1
    31    79    80    1
    32    64    66   am
    33    64    65    2
    34    83    82    2
    35    83    85    1
    36    68    71    1
    37    71    72    1
    38    75    76    1
    39    43    40    1
    40    72    74   ar
    41    72    73   ar
    42    37    36   ar
    43    40    39    1
    44    40    41    1
    45    38    36   ar
    46     7     6    2
    47    36    35    1
    48    39    33   am
    49    42    41    2
    50     6     8   am
    51     6     5    1
    52    33    34    2
    53    33    32    1
    54     5     2    1
    55    35    32    1
    56    20    21    1
    57    20    17    1
    58    32    31    1
    59     1     2    1
    60     2     3    1
    61    17    16    1
    62    17    18    1
    63    22    23    1
    64    23    24    1
    65     4     3    2
    66    14    13    1
    67    18    19    2
    68    24    26   am
    69    24    25    2
    70    26    27    1
    71    15    13    1
    72    13    10    1
    73    30    27    1
    74    27    28    1
    75     9    10    1
    76    10    11    1
    77    28    29    2
    78    11    12    2
