@<TRIPOS>MOLECULE
tmp/5ucpB00.pdb
 108 103 0 0 0
SMALL
GASTEIGER

@<TRIPOS>ATOM
      1  N        -11.8670    0.1870  -49.8940 N.3    23  ASN23      -0.1240
      2  CA       -10.6000    0.6070  -49.3270 C.3    23  ASN23       0.1653
      3  C        -10.7750    1.8630  -48.4840 C.2    23  ASN23       0.2266
      4  O        -11.6640    2.6800  -48.7270 O.2    23  ASN23      -0.2867
      5  CB        -9.6000    0.8880  -50.4430 C.3    23  ASN23       0.1155
      6  CG        -9.0800   -0.3660  -51.0790 C.2    23  ASN23       0.2627
      7  OD1       -9.7410   -0.9840  -51.9150 O.2    23  ASN23      -0.2716
      8  ND2       -7.8800   -0.7500  -50.6990 N.am   23  ASN23      -0.0877
      9  N        -11.0800   -2.8480  -46.5750 N.3    47  GLN47      -0.1245
     10  CA        -9.7710   -3.2010  -47.1240 C.3    47  GLN47       0.1566
     11  C         -8.7580   -2.1110  -46.8370 C.2    47  GLN47       0.2260
     12  O         -9.0630   -0.9190  -46.9490 O.2    47  GLN47      -0.2867
     13  CB        -9.7880   -3.2890  -48.6540 C.3    47  GLN47       0.0367
     14  CG       -10.8130   -4.1350  -49.2710 C.3    47  GLN47       0.0905
     15  CD       -10.3230   -4.7130  -50.5770 C.2    47  GLN47       0.2608
     16  OE1      -10.2130   -5.9110  -50.7050 O.2    47  GLN47      -0.2717
     17  NE2      -10.0290   -3.8470  -51.5560 N.am   47  GLN47      -0.0878
     18  N         -5.3000   -5.7890  -48.5390 N.3    82  ASP82      -0.1225
     19  CA        -5.4400   -5.7340  -49.9840 C.3    82  ASP82       0.1805
     20  C         -4.0500   -5.7290  -50.6160 C.2    82  ASP82       0.2597
     21  O         -3.2120   -4.8960  -50.2720 O.2    82  ASP82      -0.2718
     22  CB        -6.2010   -4.4460  -50.3000 C.3    82  ASP82       0.1424
     23  CG        -6.4680   -4.2500  -51.7670 C.2    82  ASP82       0.3668
     24  OD1       -6.5140   -5.2480  -52.5180 O.co2  82  ASP82      -0.2456
     25  OD2       -6.6480   -3.0740  -52.1720 O.co2  82  ASP82      -0.2456
     26  N         -3.8150   -6.6750  -51.5260 N.am   83  HIS83      -0.1975
     27  CA        -2.5620   -6.7970  -52.2780 C.3    83  HIS83       0.1656
     28  C         -1.3320   -6.8280  -51.3670 C.2    83  HIS83       0.2291
     29  O         -0.3890   -6.0460  -51.5110 O.2    83  HIS83      -0.2864
     30  CB        -2.4530   -5.7380  -53.3790 C.3    83  HIS83       0.0771
     31  CG        -3.3080   -6.0330  -54.5700 C.ar   83  HIS83       0.0820
     32  ND1       -4.6420   -5.6940  -54.6300 N.ar   83  HIS83      -0.2267
     33  CD2       -3.0270   -6.6640  -55.7340 C.ar   83  HIS83       0.1154
     34  CE1       -5.1430   -6.0890  -55.7860 C.ar   83  HIS83       0.1986
     35  NE2       -4.1840   -6.6810  -56.4750 N.ar   83  HIS83      -0.2212
     36  N         -6.5030   -1.8680  -62.4210 N.3   166  HIS166     -0.1226
     37  CA        -6.6830   -0.9040  -61.3470 C.3   166  HIS166      0.1752
     38  C         -6.5850    0.5270  -61.8630 C.2   166  HIS166      0.2596
     39  O         -6.1050    0.7910  -62.9690 O.2   166  HIS166     -0.2718
     40  CB        -5.6510   -1.1360  -60.2460 C.3   166  HIS166      0.0759
     41  CG        -5.7080   -2.5090  -59.6580 C.ar  166  HIS166      0.0818
     42  ND1       -5.4250   -3.6430  -60.3890 N.ar  166  HIS166     -0.2268
     43  CD2       -6.0350   -2.9320  -58.4160 C.ar  166  HIS166      0.1154
     44  CE1       -5.5660   -4.7070  -59.6180 C.ar  166  HIS166      0.1986
     45  NE2       -5.9350   -4.3020  -58.4160 N.ar  166  HIS166     -0.2212
     46  N         -7.0510    1.4550  -61.0370 N.am  167  GLY167     -0.1957
     47  CA        -7.0260    2.8570  -61.3860 C.3   167  GLY167      0.1869
     48  C         -8.2730    3.2980  -62.1210 C.2   167  GLY167      0.2309
     49  O         -9.2500    2.5590  -62.2920 O.2   167  GLY167     -0.2863
     50  N         -9.1720    2.0300  -67.1250 N.3   170  LYS170     -0.1245
     51  CA        -9.3050    0.5840  -67.2490 C.3   170  LYS170      0.1561
     52  C         -9.3950    0.1090  -68.6910 C.2   170  LYS170      0.2260
     53  O         -8.8190   -0.9290  -69.0300 O.2   170  LYS170     -0.2867
     54  CB       -10.5420    0.0920  -66.4900 C.3   170  LYS170      0.0271
     55  CG       -10.5580    0.4390  -65.0140 C.3   170  LYS170      0.0035
     56  CD       -11.7780   -0.1590  -64.3340 C.3   170  LYS170      0.0206
     57  CE       -11.9030    0.3330  -62.9050 C.3   170  LYS170      0.1093
     58  NZ       -10.6040    0.2010  -62.1580 N.3   170  LYS170     -0.1314
     59  N        -11.0680   -7.6270  -59.0730 N.3   196  HIS196     -0.1226
     60  CA       -10.1970   -6.4880  -58.8300 C.3   196  HIS196      0.1752
     61  C        -10.4900   -5.3720  -59.8270 C.2   196  HIS196      0.2596
     62  O        -11.0720   -5.5920  -60.8910 O.2   196  HIS196     -0.2718
     63  CB        -8.7340   -6.8950  -58.9740 C.3   196  HIS196      0.0759
     64  CG        -8.2380   -7.7660  -57.8660 C.ar  196  HIS196      0.0818
     65  ND1       -7.0420   -8.4450  -57.9360 N.ar  196  HIS196     -0.2268
     66  CD2       -8.7690   -8.0620  -56.6560 C.ar  196  HIS196      0.1154
     67  CE1       -6.8610   -9.1290  -56.8210 C.ar  196  HIS196      0.1986
     68  NE2       -7.8930   -8.9080  -56.0250 N.ar  196  HIS196     -0.2212
     69  N        -10.0670   -4.1600  -59.4700 N.am  197  GLY197     -0.1957
     70  CA       -10.2100   -3.0240  -60.3650 C.3   197  GLY197      0.1869
     71  C        -11.6410   -2.8240  -60.8140 C.2   197  GLY197      0.2309
     72  O        -11.9110   -2.6510  -62.0050 O.2   197  GLY197     -0.2863
     73  N        -14.0140   -0.4710  -59.8800 N.3   199  SER199     -0.1217
     74  CA       -14.7110    0.8060  -59.8390 C.3   199  SER199      0.1889
     75  C        -15.4150    1.0670  -61.1690 C.2   199  SER199      0.2288
     76  O        -14.9840    0.6140  -62.2330 O.2   199  SER199     -0.2866
     77  CB       -13.7550    1.9540  -59.4990 C.3   199  SER199      0.2089
     78  OG       -13.5280    2.0550  -58.0980 O.3   199  SER199     -0.2183
     79  N        -13.7820   -5.3310  -55.4390 N.3   239  ASN239     -0.1225
     80  CA       -12.8540   -4.3650  -54.8710 C.3   239  ASN239      0.1785
     81  C        -13.1310   -2.9770  -55.4240 C.2   239  ASN239      0.2598
     82  O        -13.1300   -2.7680  -56.6400 O.2   239  ASN239     -0.2718
     83  CB       -11.4300   -4.7740  -55.2180 C.3   239  ASN239      0.1169
     84  CG       -10.9480   -5.9700  -54.4200 C.2   239  ASN239      0.2627
     85  OD1      -11.7350   -6.7720  -53.9280 O.2   239  ASN239     -0.2716
     86  ND2       -9.6300   -6.1050  -54.3080 N.am  239  ASN239     -0.0877
     87  N        -13.3490   -2.0150  -54.5220 N.am  240  THR240     -0.1939
     88  CA       -13.8000   -0.6850  -54.9030 C.3   240  THR240      0.2028
     89  C        -13.0070    0.3600  -54.1210 C.2   240  THR240      0.2642
     90  O        -13.0750    0.4010  -52.8870 O.2   240  THR240     -0.2714
     91  CB       -15.3100   -0.5480  -54.6440 C.3   240  THR240      0.1808
     92  OG1      -16.0190   -1.6440  -55.2460 O.3   240  THR240     -0.2208
     93  CG2      -15.8330    0.7600  -55.2330 C.3   240  THR240      0.0379
     94  N        -12.2610    1.2110  -54.8390 N.am  241  ASP241     -0.1957
     95  CA       -11.3910    2.2090  -54.2130 C.3   241  ASP241      0.1840
     96  C        -11.4610    3.5270  -54.9800 C.2   241  ASP241      0.2622
     97  O        -11.8100    4.5670  -54.4080 O.2   241  ASP241     -0.2715
     98  CB        -9.9450    1.6810  -54.1530 C.3   241  ASP241      0.1450
     99  CG        -8.9880    2.5970  -53.3780 C.2   241  ASP241      0.3671
    100  OD1       -9.3710    3.7090  -52.9850 O.co2 241  ASP241     -0.2456
    101  OD2       -7.8240    2.1910  -53.1400 O.co2 241  ASP241     -0.2456
    102  N        -11.1490    3.4830  -56.2770 N.am  242  THR242     -0.1951
    103  CA       -11.0870    4.6860  -57.1040 C.3   242  THR242      0.1897
    104  C        -12.3710    5.5060  -57.0270 C.2   242  THR242      0.2313
    105  O        -12.3230    6.7340  -56.8740 O.2   242  THR242     -0.2863
    106  CB       -10.8000    4.2870  -58.5520 C.3   242  THR242      0.1794
    107  OG1       -9.4640    3.7830  -58.6420 O.3   242  THR242     -0.2208
    108  CG2      -10.9710    5.4840  -59.4990 C.3   242  THR242      0.0378
@<TRIPOS>BOND
     1    53    52    2
     2    52    51    1
     3    51    50    1
     4    51    54    1
     5    54    55    1
     6    55    56    1
     7    56    57    1
     8    39    38    2
     9    57    58    1
    10    36    37    1
    11    49    48    2
    12    76    75    2
    13    48    47    1
    14    72    71    2
    15    38    37    1
    16    38    46   am
    17    47    46    1
    18    37    40    1
    19    75    74    1
    20    62    61    2
    21    71    70    1
    22    42    41   ar
    23    42    44   ar
    24    70    69    1
    25    40    41    1
    26    73    74    1
    27    74    77    1
    28    61    69   am
    29    61    60    1
    30    41    43   ar
    31    44    45   ar
    32    77    78    1
    33   108   106    1
    34    59    60    1
    35    63    60    1
    36    63    64    1
    37   107   106    1
    38   106   103    1
    39    45    43   ar
    40    65    64   ar
    41    65    67   ar
    42    64    66   ar
    43   103   104    1
    44   103   102    1
    45   104   105    2
    46    67    68   ar
    47    66    68   ar
    48    82    81    2
    49    35    34   ar
    50    35    33   ar
    51   102    96   am
    52    34    32   ar
    53    33    31   ar
    54    79    80    1
    55    81    80    1
    56    81    87   am
    57    92    91    1
    58    93    91    1
    59    83    80    1
    60    83    84    1
    61    96    97    2
    62    96    95    1
    63    88    91    1
    64    88    87    1
    65    88    89    1
    66    94    95    1
    67    94    89   am
    68    32    31   ar
    69    31    30    1
    70    84    86   am
    71    84    85    2
    72    95    98    1
    73    98    99    1
    74    89    90    2
    75    30    27    1
    76    99   101   ar
    77    99   100   ar
    78    24    23   ar
    79    27    26    1
    80    27    28    1
    81    25    23   ar
    82     7     6    2
    83    23    22    1
    84    17    15   am
    85    26    20   am
    86    29    28    2
    87     6     8   am
    88     6     5    1
    89    16    15    2
    90    20    21    2
    91    20    19    1
    92    15    14    1
    93     5     2    1
    94    22    19    1
    95    19    18    1
    96     1     2    1
    97     2     3    1
    98    14    13    1
    99     4     3    2
   100    13    10    1
   101    10    11    1
   102    10     9    1
   103    12    11    2
