@<TRIPOS>MOLECULE
tmp/5ucqB00.pdb
 151 141 0 0 0
SMALL
GASTEIGER

@<TRIPOS>ATOM
      1  N         25.9570   33.9560  -16.2400 N.3    22  GLU22      -0.1245
      2  CA        25.9790   32.5000  -16.2470 C.3    22  GLU22       0.1567
      3  C         25.8390   31.9080  -14.8520 C.2    22  GLU22       0.2260
      4  O         25.1500   30.8950  -14.6820 O.2    22  GLU22      -0.2867
      5  CB        27.3030   32.0140  -16.8470 C.3    22  GLU22       0.0388
      6  CG        27.5100   32.4270  -18.2800 C.3    22  GLU22       0.1160
      7  CD        28.9540   32.2940  -18.7010 C.2    22  GLU22       0.3649
      8  OE1       29.8310   32.8260  -17.9890 O.co2  22  GLU22      -0.2457
      9  OE2       29.2180   31.6570  -19.7380 O.co2  22  GLU22      -0.2457
     10  N         29.7720   25.5810  -11.6170 N.3    30  LYS30      -0.1245
     11  CA        30.3590   26.4850  -12.6050 C.3    30  LYS30       0.1561
     12  C         29.5870   26.3450  -13.9130 C.2    30  LYS30       0.2260
     13  O         29.9700   25.6110  -14.8240 O.2    30  LYS30      -0.2867
     14  CB        31.8440   26.1890  -12.7810 C.3    30  LYS30       0.0271
     15  CG        32.6890   27.4100  -13.1780 C.3    30  LYS30       0.0035
     16  CD        32.5190   27.8310  -14.6310 C.3    30  LYS30       0.0206
     17  CE        33.4030   29.0440  -14.9180 C.3    30  LYS30       0.1093
     18  NZ        33.2610   29.5760  -16.3040 N.3    30  LYS30      -0.1314
     19  N         28.1980   27.5670  -17.5380 N.3    32  GLU32      -0.1245
     20  CA        28.7410   28.3180  -18.6620 C.3    32  GLU32       0.1567
     21  C         27.7520   28.2940  -19.8160 C.2    32  GLU32       0.2260
     22  O         27.0600   27.2960  -20.0390 O.2    32  GLU32      -0.2867
     23  CB        30.0690   27.7170  -19.1620 C.3    32  GLU32       0.0388
     24  CG        31.2170   27.7890  -18.1660 C.3    32  GLU32       0.1160
     25  CD        32.5430   27.3030  -18.7430 C.2    32  GLU32       0.3649
     26  OE1       32.5560   26.7430  -19.8640 O.co2  32  GLU32      -0.2457
     27  OE2       33.5810   27.4790  -18.0690 O.co2  32  GLU32      -0.2457
     28  N         29.8630   23.3290  -16.5100 N.3    43  ASP43      -0.1225
     29  CA        31.2360   23.0150  -16.8830 C.3    43  ASP43       0.1805
     30  C         31.8710   22.0770  -15.8690 C.2    43  ASP43       0.2597
     31  O         32.5550   21.1140  -16.2400 O.2    43  ASP43      -0.2718
     32  CB        32.0740   24.2810  -17.0150 C.3    43  ASP43       0.1424
     33  CG        33.5270   23.9610  -17.3230 C.2    43  ASP43       0.3668
     34  OD1       34.3840   24.0660  -16.4170 O.co2  43  ASP43      -0.2456
     35  OD2       33.8000   23.5480  -18.4730 O.co2  43  ASP43      -0.2456
     36  N         31.6870   22.3660  -14.5870 N.am   44  ARG44      -0.1979
     37  CA        32.2460   21.5740  -13.5020 C.3    44  ARG44       0.1597
     38  C         31.6130   22.0490  -12.2050 C.2    44  ARG44       0.2287
     39  O         30.9320   23.0760  -12.1640 O.2    44  ARG44      -0.2864
     40  CB        33.7670   21.7140  -13.4290 C.3    44  ARG44       0.0334
     41  CG        34.2350   23.1180  -13.0000 C.3    44  ARG44       0.0492
     42  CD        35.7450   23.2370  -13.1780 C.3    44  ARG44       0.2205
     43  NE        36.3080   24.4700  -12.6400 N.pl3  44  ARG44      -0.0865
     44  CZ        36.3390   25.6320  -13.2890 C.cat  44  ARG44       0.5346
     45  NH1       36.9130   26.6890  -12.7290 N.pl3  44  ARG44       0.1354
     46  NH2       35.7720   25.7510  -14.4840 N.pl3  44  ARG44       0.1354
     47  N         30.7660   31.6100   -5.8880 N.3    52  TYR52      -0.1241
     48  CA        31.0200   32.8120   -6.6730 C.3    52  TYR52       0.1605
     49  C         30.6070   34.0510   -5.8790 C.2    52  TYR52       0.2264
     50  O         29.4540   34.1400   -5.4370 O.2    52  TYR52      -0.2867
     51  CB        30.3300   32.7380   -8.0400 C.3    52  TYR52       0.0534
     52  CG        31.2230   32.0100   -9.0010 C.ar   52  TYR52      -0.0201
     53  CD1       31.2710   30.6150   -9.0100 C.ar   52  TYR52      -0.0009
     54  CD2       32.0740   32.7100   -9.8520 C.ar   52  TYR52      -0.0009
     55  CE1       32.1350   29.9330   -9.8560 C.ar   52  TYR52       0.0417
     56  CE2       32.9410   32.0340  -10.7040 C.ar   52  TYR52       0.0417
     57  CZ        32.9690   30.6500  -10.6980 C.ar   52  TYR52       0.1957
     58  OH        33.8340   29.9890  -11.5380 O.3    52  TYR52      -0.2866
     59  N         28.2840   36.2220  -12.2300 N.3    56  TYR56      -0.1241
     60  CA        29.4240   36.0200  -13.1110 C.3    56  TYR56       0.1605
     61  C         28.9380   35.6450  -14.5000 C.2    56  TYR56       0.2264
     62  O         28.0960   34.7560  -14.6430 O.2    56  TYR56      -0.2867
     63  CB        30.2940   34.8970  -12.5540 C.3    56  TYR56       0.0534
     64  CG        31.6390   34.7620  -13.2190 C.ar   56  TYR56      -0.0201
     65  CD1       32.6600   35.6380  -12.9160 C.ar   56  TYR56      -0.0009
     66  CD2       31.8850   33.7610  -14.1460 C.ar   56  TYR56      -0.0009
     67  CE1       33.8910   35.5300  -13.5020 C.ar   56  TYR56       0.0417
     68  CE2       33.1330   33.6290  -14.7480 C.ar   56  TYR56       0.0417
     69  CZ        34.1310   34.5290  -14.4180 C.ar   56  TYR56       0.1957
     70  OH        35.3810   34.4460  -14.9920 O.3    56  TYR56      -0.2866
     71  N         42.0480   34.3970  -23.6810 N.3    66  ASP66      -0.1239
     72  CA        41.9230   32.9980  -23.3060 C.3    66  ASP66       0.1674
     73  C         40.9930   32.2100  -24.2220 C.2    66  ASP66       0.2266
     74  O         40.6290   31.0820  -23.8820 O.2    66  ASP66      -0.2867
     75  CB        41.4970   32.8590  -21.8410 C.3    66  ASP66       0.1410
     76  CG        40.0980   33.3690  -21.5880 C.2    66  ASP66       0.3668
     77  OD1       39.6230   34.2320  -22.3710 O.co2  66  ASP66      -0.2456
     78  OD2       39.4780   32.8990  -20.6030 O.co2  66  ASP66      -0.2456
     79  N         37.7850   33.0270  -25.2340 N.3    68  ASP68      -0.1239
     80  CA        36.4380   33.0370  -24.6900 C.3    68  ASP68       0.1674
     81  C         35.9640   34.4770  -24.6370 C.2    68  ASP68       0.2266
     82  O         36.7850   35.3990  -24.6410 O.2    68  ASP68      -0.2867
     83  CB        36.4190   32.4270  -23.2850 C.3    68  ASP68       0.1410
     84  CG        36.0300   30.9650  -23.2930 C.2    68  ASP68       0.3668
     85  OD1       35.4060   30.5110  -24.2780 O.co2  68  ASP68      -0.2456
     86  OD2       36.3460   30.2680  -22.3080 O.co2  68  ASP68      -0.2456
     87  N         35.0610   38.0490  -19.5970 N.3    71  ASP71      -0.1239
     88  CA        34.3820   37.7530  -18.3380 C.3    71  ASP71       0.1674
     89  C         33.9700   39.0410  -17.6330 C.2    71  ASP71       0.2266
     90  O         34.7460   39.9990  -17.5570 O.2    71  ASP71      -0.2867
     91  CB        35.3130   36.9960  -17.3830 C.3    71  ASP71       0.1410
     92  CG        35.7650   35.6400  -17.9080 C.2    71  ASP71       0.3668
     93  OD1       36.9110   35.2450  -17.5700 O.co2  71  ASP71      -0.2456
     94  OD2       34.9950   34.9620  -18.6260 O.co2  71  ASP71      -0.2456
     95  N         45.5440   33.2660  -15.9460 N.3    98  ASP98      -0.1239
     96  CA        44.9090   31.9890  -15.6350 C.3    98  ASP98       0.1674
     97  C         45.5440   30.9230  -16.5130 C.2    98  ASP98       0.2266
     98  O         45.3260   30.9100  -17.7300 O.2    98  ASP98      -0.2867
     99  CB        43.4050   32.0870  -15.8910 C.3    98  ASP98       0.1410
    100  CG        42.6480   30.8370  -15.4900 C.2    98  ASP98       0.3668
    101  OD1       43.2750   29.7970  -15.1680 O.co2  98  ASP98      -0.2456
    102  OD2       41.3980   30.8940  -15.5190 O.co2  98  ASP98      -0.2456
    103  N         43.4680   36.7170  -18.5210 N.3   103  ASP103     -0.1239
    104  CA        42.0440   36.4710  -18.2870 C.3   103  ASP103      0.1674
    105  C         41.4810   37.5090  -17.3240 C.2   103  ASP103      0.2266
    106  O         40.8470   37.1840  -16.3210 O.2   103  ASP103     -0.2867
    107  CB        41.7680   35.0390  -17.8190 C.3   103  ASP103      0.1410
    108  CG        40.3290   34.6100  -18.0850 C.2   103  ASP103      0.3668
    109  OD1       39.6400   35.2950  -18.8560 O.co2 103  ASP103     -0.2456
    110  OD2       39.8820   33.5900  -17.5300 O.co2 103  ASP103     -0.2456
    111  N         39.0690   40.4550  -15.8030 N.3   105  LYS105     -0.1245
    112  CA        37.6130   40.4190  -15.6440 C.3   105  LYS105      0.1561
    113  C         37.0790   41.7880  -15.2550 C.2   105  LYS105      0.2260
    114  O         37.5750   42.4090  -14.3090 O.2   105  LYS105     -0.2867
    115  CB        37.2250   39.3920  -14.5790 C.3   105  LYS105      0.0271
    116  CG        37.9320   38.0510  -14.7710 C.3   105  LYS105      0.0035
    117  CD        37.2630   36.9330  -14.0000 C.3   105  LYS105      0.0206
    118  CE        38.1420   35.6800  -13.9940 C.3   105  LYS105      0.1093
    119  NZ        38.6390   35.3430  -15.3700 N.3   105  LYS105     -0.1314
    120  N         39.6650   33.9660   -6.8590 N.3   137  PHE137     -0.1241
    121  CA        40.3370   33.5990   -8.1010 C.3   137  PHE137      0.1605
    122  C         41.7600   33.1100   -7.8730 C.2   137  PHE137      0.2264
    123  O         42.2820   32.3630   -8.7060 O.2   137  PHE137     -0.2867
    124  CB        40.2070   34.7150   -9.1430 C.3   137  PHE137      0.0534
    125  CG        38.8160   34.8270   -9.6880 C.ar  137  PHE137     -0.0203
    126  CD1       38.3390   33.8720  -10.5790 C.ar  137  PHE137     -0.0042
    127  CD2       37.9630   35.8360   -9.2710 C.ar  137  PHE137     -0.0042
    128  CE1       37.0400   33.9360  -11.0640 C.ar  137  PHE137     -0.0003
    129  CE2       36.6660   35.9130   -9.7590 C.ar  137  PHE137     -0.0003
    130  CZ        36.2010   34.9660  -10.6530 C.ar  137  PHE137     -0.0000
    131  N         40.6000   29.2220   -6.1530 N.3   140  TYR140     -0.1227
    132  CA        39.4980   28.3260   -6.5040 C.3   140  TYR140      0.1736
    133  C         39.9120   27.1600   -7.3910 C.2   140  TYR140      0.2595
    134  O         39.1910   26.1590   -7.4290 O.2   140  TYR140     -0.2718
    135  CB        38.3060   29.0830   -7.1060 C.3   140  TYR140      0.0548
    136  CG        38.4440   29.4730   -8.5650 C.ar  140  TYR140     -0.0200
    137  CD1       39.5820   30.1380   -9.0360 C.ar  140  TYR140     -0.0009
    138  CD2       37.4150   29.2000   -9.4750 C.ar  140  TYR140     -0.0009
    139  CE1       39.6930   30.5040  -10.3800 C.ar  140  TYR140      0.0417
    140  CE2       37.5130   29.5710  -10.8080 C.ar  140  TYR140      0.0417
    141  CZ        38.6530   30.2230  -11.2570 C.ar  140  TYR140      0.1957
    142  OH        38.7530   30.5800  -12.5840 O.3   140  TYR140     -0.2866
    143  N         41.0350   27.2500   -8.1030 N.am  141  LYS141     -0.1980
    144  CA        41.5040   26.1390   -8.9250 C.3   141  LYS141      0.1596
    145  C         42.6750   25.3890   -8.3050 C.2   141  LYS141      0.2287
    146  O         43.2980   24.5650   -8.9940 O.2   141  LYS141     -0.2864
    147  CB        41.9200   26.6210  -10.3100 C.3   141  LYS141      0.0298
    148  CG        40.8050   27.0530  -11.1990 C.3   141  LYS141      0.0038
    149  CD        41.3870   27.4090  -12.5640 C.3   141  LYS141      0.0206
    150  CE        40.3470   27.9840  -13.4600 C.3   141  LYS141      0.1093
    151  NZ        40.8810   28.1430  -14.8320 N.3   141  LYS141     -0.1314
@<TRIPOS>BOND
     1    79    80    1
     2    80    81    1
     3    80    83    1
     4    82    81    2
     5    85    84   ar
     6    73    74    2
     7    73    72    1
     8    71    72    1
     9    72    75    1
    10    84    83    1
    11    84    86   ar
    12    77    76   ar
    13    75    76    1
    14    76    78   ar
    15    22    21    2
    16    26    25   ar
    17    21    20    1
    18     9     7   ar
    19    87    88    1
    20    23    20    1
    21    23    24    1
    22   109   108   ar
    23    25    24    1
    24    25    27   ar
    25     7     6    1
    26     7     8   ar
    27    20    19    1
    28    94    92   ar
    29   103   104    1
    30    35    33   ar
    31    88    89    1
    32    88    91    1
    33   104   107    1
    34   104   105    1
    35     6     5    1
    36   108   107    1
    37   108   110   ar
    38    92    93   ar
    39    92    91    1
    40    98    97    2
    41    89    90    2
    42   105   106    2
    43    33    32    1
    44    33    34   ar
    45    32    29    1
    46    29    28    1
    47    29    30    1
    48     5     2    1
    49    97    96    1
    50    18    17    1
    51     2     1    1
    52     2     3    1
    53    31    30    2
    54    95    96    1
    55    99    96    1
    56    99   100    1
    57    30    36   am
    58   111   112    1
    59   112   113    1
    60   112   115    1
    61   102   100   ar
    62   100   101   ar
    63   119   118    1
    64   113   114    2
    65    70    69    1
    66    17    16    1
    67     3     4    2
    68   151   150    1
    69    13    12    2
    70   116   115    1
    71   116   117    1
    72    68    69   ar
    73    68    66   ar
    74    62    61    2
    75    16    15    1
    76    36    37    1
    77    61    60    1
    78    46    44    1
    79    69    67   ar
    80    66    64   ar
    81   117   118    1
    82    12    11    1
    83    37    40    1
    84    37    38    1
    85    67    65   ar
    86   150   149    1
    87    40    41    1
    88    44    45    1
    89    44    43    2
    90    64    65   ar
    91    64    63    1
    92    15    14    1
    93    42    41    1
    94    42    43    1
    95    60    63    1
    96    60    59    1
    97    14    11    1
    98    11    10    1
    99   142   141    1
   100   149   148    1
   101    38    39    2
   102    58    57    1
   103   141   140   ar
   104   141   139   ar
   105   148   147    1
   106   128   130   ar
   107   128   126   ar
   108   140   138   ar
   109    56    57   ar
   110    56    54   ar
   111    57    55   ar
   112   130   129   ar
   113   126   125   ar
   114   139   137   ar
   115   147   144    1
   116    55    53   ar
   117    54    52   ar
   118   129   127   ar
   119   125   127   ar
   120   125   124    1
   121   138   136   ar
   122   124   121    1
   123   137   136   ar
   124    53    52   ar
   125    52    51    1
   126   146   145    2
   127   144   145    1
   128   144   143    1
   129   123   122    2
   130   136   135    1
   131   143   133   am
   132   121   122    1
   133   121   120    1
   134    51    48    1
   135   134   133    2
   136   133   132    1
   137   135   132    1
   138    48    47    1
   139    48    49    1
   140   132   131    1
   141    49    50    2
