@<TRIPOS>MOLECULE
tmp/5ucrA00.pdb
 185 179 0 0 0
SMALL
GASTEIGER

@<TRIPOS>ATOM
      1  N         42.1640   75.9780   35.3720 N.3    25  PRO25      -0.2102
      2  CA        42.6700   76.0520   33.9890 C.3    25  PRO25       0.1504
      3  C         44.1870   76.2260   33.9400 C.2    25  PRO25       0.2576
      4  O         44.7460   77.0920   34.6160 O.2    25  PRO25      -0.2718
      5  CB        41.9530   77.2750   33.4100 C.3    25  PRO25       0.0282
      6  CG        41.4630   78.0590   34.5700 C.3    25  PRO25       0.0208
      7  CD        41.3490   77.1500   35.7520 C.3    25  PRO25       0.0893
      8  N         44.8580   75.3940   33.1330 N.am   26  THR26      -0.1939
      9  CA        46.3120   75.4690   32.9730 C.3    26  THR26       0.2028
     10  C         46.6960   75.3030   31.5090 C.2    26  THR26       0.2642
     11  O         45.8960   74.8580   30.6740 O.2    26  THR26      -0.2714
     12  CB        47.0730   74.3850   33.7580 C.3    26  THR26       0.1808
     13  OG1       47.0430   73.1580   33.0190 O.3    26  THR26      -0.2208
     14  CG2       46.4870   74.1660   35.1700 C.3    26  THR26       0.0379
     15  N         47.9590   75.6350   31.2100 N.am   27  MET27      -0.1962
     16  CA        48.5610   75.3300   29.9160 C.3    27  MET27       0.1736
     17  C         49.4540   74.0950   29.9640 C.2    27  MET27       0.2617
     18  O         50.3070   73.9250   29.0850 O.2    27  MET27      -0.2715
     19  CB        49.3600   76.5250   29.3800 C.3    27  MET27       0.0427
     20  CG        48.4690   77.7060   28.9950 C.3    27  MET27       0.0599
     21  SD        49.3400   78.9090   27.9670 S.3    27  MET27      -0.1393
     22  CE        50.7340   79.3210   29.0080 C.3    27  MET27       0.0692
     23  N         49.2860   73.2410   30.9810 N.am   28  GLY28      -0.1940
     24  CA        50.0860   72.0330   31.1100 C.3    28  GLY28       0.2014
     25  C         51.4960   72.3260   31.6070 C.2    28  GLY28       0.2638
     26  O         51.7900   73.4010   32.1350 O.2    28  GLY28      -0.2714
     27  N         52.3860   71.3500   31.3920 N.am   29  ASN29      -0.1972
     28  CA        53.7640   71.3980   31.8880 C.3    29  ASN29       0.1688
     29  C         53.7800   71.6340   33.3940 C.2    29  ASN29       0.2292
     30  O         54.4230   72.5590   33.8980 O.2    29  ASN29      -0.2864
     31  CB        54.5790   72.4750   31.1680 C.3    29  ASN29       0.1181
     32  CG        54.8340   72.1440   29.7180 C.2    29  ASN29       0.2629
     33  OD1       54.9600   70.9800   29.3470 O.2    29  ASN29      -0.2716
     34  ND2       54.9200   73.1750   28.8840 N.am   29  ASN29      -0.0877
     35  N         53.8390   71.9630   37.4180 N.3    31  HIS31      -0.1241
     36  CA        54.8310   71.9970   38.4860 C.3    31  HIS31       0.1621
     37  C         54.1000   72.2640   39.8030 C.2    31  HIS31       0.2264
     38  O         52.8730   72.4000   39.8330 O.2    31  HIS31      -0.2867
     39  CB        55.9020   73.0590   38.2070 C.3    31  HIS31       0.0745
     40  CG        55.3340   74.4170   37.9300 C.ar   31  HIS31       0.0817
     41  ND1       54.7340   75.1840   38.9060 N.ar   31  HIS31      -0.2268
     42  CD2       55.2460   75.1330   36.7830 C.ar   31  HIS31       0.1154
     43  CE1       54.3070   76.3170   38.3760 C.ar   31  HIS31       0.1986
     44  NE2       54.6100   76.3120   37.0890 N.ar   31  HIS31      -0.2212
     45  N         53.8110   74.8390   41.6620 N.3    33  GLY33      -0.1210
     46  CA        52.9500   76.0120   41.6190 C.3    33  GLY33       0.1956
     47  C         51.5290   75.6730   41.2080 C.2    33  GLY33       0.2611
     48  O         50.5680   76.0970   41.8550 O.2    33  GLY33      -0.2717
     49  N         51.3820   74.8710   40.1420 N.am   34  HIS34      -0.1975
     50  CA        50.0620   74.4190   39.7060 C.3    34  HIS34       0.1656
     51  C         49.3880   73.5680   40.7720 C.2    34  HIS34       0.2291
     52  O         48.1750   73.6780   40.9970 O.2    34  HIS34      -0.2864
     53  CB        50.1770   73.6220   38.3990 C.3    34  HIS34       0.0771
     54  CG        50.7860   74.3930   37.2630 C.ar   34  HIS34       0.0820
     55  ND1       51.9920   74.0500   36.6890 N.ar   34  HIS34      -0.2267
     56  CD2       50.3660   75.5040   36.6140 C.ar   34  HIS34       0.1154
     57  CE1       52.2810   74.9070   35.7240 C.ar   34  HIS34       0.1986
     58  NE2       51.3150   75.8030   35.6620 N.ar   34  HIS34      -0.2212
     59  N         49.5560   73.6870   43.9080 N.3    36  ALA36      -0.1231
     60  CA        48.9610   74.5560   44.9170 C.3    36  ALA36       0.1694
     61  C         47.5230   74.9110   44.5590 C.2    36  ALA36       0.2591
     62  O         46.6310   74.8430   45.4140 O.2    36  ALA36      -0.2718
     63  CB        49.8000   75.8230   45.0910 C.3    36  ALA36       0.0304
     64  N         47.2710   75.2840   43.2930 N.am   37  LEU37      -0.1980
     65  CA        45.9010   75.5780   42.8750 C.3    37  LEU37       0.1596
     66  C         45.0180   74.3450   42.9950 C.2    37  LEU37       0.2287
     67  O         43.8460   74.4360   43.3860 O.2    37  LEU37      -0.2864
     68  CB        45.8530   76.0770   41.4290 C.3    37  LEU37       0.0297
     69  CG        46.6740   77.2320   40.8330 C.3    37  LEU37       0.0022
     70  CD1       45.9030   77.8690   39.6930 C.3    37  LEU37       0.0001
     71  CD2       47.0770   78.2750   41.8270 C.3    37  LEU37       0.0001
     72  N         48.3570   79.2490   20.8630 N.3    56  ARG56      -0.1245
     73  CA        49.3130   80.3380   20.7340 C.3    56  ARG56       0.1563
     74  C         48.8800   81.4070   19.7380 C.2    56  ARG56       0.2260
     75  O         49.4870   82.4830   19.7230 O.2    56  ARG56      -0.2867
     76  CB        50.6850   79.7870   20.3350 C.3    56  ARG56       0.0307
     77  CG        51.3870   79.0150   21.4140 C.3    56  ARG56       0.0489
     78  CD        51.7590   79.8830   22.5780 C.3    56  ARG56       0.2205
     79  NE        52.6690   79.1630   23.4570 N.pl3  56  ARG56      -0.0865
     80  CZ        52.5990   79.1820   24.7870 C.cat  56  ARG56       0.5346
     81  NH1       51.6580   79.8820   25.4010 N.pl3  56  ARG56       0.1354
     82  NH2       53.4780   78.4940   25.4980 N.pl3  56  ARG56       0.1354
     83  N         43.0570   80.4900   40.5440 N.3   136  PHE136     -0.1227
     84  CA        44.0340   81.1970   39.7290 C.3   136  PHE136      0.1736
     85  C         45.1650   81.6810   40.6220 C.2   136  PHE136      0.2596
     86  O         44.9470   82.0170   41.7860 O.2   136  PHE136     -0.2718
     87  CB        43.3880   82.3770   38.9790 C.3   136  PHE136      0.0547
     88  CG        42.3370   81.9510   37.9780 C.ar  136  PHE136     -0.0202
     89  CD1       42.6820   81.6640   36.6650 C.ar  136  PHE136     -0.0042
     90  CD2       41.0110   81.8260   38.3550 C.ar  136  PHE136     -0.0042
     91  CE1       41.7200   81.2670   35.7470 C.ar  136  PHE136     -0.0003
     92  CE2       40.0400   81.4240   37.4490 C.ar  136  PHE136     -0.0003
     93  CZ        40.3990   81.1300   36.1370 C.ar  136  PHE136     -0.0000
     94  N         46.3740   81.7220   40.0620 N.am  137  GLY137     -0.1957
     95  CA        47.5560   82.0580   40.8320 C.3   137  GLY137      0.1869
     96  C         47.8230   83.5560   40.8740 C.2   137  GLY137      0.2309
     97  O         47.7400   84.2520   39.8560 O.2   137  GLY137     -0.2863
     98  N         50.5960   84.8950   41.0780 N.3   139  LYS139     -0.1231
     99  CA        51.7820   85.2420   40.3040 C.3   139  LYS139      0.1693
    100  C         51.3940   86.0110   39.0460 C.2   139  LYS139      0.2592
    101  O         52.0980   86.9410   38.6240 O.2   139  LYS139     -0.2718
    102  CB        52.5680   83.9740   39.9520 C.3   139  LYS139      0.0285
    103  CG        53.8550   84.2310   39.1690 C.3   139  LYS139      0.0035
    104  CD        54.3700   82.9710   38.4780 C.3   139  LYS139      0.0206
    105  CE        53.5370   82.6260   37.2530 C.3   139  LYS139      0.1093
    106  NZ        54.0160   81.3770   36.5570 N.3   139  LYS139     -0.1314
    107  N         50.2690   85.6440   38.4410 N.am  140  ASP140     -0.1974
    108  CA        49.7440   86.3680   37.2810 C.3   140  ASP140      0.1709
    109  C         48.6510   87.2980   37.7920 C.2   140  ASP140      0.2293
    110  O         47.4540   87.0510   37.6650 O.2   140  ASP140     -0.2864
    111  CB        49.2540   85.3940   36.2330 C.3   140  ASP140      0.1436
    112  CG        50.3300   84.4060   35.8560 C.2   140  ASP140      0.3671
    113  OD1       51.2000   84.7600   35.0380 O.co2 140  ASP140     -0.2456
    114  OD2       50.3360   83.2890   36.4150 O.co2 140  ASP140     -0.2456
    115  N         46.2950   89.0380   35.2000 N.3   143  GLN143     -0.1245
    116  CA        45.3770   88.0020   34.7360 C.3   143  GLN143      0.1566
    117  C         44.2690   87.7300   35.7510 C.2   143  GLN143      0.2260
    118  O         43.0920   87.5840   35.3840 O.2   143  GLN143     -0.2867
    119  CB        46.1750   86.7300   34.4610 C.3   143  GLN143      0.0367
    120  CG        45.3470   85.4900   34.2950 C.3   143  GLN143      0.0905
    121  CD        46.1990   84.3460   33.8310 C.2   143  GLN143      0.2608
    122  OE1       46.6150   84.3060   32.6610 O.2   143  GLN143     -0.2717
    123  NE2       46.5250   83.4320   34.7510 N.am  143  GLN143     -0.0878
    124  N         48.1370   81.8570   46.4930 N.3   164  ASP164     -0.1225
    125  CA        49.4360   82.5010   46.6230 C.3   164  ASP164      0.1805
    126  C         50.4930   81.7950   45.7800 C.2   164  ASP164      0.2598
    127  O         50.4490   80.5790   45.5650 O.2   164  ASP164     -0.2718
    128  CB        49.8790   82.5240   48.0960 C.3   164  ASP164      0.1424
    129  CG        49.1900   83.6200   48.8990 C.2   164  ASP164      0.3668
    130  OD1       49.1560   84.7890   48.4330 O.co2 164  ASP164     -0.2456
    131  OD2       48.6830   83.3080   49.9970 O.co2 164  ASP164     -0.2456
    132  N         51.4780   82.5770   45.3450 N.am  165  THR165     -0.1939
    133  CA        52.5460   82.0820   44.4860 C.3   165  THR165      0.2028
    134  C         53.4370   81.0850   45.2160 C.2   165  THR165      0.2642
    135  O         53.9780   81.3790   46.2870 O.2   165  THR165     -0.2714
    136  CB        53.3630   83.2670   43.9870 C.3   165  THR165      0.1808
    137  OG1       52.4880   84.1440   43.2730 O.3   165  THR165     -0.2208
    138  CG2       54.5230   82.8060   43.0610 C.3   165  THR165      0.0379
    139  N         53.5870   79.8970   44.6350 N.am  166  GLY166     -0.1954
    140  CA        54.5410   78.9230   45.1350 C.3   166  GLY166      0.1869
    141  C         55.9050   79.2270   44.5500 C.2   166  GLY166      0.2309
    142  O         56.0310   79.4720   43.3470 O.2   166  GLY166     -0.2863
    143  N         57.8270   79.8040   40.9820 N.3   174  LEU174     -0.1231
    144  CA        57.7730   78.6350   40.1160 C.3   174  LEU174      0.1693
    145  C         57.0330   78.9660   38.8230 C.2   174  LEU174      0.2593
    146  O         56.0090   79.6590   38.8280 O.2   174  LEU174     -0.2718
    147  CB        57.1070   77.4620   40.8450 C.3   174  LEU174      0.0284
    148  CG        57.9580   76.8360   41.9590 C.3   174  LEU174      0.0019
    149  CD1       57.2290   75.7480   42.7480 C.3   174  LEU174      0.0001
    150  CD2       59.2440   76.2660   41.3710 C.3   174  LEU174      0.0001
    151  N         57.5700   78.4810   37.7040 N.am  175  SER175     -0.1938
    152  CA        57.0050   78.7790   36.3950 C.3   175  SER175      0.2055
    153  C         57.5570   77.7860   35.3820 C.2   175  SER175      0.2644
    154  O         58.7320   77.4130   35.4520 O.2   175  SER175     -0.2714
    155  CB        57.3280   80.2150   35.9690 C.3   175  SER175      0.2130
    156  OG        56.6920   80.5410   34.7480 O.3   175  SER175     -0.2179
    157  N         56.6950   77.3520   34.4550 N.am  176  SER176     -0.1935
    158  CA        57.1230   76.4150   33.4160 C.3   176  SER176      0.2055
    159  C         58.3200   76.9500   32.6390 C.2   176  SER176      0.2642
    160  O         59.2210   76.1860   32.2720 O.2   176  SER176     -0.2714
    161  CB        55.9690   76.1220   32.4530 C.3   176  SER176      0.2130
    162  OG        54.9900   75.2890   33.0520 O.3   176  SER176     -0.2179
    163  N         58.3450   78.2620   32.3810 N.am  177  ARG177     -0.1977
    164  CA        59.4190   78.8720   31.6040 C.3   177  ARG177      0.1597
    165  C         60.7570   78.8910   32.3380 C.2   177  ARG177      0.2287
    166  O         61.7690   79.2220   31.7130 O.2   177  ARG177     -0.2864
    167  CB        59.0200   80.2960   31.1820 C.3   177  ARG177      0.0334
    168  CG        58.5570   81.2100   32.3210 C.3   177  ARG177      0.0492
    169  CD        57.9420   82.5130   31.7930 C.3   177  ARG177      0.2205
    170  NE        56.6610   82.3090   31.1150 N.pl3 177  ARG177     -0.0865
    171  CZ        56.1280   83.1560   30.2320 C.cat 177  ARG177      0.5346
    172  NH1       56.7640   84.2750   29.9040 N.pl3 177  ARG177      0.1354
    173  NH2       54.9570   82.8830   29.6660 N.pl3 177  ARG177      0.1354
    174  N         63.8260   76.9790   30.8290 N.3   180  TYR180     -0.1241
    175  CA        64.5820   77.5090   29.7020 C.3   180  TYR180      0.1605
    176  C         65.7550   78.3960   30.1310 C.2   180  TYR180      0.2264
    177  O         66.4050   79.0050   29.2740 O.2   180  TYR180     -0.2867
    178  CB        63.6430   78.2780   28.7660 C.3   180  TYR180      0.0534
    179  CG        62.4890   77.4420   28.2720 C.ar  180  TYR180     -0.0201
    180  CD1       62.7020   76.3620   27.4170 C.ar  180  TYR180     -0.0009
    181  CD2       61.1850   77.7140   28.6840 C.ar  180  TYR180     -0.0009
    182  CE1       61.6470   75.5680   26.9870 C.ar  180  TYR180      0.0417
    183  CE2       60.1210   76.9300   28.2590 C.ar  180  TYR180      0.0417
    184  CZ        60.3570   75.8570   27.4130 C.ar  180  TYR180      0.1957
    185  OH        59.3060   75.0690   27.0020 O.3   180  TYR180     -0.2866
@<TRIPOS>BOND
     1    75    74    2
     2    74    73    1
     3    76    73    1
     4    76    77    1
     5    73    72    1
     6    77    78    1
     7    78    79    1
     8    79    80    2
     9    80    81    1
    10    80    82    1
    11   182   184   ar
    12   182   180   ar
    13   185   184    1
    14   184   183   ar
    15   180   179   ar
    16    21    20    1
    17    21    22    1
    18   183   181   ar
    19   179   181   ar
    20   179   178    1
    21   178   175    1
    22    34    32   am
    23    20    19    1
    24    18    17    2
    25   177   176    2
    26    33    32    2
    27    19    16    1
    28   173   171    1
    29   175   176    1
    30   175   174    1
    31    32    31    1
    32   172   171    1
    33    16    17    1
    34    16    15    1
    35    17    23   am
    36   171   170    2
    37    11    10    2
    38    23    24    1
    39    24    25    1
    40   170   169    1
    41    31    28    1
    42   167   164    1
    43   167   168    1
    44    15    10   am
    45    27    25   am
    46    27    28    1
    47    10     9    1
    48   164   165    1
    49   164   163    1
    50    25    26    2
    51   166   165    2
    52   169   168    1
    53    28    29    1
    54   160   159    2
    55   163   159   am
    56   161   162    1
    57   161   158    1
    58   159   158    1
    59   122   121    2
    60     9     8    1
    61     9    12    1
    62    13    12    1
    63     8     3   am
    64    29    30    2
    65     5     2    1
    66     5     6    1
    67   158   157    1
    68    12    14    1
    69   121   120    1
    70   121   123   am
    71     3     2    1
    72     3     4    2
    73     2     1    1
    74   120   119    1
    75   157   153   am
    76   119   116    1
    77     6     7    1
    78   116   115    1
    79   116   117    1
    80   156   155    1
    81   113   112   ar
    82     1     7    1
    83   153   154    2
    84   153   152    1
    85   118   117    2
    86    58    57   ar
    87    58    56   ar
    88    57    55   ar
    89    91    93   ar
    90    91    89   ar
    91   112   111    1
    92   112   114   ar
    93   155   152    1
    94    93    92   ar
    95   111   108    1
    96   152   151    1
    97   106   105    1
    98    56    54   ar
    99    89    88   ar
   100    55    54   ar
   101    42    44   ar
   102    42    40   ar
   103    44    43   ar
   104   105   104    1
   105    54    53    1
   106   108   109    1
   107   108   107    1
   108    35    36    1
   109    92    90   ar
   110   110   109    2
   111   151   145   am
   112    40    39    1
   113    40    41   ar
   114    88    90   ar
   115    88    87    1
   116    39    36    1
   117    43    41   ar
   118    53    50    1
   119   107   100   am
   120   104   103    1
   121    36    37    1
   122   101   100    2
   123   145   146    2
   124   145   144    1
   125    87    84    1
   126   100    99    1
   127   103   102    1
   128    70    69    1
   129    50    49    1
   130    50    51    1
   131    84    83    1
   132    84    85    1
   133    37    38    2
   134    97    96    2
   135   102    99    1
   136    94    85   am
   137    94    95    1
   138   144   147    1
   139   144   143    1
   140    49    47   am
   141    99    98    1
   142    85    86    2
   143    51    52    2
   144    95    96    1
   145    69    68    1
   146    69    71    1
   147   147   148    1
   148    47    46    1
   149    47    48    2
   150   150   148    1
   151    68    65    1
   152    46    45    1
   153   148   149    1
   154    65    66    1
   155    65    64    1
   156    66    67    2
   157   138   136    1
   158   137   136    1
   159    64    61   am
   160   142   141    2
   161    59    60    1
   162   136   133    1
   163   133   134    1
   164   133   132    1
   165   141   140    1
   166    61    60    1
   167    61    62    2
   168   139   140    1
   169   139   134   am
   170    60    63    1
   171   134   135    2
   172   132   126   am
   173   127   126    2
   174   126   125    1
   175   124   125    1
   176   125   128    1
   177   128   129    1
   178   130   129   ar
   179   129   131   ar
