@<TRIPOS>MOLECULE
tmp/5ucvA00.pdb
 107 103 0 0 0
SMALL
GASTEIGER

@<TRIPOS>ATOM
      1  N         -6.3400    2.3120   24.5680 N.3    30  ARG30      -0.1231
      2  CA        -5.7170    3.0470   25.6580 C.3    30  ARG30       0.1694
      3  C         -4.2010    2.9220   25.5610 C.2    30  ARG30       0.2593
      4  O         -3.6630    1.9210   25.0670 O.2    30  ARG30      -0.2718
      5  CB        -6.2180    2.5160   27.0090 C.3    30  ARG30       0.0321
      6  CG        -5.8850    3.3640   28.2400 C.3    30  ARG30       0.0489
      7  CD        -6.5930    2.8020   29.4920 C.3    30  ARG30       0.2205
      8  NE        -6.2550    3.5040   30.7330 N.pl3  30  ARG30      -0.0865
      9  CZ        -6.8930    4.5800   31.1920 C.cat  30  ARG30       0.5346
     10  NH1       -7.9050    5.1040   30.5130 N.pl3  30  ARG30       0.1354
     11  NH2       -6.5160    5.1390   32.3350 N.pl3  30  ARG30       0.1354
     12  N         -3.5050    3.9630   26.0120 N.am   31  SER31      -0.1938
     13  CA        -2.0550    3.8760   26.0670 C.3    31  SER31       0.2055
     14  C         -1.6470    2.6430   26.8620 C.2    31  SER31       0.2643
     15  O         -2.2810    2.2910   27.8600 O.2    31  SER31      -0.2714
     16  CB        -1.4610    5.1420   26.6940 C.3    31  SER31       0.2130
     17  OG        -1.4900    6.2100   25.7570 O.3    31  SER31      -0.2179
     18  N         -0.6140    1.9580   26.3760 N.am   32  ASN32      -0.1957
     19  CA        -0.0790    0.7410   26.9810 C.3    32  ASN32       0.1819
     20  C         -1.0350   -0.4470   26.8900 C.2    32  ASN32       0.2621
     21  O         -0.8680   -1.4240   27.6220 O.2    32  ASN32      -0.2715
     22  CB         0.3330    0.9750   28.4390 C.3    32  ASN32       0.1195
     23  CG         1.6110    0.2480   28.8000 C.2    32  ASN32       0.2630
     24  OD1        2.6990    0.6320   28.3660 O.2    32  ASN32      -0.2716
     25  ND2        1.4870   -0.8110   29.5950 N.am   32  ASN32      -0.0877
     26  N         -2.0310   -0.3980   25.9950 N.am   33  ALA33      -0.1963
     27  CA        -2.8530   -1.5770   25.7370 C.3    33  ALA33       0.1728
     28  C         -2.1050   -2.6400   24.9440 C.2    33  ALA33       0.2617
     29  O         -2.5350   -3.7960   24.9380 O.2    33  ALA33      -0.2715
     30  CB        -4.1300   -1.2020   24.9800 C.3    33  ALA33       0.0334
     31  N         -1.0020   -2.2780   24.2960 N.am   34  GLY34      -0.1940
     32  CA        -0.3220   -3.1570   23.3620 C.3    34  GLY34       0.2014
     33  C         -0.6470   -2.9110   21.9010 C.2    34  GLY34       0.2639
     34  O         -0.4850   -3.8250   21.0870 O.2    34  GLY34      -0.2714
     35  N         -1.0780   -1.7020   21.5370 N.am   35  LYS35      -0.1963
     36  CA        -1.5120   -1.4640   20.1630 C.3    35  LYS35       0.1728
     37  C         -0.3340   -1.4500   19.1910 C.2    35  LYS35       0.2617
     38  O         -0.4230   -2.0050   18.0870 O.2    35  LYS35      -0.2715
     39  CB        -2.3020   -0.1480   20.0910 C.3    35  LYS35       0.0311
     40  CG        -2.5850    0.3340   18.6780 C.3    35  LYS35       0.0038
     41  CD        -3.7340    1.3720   18.6230 C.3    35  LYS35       0.0206
     42  CE        -3.4240    2.6400   19.4150 C.3    35  LYS35       0.1093
     43  NZ        -2.2120    3.3900   18.9110 N.3    35  LYS35      -0.1314
     44  N          0.7670   -0.7980   19.5640 N.am   36  SER36      -0.1936
     45  CA         1.9360   -0.7780   18.6890 C.3    36  SER36       0.2055
     46  C          2.4770   -2.1880   18.4720 C.2    36  SER36       0.2643
     47  O          2.8180   -2.5710   17.3430 O.2    36  SER36      -0.2714
     48  CB         3.0170    0.1260   19.2800 C.3    36  SER36       0.2130
     49  OG         4.2360   -0.0330   18.5900 O.3    36  SER36      -0.2179
     50  N          2.5560   -2.9730   19.5430 N.am   37  SER37      -0.1949
     51  CA         3.0150   -4.3520   19.4140 C.3    37  SER37       0.1924
     52  C          2.0810   -5.1600   18.5240 C.2    37  SER37       0.2314
     53  O          2.5390   -5.9490   17.6900 O.2    37  SER37      -0.2863
     54  CB         3.1340   -4.9850   20.7980 C.3    37  SER37       0.2116
     55  OG         4.1300   -4.3220   21.5560 O.3    37  SER37      -0.2180
     56  N         -5.7800   -7.8710   24.2940 N.3   128  SER128     -0.1202
     57  CA        -4.3500   -8.0290   24.0950 C.3   128  SER128      0.2020
     58  C         -3.6410   -8.4580   25.3750 C.2   128  SER128      0.2618
     59  O         -4.1970   -8.4240   26.4760 O.2   128  SER128     -0.2717
     60  CB        -3.7500   -6.7160   23.6080 C.3   128  SER128      0.2103
     61  OG        -4.0680   -5.6820   24.5330 O.3   128  SER128     -0.2182
     62  N         -2.3700   -8.8520   25.2150 N.am  129  LYS129     -0.1979
     63  CA        -1.5640   -9.3820   26.3180 C.3   129  LYS129      0.1596
     64  C         -2.2420  -10.5720   26.9810 C.2   129  LYS129      0.2287
     65  O         -2.1080  -10.7750   28.1910 O.2   129  LYS129     -0.2864
     66  CB        -1.2620   -8.3130   27.3740 C.3   129  LYS129      0.0298
     67  CG        -0.8080   -6.9740   26.8100 C.3   129  LYS129      0.0038
     68  CD        -0.4680   -6.0130   27.9380 C.3   129  LYS129      0.0206
     69  CE        -0.1170   -4.6300   27.4140 C.3   129  LYS129      0.1093
     70  NZ         0.1990   -3.6890   28.5360 N.3   129  LYS129     -0.1314
     71  N         -1.5370  -13.5390   27.0060 N.3   131  ASP131     -0.1225
     72  CA        -0.5610  -14.4530   27.5970 C.3   131  ASP131      0.1805
     73  C         -0.2580  -14.1430   29.0590 C.2   131  ASP131      0.2597
     74  O          0.3260  -14.9930   29.7450 O.2   131  ASP131     -0.2718
     75  CB         0.7380  -14.4100   26.7990 C.3   131  ASP131      0.1424
     76  CG         1.3330  -13.0150   26.7420 C.2   131  ASP131      0.3668
     77  OD1        0.8150  -12.1740   25.9760 O.co2 131  ASP131     -0.2456
     78  OD2        2.2970  -12.7530   27.4850 O.co2 131  ASP131     -0.2456
     79  N         -0.6340  -12.9600   29.5520 N.am  132  LYS132     -0.1979
     80  CA        -0.4230  -12.5990   30.9470 C.3   132  LYS132      0.1596
     81  C         -1.5240  -13.1160   31.8700 C.2   132  LYS132      0.2287
     82  O         -1.4280  -12.9220   33.0850 O.2   132  LYS132     -0.2864
     83  CB        -0.3010  -11.0760   31.0720 C.3   132  LYS132      0.0298
     84  CG         0.8450  -10.5050   30.2420 C.3   132  LYS132      0.0038
     85  CD         1.0010   -9.0120   30.4510 C.3   132  LYS132      0.0206
     86  CE         1.7750   -8.7040   31.7220 C.3   132  LYS132      0.1093
     87  NZ         2.0880   -7.2480   31.8270 N.3   132  LYS132     -0.1314
     88  N         -2.4160  -12.1940   21.5240 N.3   164  SER164     -0.1202
     89  CA        -1.1070  -12.0270   22.1490 C.3   164  SER164      0.2020
     90  C         -0.0730  -11.7610   21.0700 C.2   164  SER164      0.2619
     91  O          0.2520  -12.6570   20.2840 O.2   164  SER164     -0.2717
     92  CB        -0.6980  -13.2470   22.9670 C.3   164  SER164      0.2103
     93  OG         0.6370  -13.0730   23.4130 O.3   164  SER164     -0.2182
     94  N          0.4660  -10.5460   21.0630 N.am  165  SER165     -0.1937
     95  CA         1.5980  -10.2440   20.1960 C.3   165  SER165      0.2055
     96  C          2.7910  -11.1130   20.5520 C.2   165  SER165      0.2642
     97  O          3.4760  -11.6380   19.6670 O.2   165  SER165     -0.2714
     98  CB         1.9800   -8.7680   20.3220 C.3   165  SER165      0.2130
     99  OG         0.9420   -7.9360   19.8620 O.3   165  SER165     -0.2179
    100  N          3.0450  -11.2740   21.8510 N.am  166  LEU166     -0.1977
    101  CA         4.2250  -12.0020   22.3030 C.3   166  LEU166      0.1596
    102  C          4.2190  -13.4350   21.7910 C.2   166  LEU166      0.2287
    103  O          5.2170  -13.9140   21.2390 O.2   166  LEU166     -0.2864
    104  CB         4.3000  -11.9720   23.8280 C.3   166  LEU166      0.0297
    105  CG         5.5770  -12.5480   24.4420 C.3   166  LEU166      0.0022
    106  CD1        6.7770  -11.7020   24.0450 C.3   166  LEU166      0.0001
    107  CD2        5.4490  -12.6400   25.9520 C.3   166  LEU166      0.0001
@<TRIPOS>BOND
     1    47    46    2
     2    53    52    2
     3    38    37    2
     4    46    45    1
     5    46    50   am
     6    52    51    1
     7    49    48    1
     8    41    40    1
     9    41    42    1
    10    40    39    1
    11    45    48    1
    12    45    44    1
    13    43    42    1
    14    37    44   am
    15    37    36    1
    16    51    50    1
    17    51    54    1
    18    97    96    2
    19    99    98    1
    20    39    36    1
    21    36    35    1
    22    95    98    1
    23    95    96    1
    24    95    94    1
    25    91    90    2
    26    96   100   am
    27    54    55    1
    28    94    90   am
    29    90    89    1
    30    34    33    2
    31   103   102    2
    32    88    89    1
    33    35    33   am
    34   102   101    1
    35   100   101    1
    36    33    32    1
    37    89    92    1
    38   101   104    1
    39    92    93    1
    40    32    31    1
    41    60    57    1
    42    60    61    1
    43   104   105    1
    44   106   105    1
    45    57    56    1
    46    57    58    1
    47    31    28   am
    48   105   107    1
    49     1     2    1
    50    29    28    2
    51    28    27    1
    52    30    27    1
    53     4     3    2
    54    62    58   am
    55    62    63    1
    56    58    59    2
    57     3     2    1
    58     3    12   am
    59     2     5    1
    60    27    26    1
    61    17    16    1
    62    77    76   ar
    63    26    20   am
    64    12    13    1
    65    13    16    1
    66    13    14    1
    67    63    64    1
    68    63    66    1
    69    18    14   am
    70    18    19    1
    71    76    75    1
    72    76    78   ar
    73    75    72    1
    74    67    66    1
    75    67    68    1
    76    14    15    2
    77    20    19    1
    78    20    21    2
    79    64    65    2
    80    19    22    1
    81    71    72    1
    82     5     6    1
    83    69    68    1
    84    69    70    1
    85    72    73    1
    86     6     7    1
    87    24    23    2
    88    22    23    1
    89    23    25   am
    90    73    79   am
    91    73    74    2
    92     7     8    1
    93    79    80    1
    94    84    85    1
    95    84    83    1
    96    85    86    1
    97    10     9    1
    98     8     9    2
    99    80    83    1
   100    80    81    1
   101     9    11    1
   102    86    87    1
   103    81    82    2
