@<TRIPOS>MOLECULE
tmp/5ud3B00.pdb
 140 130 0 0 0
SMALL
GASTEIGER

@<TRIPOS>ATOM
      1  N         10.9240   49.0050   -6.6600 N.3    23  ASN23      -0.1240
      2  CA         9.6550   48.4070   -7.0380 C.3    23  ASN23       0.1653
      3  C          9.8400   47.4360   -8.1920 C.2    23  ASN23       0.2266
      4  O         10.7220   47.6030   -9.0380 O.2    23  ASN23      -0.2867
      5  CB         8.6520   49.4770   -7.4610 C.3    23  ASN23       0.1155
      6  CG         8.1340   50.2630   -6.2980 C.2    23  ASN23       0.2627
      7  OD1        8.7740   51.2040   -5.8490 O.2    23  ASN23      -0.2716
      8  ND2        6.9700   49.8750   -5.7940 N.am   23  ASN23      -0.0877
      9  N          7.2360   44.8490  -10.9710 N.3    25  VAL25      -0.1245
     10  CA         5.9290   44.3750  -11.4320 C.3    25  VAL25       0.1561
     11  C          6.0050   43.0370  -12.1600 C.2    25  VAL25       0.2260
     12  O          4.9640   42.4760  -12.5040 O.2    25  VAL25      -0.2867
     13  CB         5.1900   45.3940  -12.3250 C.3    25  VAL25       0.0252
     14  CG1        5.0270   46.7460  -11.6150 C.3    25  VAL25       0.0019
     15  CG2        5.8590   45.5450  -13.6910 C.3    25  VAL25       0.0019
     16  N         10.1240   45.9010   -3.2910 N.3    47  GLN47      -0.1245
     17  CA         8.7930   46.3240   -2.9040 C.3    47  GLN47       0.1566
     18  C          7.7950   46.2010   -4.0480 C.2    47  GLN47       0.2260
     19  O          8.1390   46.2990   -5.2290 O.2    47  GLN47      -0.2867
     20  CB         8.7920   47.7020   -2.2110 C.3    47  GLN47       0.0367
     21  CG         9.3380   48.8480   -3.0020 C.3    47  GLN47       0.0905
     22  CD         9.2430   50.1750   -2.2390 C.2    47  GLN47       0.2608
     23  OE1        9.2910   50.2150   -1.0030 O.2    47  GLN47      -0.2717
     24  NE2        9.1070   51.2620   -2.9770 N.am   47  GLN47      -0.0878
     25  N          3.7960   47.5320   -4.9720 N.3    49  SER49      -0.1217
     26  CA         2.6120   48.3220   -4.6930 C.3    49  SER49       0.1889
     27  C          1.3560   47.4510   -4.7760 C.2    49  SER49       0.2288
     28  O          1.3810   46.3150   -5.2430 O.2    49  SER49      -0.2866
     29  CB         2.4980   49.4180   -5.7350 C.3    49  SER49       0.2089
     30  OG         2.2440   48.8140   -6.9960 O.3    49  SER49      -0.2183
     31  N         -1.0480   47.9480   -6.7980 N.3    51  GLY51      -0.1210
     32  CA        -1.2950   47.7230   -8.2140 C.3    51  GLY51       0.1956
     33  C         -0.4000   46.6410   -8.7870 C.2    51  GLY51       0.2611
     34  O         -0.8310   45.8350   -9.6220 O.2    51  GLY51      -0.2717
     35  N          0.8610   46.6120   -8.3570 N.am   52  ALA52      -0.1979
     36  CA         1.7610   45.5510   -8.7910 C.3    52  ALA52       0.1597
     37  C          1.2680   44.1940   -8.3090 C.2    52  ALA52       0.2287
     38  O          1.3510   43.1950   -9.0400 O.2    52  ALA52      -0.2864
     39  CB         3.1720   45.8260   -8.2810 C.3    52  ALA52       0.0319
     40  N          4.4080   48.2320   -0.5680 N.3    82  ASP82      -0.1225
     41  CA         4.5440   49.6650   -0.7430 C.3    82  ASP82       0.1805
     42  C          3.1590   50.2910   -0.8240 C.2    82  ASP82       0.2597
     43  O          2.3150   49.8530   -1.6050 O.2    82  ASP82      -0.2718
     44  CB         5.3180   49.8900   -2.0380 C.3    82  ASP82       0.1424
     45  CG         5.5600   51.3310   -2.3590 C.2    82  ASP82       0.3668
     46  OD1        5.5300   52.1970   -1.4540 O.co2  82  ASP82      -0.2456
     47  OD2        5.8070   51.5850   -3.5630 O.co2  82  ASP82      -0.2456
     48  N          2.9200   51.2900    0.0260 N.am   83  HIS83      -0.1975
     49  CA         1.6840   52.0670    0.0070 C.3    83  HIS83       0.1656
     50  C          0.4390   51.1930    0.1240 C.2    83  HIS83       0.2291
     51  O         -0.5110   51.3030   -0.6570 O.2    83  HIS83      -0.2864
     52  CB         1.6300   53.0140   -1.1910 C.3    83  HIS83       0.0771
     53  CG         2.4250   54.2570   -0.9720 C.ar   83  HIS83       0.0820
     54  ND1        3.7960   54.2950   -1.1040 N.ar   83  HIS83      -0.2267
     55  CD2        2.0510   55.4900   -0.5580 C.ar   83  HIS83       0.1154
     56  CE1        4.2290   55.5090   -0.8050 C.ar   83  HIS83       0.1986
     57  NE2        3.1890   56.2540   -0.4760 N.ar   83  HIS83      -0.2212
     58  N          5.7980   61.5270   -6.0500 N.3   166  GLN166     -0.1231
     59  CA         6.0390   60.3840   -6.9150 C.3   166  GLN166      0.1698
     60  C          6.0440   60.7910   -8.3830 C.2   166  GLN166      0.2592
     61  O          5.4300   61.7790   -8.7920 O.2   166  GLN166     -0.2718
     62  CB         4.9530   59.3250   -6.7270 C.3   166  GLN166      0.0381
     63  CG         5.2870   58.2580   -5.7120 C.3   166  GLN166      0.0905
     64  CD         5.4520   58.8230   -4.3250 C.2   166  GLN166      0.2608
     65  OE1        6.3810   59.5880   -4.0620 O.2   166  GLN166     -0.2717
     66  NE2        4.5480   58.4520   -3.4200 N.am  166  GLN166     -0.0878
     67  N          6.7300   59.9900   -9.1830 N.am  167  GLY167     -0.1957
     68  CA         6.6780   60.1580  -10.6180 C.3   167  GLY167      0.1869
     69  C          7.7740   61.0490  -11.1660 C.2   167  GLY167      0.2309
     70  O          8.6900   61.4960  -10.4670 O.2   167  GLY167     -0.2863
     71  N          8.4300   66.0700  -10.4790 N.3   170  LYS170     -0.1245
     72  CA         8.4650   66.2890   -9.0370 C.3   170  LYS170      0.1561
     73  C          8.4480   67.7600   -8.6630 C.2   170  LYS170      0.2260
     74  O          7.9300   68.1090   -7.5970 O.2   170  LYS170     -0.2867
     75  CB         9.6990   65.6230   -8.4290 C.3   170  LYS170      0.0271
     76  CG         9.7140   64.1130   -8.6010 C.3   170  LYS170      0.0035
     77  CD        10.8780   63.4900   -7.8580 C.3   170  LYS170      0.0206
     78  CE        11.0270   62.0120   -8.1930 C.3   170  LYS170      0.1093
     79  NZ         9.7480   61.2630   -8.0160 N.3   170  LYS170     -0.1314
     80  N         10.2100   58.8260    0.0940 N.3   196  HIS196     -0.1226
     81  CA         9.3730   58.4710   -1.0400 C.3   196  HIS196      0.1752
     82  C          9.6930   59.3740   -2.2220 C.2   196  HIS196      0.2596
     83  O         10.2510   60.4600   -2.0660 O.2   196  HIS196     -0.2718
     84  CB         7.9000   58.6420   -0.6930 C.3   196  HIS196      0.0759
     85  CG         7.3980   57.6820    0.3370 C.ar  196  HIS196      0.0818
     86  ND1        6.1580   57.8140    0.9260 N.ar  196  HIS196     -0.2268
     87  CD2        7.9650   56.5870    0.8910 C.ar  196  HIS196      0.1154
     88  CE1        5.9790   56.8270    1.7880 C.ar  196  HIS196      0.1986
     89  NE2        7.0560   56.0600    1.7730 N.ar  196  HIS196     -0.2212
     90  N          9.3330   58.9100   -3.4220 N.am  197  GLY197     -0.1957
     91  CA         9.4880   59.7400   -4.6030 C.3   197  GLY197      0.1869
     92  C         10.9230   60.1530   -4.8540 C.2   197  GLY197      0.2309
     93  O         11.1960   61.3130   -5.1700 O.2   197  GLY197     -0.2863
     94  N         13.2370   58.9960   -7.1590 N.3   199  SER199     -0.1217
     95  CA        13.9060   58.8580   -8.4460 C.3   199  SER199      0.1889
     96  C         14.6000   60.1660   -8.8290 C.2   199  SER199      0.2288
     97  O         14.1440   61.2660   -8.4970 O.2   199  SER199     -0.2866
     98  CB        12.9150   58.4350   -9.5360 C.3   199  SER199      0.2089
     99  OG        12.6770   57.0330   -9.5220 O.3   199  SER199     -0.2183
    100  N         12.8950   54.9930   -1.7750 N.3   239  ASN239     -0.1225
    101  CA        11.9560   54.3520   -2.6930 C.3   239  ASN239      0.1785
    102  C         12.2290   54.7810   -4.1290 C.2   239  ASN239      0.2598
    103  O         12.1840   55.9740   -4.4410 O.2   239  ASN239     -0.2718
    104  CB        10.5280   54.7340   -2.3080 C.3   239  ASN239      0.1169
    105  CG        10.0480   54.0460   -1.0510 C.2   239  ASN239      0.2627
    106  OD1       10.8430   53.6620   -0.1960 O.2   239  ASN239     -0.2716
    107  ND2        8.7250   53.8990   -0.9220 N.am  239  ASN239     -0.0877
    108  N         12.4420   53.8040   -5.0200 N.am  240  THR240     -0.1939
    109  CA        12.8790   54.0770   -6.3840 C.3   240  THR240      0.2028
    110  C         12.1150   53.1760   -7.3500 C.2   240  THR240      0.2642
    111  O         12.1960   51.9470   -7.2520 O.2   240  THR240     -0.2714
    112  CB        14.3870   53.8320   -6.4830 C.3   240  THR240      0.1808
    113  OG1       15.0450   54.5350   -5.4230 O.3   240  THR240     -0.2208
    114  CG2       14.9310   54.3010   -7.8180 C.3   240  THR240      0.0379
    115  N         11.4150   53.7940   -8.3070 N.am  241  ASP241     -0.1957
    116  CA        10.5680   53.0890   -9.2740 C.3   241  ASP241      0.1840
    117  C         10.6580   53.7550  -10.6500 C.2   241  ASP241      0.2622
    118  O         11.0430   53.1140  -11.6380 O.2   241  ASP241     -0.2715
    119  CB         9.1200   53.0420   -8.7390 C.3   241  ASP241      0.1450
    120  CG         8.1900   52.1250   -9.5370 C.2   241  ASP241      0.3671
    121  OD1        8.5660   51.6520  -10.6210 O.co2 241  ASP241     -0.2456
    122  OD2        7.0600   51.8740   -9.0520 O.co2 241  ASP241     -0.2456
    123  N         10.3230   55.0460  -10.7240 N.am  242  THR242     -0.1951
    124  CA        10.2970   55.7610  -12.0020 C.3   242  THR242      0.1897
    125  C         11.5930   55.5820  -12.7950 C.2   242  THR242      0.2313
    126  O         11.5590   55.3300  -14.0060 O.2   242  THR242     -0.2863
    127  CB        10.0080   57.2420  -11.7420 C.3   242  THR242      0.1794
    128  OG1        8.6810   57.3730  -11.2220 O.3   242  THR242     -0.2208
    129  CG2       10.1100   58.0650  -13.0190 C.3   242  THR242      0.0378
    130  N         11.6110   52.2370  -14.4800 N.3   245  ARG245     -0.1245
    131  CA        10.6770   52.1470  -15.5970 C.3   245  ARG245      0.1563
    132  C         11.2300   52.8320  -16.8350 C.2   245  ARG245      0.2260
    133  O         11.1420   52.3020  -17.9460 O.2   245  ARG245     -0.2867
    134  CB         9.3660   52.8260  -15.2340 C.3   245  ARG245      0.0307
    135  CG         8.6230   52.2590  -14.0640 C.3   245  ARG245      0.0489
    136  CD         7.3030   53.0000  -13.8980 C.3   245  ARG245      0.2205
    137  NE         6.7230   52.7060  -12.6070 N.pl3 245  ARG245     -0.0865
    138  CZ         5.4850   53.0250  -12.2390 C.cat 245  ARG245      0.5346
    139  NH1        4.6530   53.6230  -13.0920 N.pl3 245  ARG245      0.1354
    140  NH2        5.0820   52.7260  -11.0170 N.pl3 245  ARG245      0.1354
@<TRIPOS>BOND
     1   133   132    2
     2   132   131    1
     3   131   134    1
     4   131   130    1
     5   134   135    1
     6   135   136    1
     7   126   125    2
     8   136   137    1
     9    15    13    1
    10   139   138    1
    11   129   127    1
    12   125   124    1
    13   137   138    2
    14    12    11    2
    15    13    14    1
    16    13    10    1
    17   138   140    1
    18    11    10    1
    19   124   127    1
    20   124   123    1
    21   127   128    1
    22   118   117    2
    23    10     9    1
    24    69    68    1
    25    69    70    2
    26   123   117   am
    27   117   116    1
    28   121   120   ar
    29    68    67    1
    30    71    72    1
    31    34    33    2
    32   120   122   ar
    33   120   119    1
    34    98    99    1
    35    98    95    1
    36   116   119    1
    37   116   115    1
    38    67    60   am
    39    38    37    2
    40     4     3    2
    41    72    73    1
    42    72    75    1
    43    96    97    2
    44    96    95    1
    45    61    60    2
    46    36    35    1
    47    36    37    1
    48    36    39    1
    49    33    35   am
    50    33    32    1
    51    73    74    2
    52    76    75    1
    53    76    77    1
    54    95    94    1
    55    60    59    1
    56   115   110   am
    57    32    31    1
    58    78    79    1
    59    78    77    1
    60     3     2    1
    61   114   112    1
    62     5     2    1
    63     5     6    1
    64   110   111    2
    65   110   109    1
    66     2     1    1
    67    30    29    1
    68    59    62    1
    69    59    58    1
    70    62    63    1
    71   112   109    1
    72   112   113    1
    73   109   108    1
    74     6     7    2
    75     6     8   am
    76    29    26    1
    77    63    64    1
    78    28    27    2
    79    19    18    2
    80    93    92    2
    81   108   102   am
    82    25    26    1
    83    92    91    1
    84    27    26    1
    85    91    90    1
    86   103   102    2
    87    64    65    2
    88    64    66   am
    89   102   101    1
    90    18    17    1
    91    47    45   ar
    92    90    82   am
    93    16    17    1
    94    21    22    1
    95    21    20    1
    96    24    22   am
    97    17    20    1
    98   101   104    1
    99   101   100    1
   100    45    44    1
   101    45    46   ar
   102   104   105    1
   103    22    23    2
   104    82    83    2
   105    82    81    1
   106    44    41    1
   107    43    42    2
   108    52    53    1
   109    52    49    1
   110    54    53   ar
   111    54    56   ar
   112   105   107   am
   113   105   106    2
   114    81    84    1
   115    81    80    1
   116    53    55   ar
   117    42    41    1
   118    42    48   am
   119    56    57   ar
   120    41    40    1
   121    84    85    1
   122    51    50    2
   123    55    57   ar
   124    49    48    1
   125    49    50    1
   126    85    87   ar
   127    85    86   ar
   128    87    89   ar
   129    86    88   ar
   130    89    88   ar
