@<TRIPOS>MOLECULE
tmp/5ud6D01.pdb
 84 81 0 0 0
SMALL
GASTEIGER

@<TRIPOS>ATOM
      1  N         50.9000   -8.5920  -19.5570 N.3    51  SER51      -0.1202
      2  CA        51.4730   -8.7960  -20.8980 C.3    51  SER51       0.2020
      3  C         51.5190   -7.5280  -21.7470 C.2    51  SER51       0.2618
      4  O         52.5310   -7.2260  -22.3340 O.2    51  SER51      -0.2717
      5  CB        50.6540   -9.8370  -21.6710 C.3    51  SER51       0.2103
      6  OG        51.3770  -10.1460  -22.8540 O.3    51  SER51      -0.2182
      7  N         50.4310   -6.7950  -21.7980 N.am   52  ALA52      -0.1979
      8  CA        50.3460   -5.6020  -22.6170 C.3    52  ALA52       0.1597
      9  C         51.3770   -4.5180  -22.3060 C.2    52  ALA52       0.2287
     10  O         51.7410   -3.7640  -23.2010 O.2    52  ALA52      -0.2864
     11  CB        48.9540   -5.0180  -22.5260 C.3    52  ALA52       0.0319
     12  N         54.4250   -5.1850  -20.7190 N.3    54  LEU54      -0.1231
     13  CA        55.7660   -5.7470  -20.8120 C.3    54  LEU54       0.1693
     14  C         56.2730   -5.5950  -22.2730 C.2    54  LEU54       0.2593
     15  O         55.4780   -5.6820  -23.2240 O.2    54  LEU54      -0.2718
     16  CB        55.7860   -7.2280  -20.4370 C.3    54  LEU54       0.0284
     17  CG        55.2470   -7.6510  -19.0640 C.3    54  LEU54       0.0019
     18  CD1       55.1890   -9.1770  -18.8890 C.3    54  LEU54       0.0001
     19  CD2       56.0390   -6.9580  -17.9480 C.3    54  LEU54       0.0001
     20  N         57.5620   -5.3600  -22.4470 N.am   55  THR55      -0.1939
     21  CA        58.2280   -5.5440  -23.7420 C.3    55  THR55       0.2028
     22  C         58.5040   -7.0440  -23.9680 C.2    55  THR55       0.2642
     23  O         58.5080   -7.8380  -23.0100 O.2    55  THR55      -0.2714
     24  CB        59.6130   -4.8340  -23.8240 C.3    55  THR55       0.1808
     25  OG1       60.5150   -5.4340  -22.8710 O.3    55  THR55      -0.2208
     26  CG2       59.5050   -3.3300  -23.5900 C.3    55  THR55       0.0379
     27  N         58.7970   -7.4050  -25.2120 N.am   56  TRP56      -0.1973
     28  CA        59.1660   -8.7850  -25.5280 C.3    56  TRP56       0.1640
     29  C         60.4130   -9.2510  -24.7520 C.2    56  TRP56       0.2290
     30  O         60.4210  -10.3530  -24.2140 O.2    56  TRP56      -0.2864
     31  CB        59.3130   -9.0210  -27.0640 C.3    56  TRP56       0.0576
     32  CG        57.9300   -9.2030  -27.8100 C.ar   56  TRP56       0.0006
     33  CD1       57.4320   -8.4170  -28.8310 C.ar   56  TRP56       0.0946
     34  CD2       56.9070  -10.2030  -27.5450 C.ar   56  TRP56       0.0152
     35  NE1       56.1740   -8.8570  -29.2030 N.ar   56  TRP56      -0.2442
     36  CE2       55.8220   -9.9450  -28.4380 C.ar   56  TRP56       0.0810
     37  CE3       56.7990  -11.2810  -26.6500 C.ar   56  TRP56       0.0012
     38  CZ2       54.6470  -10.7480  -28.4610 C.ar   56  TRP56       0.0191
     39  CZ3       55.6170  -12.0650  -26.6640 C.ar   56  TRP56       0.0001
     40  CH2       54.5730  -11.7930  -27.5700 C.ar   56  TRP56       0.0015
     41  N         59.5150  -10.1580  -21.2630 N.3    59  GLU59      -0.1245
     42  CA        58.8390  -11.4460  -21.2690 C.3    59  GLU59       0.1567
     43  C         59.8180  -12.6120  -21.3760 C.2    59  GLU59       0.2260
     44  O         59.7210  -13.5930  -20.6260 O.2    59  GLU59      -0.2867
     45  CB        57.8190  -11.5600  -22.4040 C.3    59  GLU59       0.0388
     46  CG        56.6560  -10.5560  -22.3830 C.3    59  GLU59       0.1160
     47  CD        55.3260  -11.1360  -22.8930 C.2    59  GLU59       0.3649
     48  OE1       54.2460  -10.4500  -22.9070 O.co2  59  GLU59      -0.2457
     49  OE2       55.2100  -12.3620  -23.1280 O.co2  59  GLU59      -0.2457
     50  N         49.3680  -12.9350  -29.3940 N.3    83  SER83      -0.1202
     51  CA        49.3500  -11.5960  -29.9210 C.3    83  SER83       0.2020
     52  C         48.2050  -11.4960  -30.8910 C.2    83  SER83       0.2618
     53  O         47.6870  -12.5240  -31.3450 O.2    83  SER83      -0.2717
     54  CB        50.6920  -11.2490  -30.6100 C.3    83  SER83       0.2103
     55  OG        50.6510   -9.9900  -31.2310 O.3    83  SER83      -0.2182
     56  N         47.8310  -10.2460  -31.1750 N.am   84  ASN84      -0.1974
     57  CA        46.9170   -9.9220  -32.2470 C.3    84  ASN84       0.1688
     58  C         47.6220   -9.7840  -33.6090 C.2    84  ASN84       0.2292
     59  O         46.9500   -9.5000  -34.6140 O.2    84  ASN84      -0.2864
     60  CB        46.0880   -8.6630  -31.9320 C.3    84  ASN84       0.1181
     61  CG        46.9350   -7.4070  -31.7960 C.2    84  ASN84       0.2629
     62  OD1       48.1660   -7.4940  -31.7950 O.2    84  ASN84      -0.2716
     63  ND2       46.3030   -6.2550  -31.6280 N.am   84  ASN84      -0.0877
     64  N         54.1570  -11.6320  -34.7750 N.3    88  GLU88      -0.1245
     65  CA        54.6970  -11.4420  -33.4080 C.3    88  GLU88       0.1567
     66  C         54.5050  -12.7090  -32.5760 C.2    88  GLU88       0.2260
     67  O         55.3640  -13.0770  -31.8080 O.2    88  GLU88      -0.2867
     68  CB        54.0310  -10.2660  -32.6860 C.3    88  GLU88       0.0388
     69  CG        54.4890   -8.8270  -32.9890 C.3    88  GLU88       0.1160
     70  CD        53.7260   -7.8160  -32.0730 C.2    88  GLU88       0.3649
     71  OE1       52.7700   -7.1190  -32.4710 O.co2  88  GLU88      -0.2457
     72  OE2       54.0760   -7.7400  -30.8710 O.co2  88  GLU88      -0.2457
     73  N         43.1000   -9.9450  -30.2170 N.3   110  TYR110     -0.1241
     74  CA        42.3600   -8.8650  -29.5650 C.3   110  TYR110      0.1605
     75  C         42.4010   -7.6200  -30.4200 C.2   110  TYR110      0.2264
     76  O         43.3530   -7.4280  -31.1850 O.2   110  TYR110     -0.2867
     77  CB        42.9700   -8.5300  -28.1870 C.3   110  TYR110      0.0534
     78  CG        44.4960   -8.4980  -28.1290 C.ar  110  TYR110     -0.0201
     79  CD1       45.2250   -7.3460  -28.4500 C.ar  110  TYR110     -0.0009
     80  CD2       45.2150   -9.6350  -27.7620 C.ar  110  TYR110     -0.0009
     81  CE1       46.6310   -7.3480  -28.3900 C.ar  110  TYR110      0.0417
     82  CE2       46.6040   -9.6270  -27.6910 C.ar  110  TYR110      0.0417
     83  CZ        47.2960   -8.4980  -28.0170 C.ar  110  TYR110      0.1957
     84  OH        48.6760   -8.5510  -27.9530 O.3   110  TYR110     -0.2866
@<TRIPOS>BOND
     1    64    65    1
     2    59    58    2
     3    58    57    1
     4    65    68    1
     5    65    66    1
     6    69    68    1
     7    69    70    1
     8    66    67    2
     9    71    70   ar
    10    57    60    1
    11    57    56    1
    12    70    72   ar
    13    60    61    1
    14    61    62    2
    15    61    63   am
    16    53    52    2
    17    55    54    1
    18    76    75    2
    19    56    52   am
    20    52    51    1
    21    54    51    1
    22    75    74    1
    23    73    74    1
    24    51    50    1
    25    74    77    1
    26    35    33   ar
    27    35    36   ar
    28    33    32   ar
    29    38    36   ar
    30    38    40   ar
    31    79    81   ar
    32    79    78   ar
    33    36    34   ar
    34    81    83   ar
    35    77    78    1
    36    78    80   ar
    37    83    84    1
    38    83    82   ar
    39    32    34   ar
    40    32    31    1
    41    80    82   ar
    42    40    39   ar
    43    34    37   ar
    44    31    28    1
    45    39    37   ar
    46    28    27    1
    47    28    29    1
    48    27    22   am
    49    29    30    2
    50    22    21    1
    51    22    23    2
    52    24    21    1
    53    24    26    1
    54    24    25    1
    55    21    20    1
    56    15    14    2
    57    10     9    2
    58    49    47   ar
    59    48    47   ar
    60    47    46    1
    61     6     5    1
    62     8    11    1
    63     8     9    1
    64     8     7    1
    65    20    14   am
    66    45    46    1
    67    45    42    1
    68     4     3    2
    69    14    13    1
    70     7     3   am
    71     3     2    1
    72     5     2    1
    73    43    42    1
    74    43    44    2
    75    42    41    1
    76     2     1    1
    77    13    12    1
    78    13    16    1
    79    16    17    1
    80    17    18    1
    81    17    19    1
