@<TRIPOS>MOLECULE
tmp/5udkA01.pdb
 148 141 0 0 0
SMALL
GASTEIGER

@<TRIPOS>ATOM
      1  N         31.1270   17.1920 -163.4220 N.3    35  GLN35      -0.1245
      2  CA        30.9680   17.2970 -161.9690 C.3    35  GLN35       0.1566
      3  C         30.5940   18.7180 -161.5640 C.2    35  GLN35       0.2260
      4  O         29.7040   18.9140 -160.7340 O.2    35  GLN35      -0.2867
      5  CB        32.2410   16.8220 -161.2680 C.3    35  GLN35       0.0367
      6  CG        32.0910   16.9290 -159.7510 C.3    35  GLN35       0.0905
      7  CD        33.2420   16.3020 -159.0070 C.2    35  GLN35       0.2608
      8  OE1       33.9200   15.3890 -159.5070 O.2    35  GLN35      -0.2717
      9  NE2       33.4560   16.7500 -157.7670 N.am   35  GLN35      -0.0878
     10  N         27.1120   17.5220 -160.2650 N.3    39  LEU39      -0.1245
     11  CA        27.2680   16.8820 -158.9590 C.3    39  LEU39       0.1561
     12  C         26.9720   17.9140 -157.8860 C.2    39  LEU39       0.2260
     13  O         27.6210   18.9590 -157.8260 O.2    39  LEU39      -0.2867
     14  CB        28.6630   16.3060 -158.7760 C.3    39  LEU39       0.0270
     15  CG        28.6970   15.4220 -157.5240 C.3    39  LEU39       0.0019
     16  CD1       27.9790   14.0710 -157.7550 C.3    39  LEU39       0.0001
     17  CD2       30.1520   15.1470 -157.1620 C.3    39  LEU39       0.0001
     18  N         27.4750   18.9980 -154.4580 N.3    41  THR41      -0.1203
     19  CA        28.2680   18.8870 -153.2400 C.3    41  THR41       0.1994
     20  C         28.2200   20.2030 -152.4580 C.2    41  THR41       0.2618
     21  O         27.9030   21.2750 -152.9900 O.2    41  THR41      -0.2717
     22  CB        29.7330   18.5290 -153.5470 C.3    41  THR41       0.1784
     23  OG1       30.3050   19.5260 -154.3980 O.3    41  THR41      -0.2211
     24  CG2       29.8300   17.1820 -154.2610 C.3    41  THR41       0.0376
     25  N         28.5700   20.1160 -151.1760 N.am   42  LYS42      -0.1965
     26  CA        28.5200   21.3030 -150.3320 C.3    42  LYS42       0.1728
     27  C         29.5240   22.3450 -150.8040 C.2    42  LYS42       0.2616
     28  O         29.2050   23.5410 -150.8850 O.2    42  LYS42      -0.2715
     29  CB        28.7680   20.9130 -148.8680 C.3    42  LYS42       0.0311
     30  CG        28.8880   22.1070 -147.9210 C.3    42  LYS42       0.0038
     31  CD        28.6990   21.6820 -146.4830 C.3    42  LYS42       0.0206
     32  CE        28.7900   22.8710 -145.5240 C.3    42  LYS42       0.1093
     33  NZ        27.6870   23.8630 -145.7420 N.3    42  LYS42      -0.1314
     34  N         30.7540   21.9130 -151.1070 N.am   43  TYR43      -0.1974
     35  CA        31.8230   22.8070 -151.5320 C.3    43  TYR43       0.1639
     36  C         32.2720   22.4040 -152.9290 C.2    43  TYR43       0.2290
     37  O         32.3790   21.2150 -153.2260 O.2    43  TYR43      -0.2864
     38  CB        33.0350   22.7520 -150.5800 C.3    43  TYR43       0.0560
     39  CG        32.7290   23.2700 -149.1900 C.ar   43  TYR43      -0.0198
     40  CD1       32.5530   24.6270 -148.9630 C.ar   43  TYR43      -0.0009
     41  CD2       32.6020   22.4050 -148.1120 C.ar   43  TYR43      -0.0009
     42  CE1       32.2570   25.1130 -147.6980 C.ar   43  TYR43       0.0417
     43  CE2       32.3080   22.8780 -146.8410 C.ar   43  TYR43       0.0417
     44  CZ        32.1350   24.2340 -146.6390 C.ar   43  TYR43       0.1957
     45  OH        31.8480   24.7240 -145.3720 O.3    43  TYR43      -0.2866
     46  N         39.8530   25.3350 -146.8020 N.3    86  ARG86      -0.1245
     47  CA        39.9930   24.7550 -148.1450 C.3    86  ARG86       0.1563
     48  C         40.6020   25.7430 -149.1130 C.2    86  ARG86       0.2260
     49  O         41.1950   25.3190 -150.1190 O.2    86  ARG86      -0.2867
     50  CB        38.6410   24.2940 -148.6670 C.3    86  ARG86       0.0307
     51  CG        38.1550   23.0480 -147.9690 C.3    86  ARG86       0.0489
     52  CD        36.7880   22.6190 -148.4530 C.3    86  ARG86       0.2205
     53  NE        36.1410   21.9160 -147.3410 N.pl3  86  ARG86      -0.0865
     54  CZ        35.9700   20.6140 -147.2440 C.cat  86  ARG86       0.5346
     55  NH1       36.3220   19.7820 -148.2310 N.pl3  86  ARG86       0.1354
     56  NH2       35.3610   20.1590 -146.1340 N.pl3  86  ARG86       0.1354
     57  N         40.2880   16.9170 -149.2460 N.3   137  GLU137     -0.1245
     58  CA        40.5110   17.4440 -150.5900 C.3   137  GLU137      0.1567
     59  C         41.5430   16.6130 -151.3570 C.2   137  GLU137      0.2260
     60  O         41.3640   16.3530 -152.5620 O.2   137  GLU137     -0.2867
     61  CB        40.9420   18.9020 -150.5460 C.3   137  GLU137      0.0388
     62  CG        39.7820   19.8370 -150.1340 C.3   137  GLU137      0.1160
     63  CD        38.5430   19.7880 -151.0940 C.2   137  GLU137      0.3649
     64  OE1       37.4680   20.2820 -150.7060 O.co2 137  GLU137     -0.2457
     65  OE2       38.6210   19.2700 -152.2500 O.co2 137  GLU137     -0.2457
     66  N         39.6980   13.5060 -152.5110 N.3   140  TRP140     -0.1241
     67  CA        38.8000   13.6930 -153.6540 C.3   140  TRP140      0.1605
     68  C         39.5710   13.8820 -154.9530 C.2   140  TRP140      0.2264
     69  O         39.1180   13.4390 -156.0160 O.2   140  TRP140     -0.2867
     70  CB        37.8800   14.9060 -153.4380 C.3   140  TRP140      0.0550
     71  CG        36.9440   14.7490 -152.2810 C.ar  140  TRP140      0.0003
     72  CD1       36.8420   15.5930 -151.2010 C.ar  140  TRP140      0.0946
     73  CD2       35.9830   13.7090 -152.0710 C.ar  140  TRP140      0.0152
     74  NE1       35.8800   15.1080 -150.3160 N.ar  140  TRP140     -0.2442
     75  CE2       35.3450   13.9610 -150.8360 C.ar  140  TRP140      0.0810
     76  CE3       35.6020   12.5810 -152.8030 C.ar  140  TRP140      0.0012
     77  CZ2       34.3450   13.1160 -150.3170 C.ar  140  TRP140      0.0191
     78  CZ3       34.5770   11.7520 -152.2930 C.ar  140  TRP140      0.0001
     79  CH2       33.9760   12.0350 -151.0460 C.ar  140  TRP140      0.0015
     80  N         40.6700   10.4740 -156.0450 N.3   143  LEU143     -0.1231
     81  CA        39.5450    9.6640 -156.4690 C.3   143  LEU143      0.1693
     82  C         39.0770   10.0160 -157.8710 C.2   143  LEU143      0.2591
     83  O         38.4910    9.1600 -158.5570 O.2   143  LEU143     -0.2718
     84  CB        38.4250    9.8300 -155.4350 C.3   143  LEU143      0.0284
     85  CG        37.2850    8.8460 -155.5070 C.3   143  LEU143      0.0019
     86  CD1       37.7100    7.3810 -155.3830 C.3   143  LEU143      0.0001
     87  CD2       36.2910    9.2260 -154.3410 C.3   143  LEU143      0.0001
     88  N         39.2740   11.2620 -158.3040 N.am  144  LYS144     -0.1980
     89  CA        38.8160   11.6910 -159.6200 C.3   144  LYS144      0.1596
     90  C         39.8110   11.3330 -160.7130 C.2   144  LYS144      0.2287
     91  O         39.4520   11.3110 -161.9140 O.2   144  LYS144     -0.2864
     92  CB        38.5780   13.2170 -159.6060 C.3   144  LYS144      0.0298
     93  CG        37.7350   13.7380 -160.7350 C.3   144  LYS144      0.0038
     94  CD        36.3250   13.2210 -160.6630 C.3   144  LYS144      0.0206
     95  CE        35.4240   13.8610 -161.7320 C.3   144  LYS144      0.1093
     96  NZ        34.0750   13.2490 -161.6800 N.3   144  LYS144     -0.1314
     97  N         32.0120   13.6850 -144.2650 N.3   169  GLU169     -0.1245
     98  CA        32.6600   13.7930 -145.5760 C.3   169  GLU169      0.1567
     99  C         33.6570   12.6700 -145.7850 C.2   169  GLU169      0.2260
    100  O         33.6890   12.0300 -146.8560 O.2   169  GLU169     -0.2867
    101  CB        33.3460   15.1580 -145.7110 C.3   169  GLU169      0.0388
    102  CG        34.0560   15.3740 -147.0530 C.3   169  GLU169      0.1160
    103  CD        34.6190   16.7570 -147.2180 C.2   169  GLU169      0.3649
    104  OE1       34.2980   17.6470 -146.3840 O.co2 169  GLU169     -0.2457
    105  OE2       35.3010   16.9880 -148.2450 O.co2 169  GLU169     -0.2457
    106  N         33.3420    5.3620 -150.8460 N.3   176  ILE176     -0.1245
    107  CA        33.3870    5.3280 -152.3140 C.3   176  ILE176      0.1561
    108  C         34.6920    4.7140 -152.7690 C.2   176  ILE176      0.2260
    109  O         34.7120    3.8730 -153.6810 O.2   176  ILE176     -0.2867
    110  CB        33.1880    6.7490 -152.8840 C.3   176  ILE176      0.0252
    111  CG1       31.8060    7.3250 -152.5180 C.3   176  ILE176      0.0019
    112  CG2       33.3810    6.7380 -154.4030 C.3   176  ILE176      0.0019
    113  CD1       31.7360    8.8500 -152.7200 C.3   176  ILE176      0.0001
    114  N         35.0490    1.1650 -154.9010 N.3   180  ARG180     -0.1245
    115  CA        35.6970    1.0110 -156.2110 C.3   180  ARG180      0.1563
    116  C         36.8240   -0.0100 -156.1380 C.2   180  ARG180      0.2260
    117  O         37.0190   -0.8160 -157.0620 O.2   180  ARG180     -0.2867
    118  CB        36.2080    2.3580 -156.6890 C.3   180  ARG180      0.0307
    119  CG        35.1140    3.3380 -157.0660 C.3   180  ARG180      0.0489
    120  CD        35.6720    4.6340 -157.6030 C.3   180  ARG180      0.2205
    121  NE        34.5740    5.5590 -157.7940 N.pl3 180  ARG180     -0.0865
    122  CZ        34.6730    6.7600 -158.3470 C.cat 180  ARG180      0.5346
    123  NH1       35.8580    7.1990 -158.7900 N.pl3 180  ARG180      0.1354
    124  NH2       33.5740    7.5240 -158.4550 N.pl3 180  ARG180      0.1354
    125  N         23.9490    9.7670 -154.2970 N.3   211  TYR211     -0.1241
    126  CA        25.1120    9.0920 -154.8740 C.3   211  TYR211      0.1605
    127  C         25.5440    7.9190 -153.9920 C.2   211  TYR211      0.2264
    128  O         25.7420    6.7920 -154.4750 O.2   211  TYR211     -0.2867
    129  CB        26.2460   10.1310 -155.0430 C.3   211  TYR211      0.0534
    130  CG        27.4790    9.6610 -155.8020 C.ar  211  TYR211     -0.0201
    131  CD1       28.4510    8.8930 -155.2090 C.ar  211  TYR211     -0.0009
    132  CD2       27.7080   10.0900 -157.1130 C.ar  211  TYR211     -0.0009
    133  CE1       29.5630    8.4370 -155.9100 C.ar  211  TYR211      0.0417
    134  CE2       28.8240    9.6680 -157.8070 C.ar  211  TYR211      0.0417
    135  CZ        29.7560    8.8400 -157.1970 C.ar  211  TYR211      0.1957
    136  OH        30.9010    8.3830 -157.8560 O.3   211  TYR211     -0.2866
    137  N         24.2570   11.1100 -162.0620 N.3   245  TYR245     -0.1241
    138  CA        25.0020   10.1530 -161.2740 C.3   245  TYR245      0.1605
    139  C         24.0640    9.1220 -160.6460 C.2   245  TYR245      0.2264
    140  O         24.3050    7.9140 -160.7370 O.2   245  TYR245     -0.2867
    141  CB        25.8280   10.9080 -160.2140 C.3   245  TYR245      0.0534
    142  CG        26.8590   11.8280 -160.8460 C.ar  245  TYR245     -0.0201
    143  CD1       28.0410   11.3380 -161.3430 C.ar  245  TYR245     -0.0009
    144  CD2       26.6360   13.1850 -160.9400 C.ar  245  TYR245     -0.0009
    145  CE1       28.9770   12.1670 -161.9490 C.ar  245  TYR245      0.0417
    146  CE2       27.5520   14.0290 -161.5610 C.ar  245  TYR245      0.0417
    147  CZ        28.7180   13.4970 -162.0850 C.ar  245  TYR245      0.1957
    148  OH        29.6350   14.3320 -162.6680 O.3   245  TYR245     -0.2866
@<TRIPOS>BOND
     1     1     2    1
     2   148   147    1
     3   147   145   ar
     4   147   146   ar
     5   137   138    1
     6     2     3    1
     7     2     5    1
     8   145   143   ar
     9    91    90    2
    10    95    96    1
    11    95    94    1
    12     3     4    2
    13   146   144   ar
    14   143   142   ar
    15   138   139    1
    16   138   141    1
    17     5     6    1
    18   144   142   ar
    19   142   141    1
    20   140   139    2
    21    93    94    1
    22    93    92    1
    23    90    89    1
    24    10    11    1
    25     6     7    1
    26    89    92    1
    27    89    88    1
    28     8     7    2
    29     7     9   am
    30    11    14    1
    31    11    12    1
    32   123   122    1
    33    14    15    1
    34    83    82    2
    35   124   122    1
    36   122   121    2
    37    88    82   am
    38    12    13    2
    39    82    81    1
    40   136   135    1
    41   134   135   ar
    42   134   132   ar
    43   121   120    1
    44    16    15    1
    45   120   119    1
    46    15    17    1
    47   135   133   ar
    48   132   130   ar
    49   119   118    1
    50   117   116    2
    51   118   115    1
    52    81    80    1
    53    81    84    1
    54   115   116    1
    55   115   114    1
    56    69    68    2
    57   133   131   ar
    58   130   131   ar
    59   130   129    1
    60    85    84    1
    61    85    86    1
    62    85    87    1
    63   129   126    1
    64    68    67    1
    65   126   125    1
    66   126   127    1
    67   128   127    2
    68    18    19    1
    69   112   110    1
    70    23    22    1
    71    24    22    1
    72   109   108    2
    73    67    70    1
    74    67    66    1
    75    22    19    1
    76    70    71    1
    77    19    20    1
    78    37    36    2
    79    21    20    2
    80    36    35    1
    81   110   111    1
    82   110   107    1
    83    76    78   ar
    84    76    73   ar
    85   108   107    1
    86   113   111    1
    87    60    59    2
    88    20    25   am
    89   107   106    1
    90    78    79   ar
    91    71    73   ar
    92    71    72   ar
    93    65    63   ar
    94    73    75   ar
    95    35    34    1
    96    35    38    1
    97    59    58    1
    98    72    74   ar
    99    25    26    1
   100    34    27   am
   101    63    64   ar
   102    63    62    1
   103    79    77   ar
   104    28    27    2
   105    75    77   ar
   106    75    74   ar
   107    27    26    1
   108    58    61    1
   109    58    57    1
   110    38    39    1
   111    61    62    1
   112    26    29    1
   113    49    48    2
   114    39    40   ar
   115    39    41   ar
   116    48    47    1
   117    40    42   ar
   118    29    30    1
   119    50    47    1
   120    50    51    1
   121    52    51    1
   122    52    53    1
   123   105   103   ar
   124    55    54    1
   125    47    46    1
   126    41    43   ar
   127    30    31    1
   128    42    44   ar
   129    53    54    2
   130    54    56    1
   131   103   102    1
   132   103   104   ar
   133   102   101    1
   134   100    99    2
   135    43    44   ar
   136    44    45    1
   137    31    32    1
   138    99    98    1
   139    33    32    1
   140   101    98    1
   141    98    97    1
