@<TRIPOS>MOLECULE
tmp/5udkA02.pdb
 110 104 0 0 0
SMALL
GASTEIGER

@<TRIPOS>ATOM
      1  N         27.1120   17.5220 -160.2650 N.3    39  LEU39      -0.1231
      2  CA        27.2680   16.8820 -158.9590 C.3    39  LEU39       0.1693
      3  C         26.9720   17.9140 -157.8860 C.2    39  LEU39       0.2592
      4  O         27.6210   18.9590 -157.8260 O.2    39  LEU39      -0.2718
      5  CB        28.6630   16.3060 -158.7760 C.3    39  LEU39       0.0284
      6  CG        28.6970   15.4220 -157.5240 C.3    39  LEU39       0.0019
      7  CD1       27.9790   14.0710 -157.7550 C.3    39  LEU39       0.0001
      8  CD2       30.1520   15.1470 -157.1620 C.3    39  LEU39       0.0001
      9  N         26.0110   17.6150 -157.0140 N.am   40  ASP40      -0.1960
     10  CA        25.6360   18.5680 -155.9780 C.3    40  ASP40       0.1840
     11  C         26.4320   18.2210 -154.7250 C.2    40  ASP40       0.2623
     12  O         26.1630   17.2160 -154.0740 O.2    40  ASP40      -0.2715
     13  CB        24.1280   18.5180 -155.7690 C.3    40  ASP40       0.1450
     14  CG        23.3870   19.0650 -156.9910 C.2    40  ASP40       0.3671
     15  OD1       23.7540   20.1980 -157.3990 O.co2  40  ASP40      -0.2456
     16  OD2       22.5070   18.3670 -157.5780 O.co2  40  ASP40      -0.2456
     17  N         27.4750   18.9980 -154.4580 N.am   41  THR41      -0.1937
     18  CA        28.2680   18.8870 -153.2400 C.3    41  THR41       0.2028
     19  C         28.2200   20.2030 -152.4580 C.2    41  THR41       0.2642
     20  O         27.9030   21.2750 -152.9900 O.2    41  THR41      -0.2714
     21  CB        29.7330   18.5290 -153.5470 C.3    41  THR41       0.1808
     22  OG1       30.3050   19.5260 -154.3980 O.3    41  THR41      -0.2208
     23  CG2       29.8300   17.1820 -154.2610 C.3    41  THR41       0.0379
     24  N         28.5700   20.1160 -151.1760 N.am   42  LYS42      -0.1977
     25  CA        28.5200   21.3030 -150.3320 C.3    42  LYS42       0.1596
     26  C         29.5240   22.3450 -150.8040 C.2    42  LYS42       0.2287
     27  O         29.2050   23.5410 -150.8850 O.2    42  LYS42      -0.2864
     28  CB        28.7680   20.9130 -148.8680 C.3    42  LYS42       0.0298
     29  CG        28.8880   22.1070 -147.9210 C.3    42  LYS42       0.0038
     30  CD        28.6990   21.6820 -146.4830 C.3    42  LYS42       0.0206
     31  CE        28.7900   22.8710 -145.5240 C.3    42  LYS42       0.1093
     32  NZ        27.6870   23.8630 -145.7420 N.3    42  LYS42      -0.1314
     33  N         39.6980   13.5060 -152.5110 N.3   140  TRP140     -0.1241
     34  CA        38.8000   13.6930 -153.6540 C.3   140  TRP140      0.1605
     35  C         39.5710   13.8820 -154.9530 C.2   140  TRP140      0.2264
     36  O         39.1180   13.4390 -156.0160 O.2   140  TRP140     -0.2867
     37  CB        37.8800   14.9060 -153.4380 C.3   140  TRP140      0.0550
     38  CG        36.9440   14.7490 -152.2810 C.ar  140  TRP140      0.0003
     39  CD1       36.8420   15.5930 -151.2010 C.ar  140  TRP140      0.0946
     40  CD2       35.9830   13.7090 -152.0710 C.ar  140  TRP140      0.0152
     41  NE1       35.8800   15.1080 -150.3160 N.ar  140  TRP140     -0.2442
     42  CE2       35.3450   13.9610 -150.8360 C.ar  140  TRP140      0.0810
     43  CE3       35.6020   12.5810 -152.8030 C.ar  140  TRP140      0.0012
     44  CZ2       34.3450   13.1160 -150.3170 C.ar  140  TRP140      0.0191
     45  CZ3       34.5770   11.7520 -152.2930 C.ar  140  TRP140      0.0001
     46  CH2       33.9760   12.0350 -151.0460 C.ar  140  TRP140      0.0015
     47  N         32.0120   13.6850 -144.2650 N.3   169  GLU169     -0.1245
     48  CA        32.6600   13.7930 -145.5760 C.3   169  GLU169      0.1567
     49  C         33.6570   12.6700 -145.7850 C.2   169  GLU169      0.2260
     50  O         33.6890   12.0300 -146.8560 O.2   169  GLU169     -0.2867
     51  CB        33.3460   15.1580 -145.7110 C.3   169  GLU169      0.0388
     52  CG        34.0560   15.3740 -147.0530 C.3   169  GLU169      0.1160
     53  CD        34.6190   16.7570 -147.2180 C.2   169  GLU169      0.3649
     54  OE1       34.2980   17.6470 -146.3840 O.co2 169  GLU169     -0.2457
     55  OE2       35.3010   16.9880 -148.2450 O.co2 169  GLU169     -0.2457
     56  N         32.0890    9.3250 -146.3840 N.3   172  ALA172     -0.1245
     57  CA        31.6640    9.1580 -147.7780 C.3   172  ALA172      0.1562
     58  C         32.8510    8.8360 -148.6870 C.2   172  ALA172      0.2260
     59  O         32.7950    7.8880 -149.4840 O.2   172  ALA172     -0.2867
     60  CB        30.9610   10.4090 -148.2590 C.3   172  ALA172      0.0290
     61  N         33.3420    5.3620 -150.8460 N.3   176  ILE176     -0.1245
     62  CA        33.3870    5.3280 -152.3140 C.3   176  ILE176      0.1561
     63  C         34.6920    4.7140 -152.7690 C.2   176  ILE176      0.2260
     64  O         34.7120    3.8730 -153.6810 O.2   176  ILE176     -0.2867
     65  CB        33.1880    6.7490 -152.8840 C.3   176  ILE176      0.0252
     66  CG1       31.8060    7.3250 -152.5180 C.3   176  ILE176      0.0019
     67  CG2       33.3810    6.7380 -154.4030 C.3   176  ILE176      0.0019
     68  CD1       31.7360    8.8500 -152.7200 C.3   176  ILE176      0.0001
     69  N         25.2910   10.9050 -144.0870 N.3   206  ASN206     -0.1240
     70  CA        25.0060   11.7960 -145.2160 C.3   206  ASN206      0.1653
     71  C         23.6180   11.4500 -145.7500 C.2   206  ASN206      0.2266
     72  O         23.4610   10.8620 -146.8210 O.2   206  ASN206     -0.2867
     73  CB        26.0450   11.6390 -146.3330 C.3   206  ASN206      0.1155
     74  CG        27.4550   12.0090 -145.9120 C.2   206  ASN206      0.2627
     75  OD1       27.8620   13.1770 -145.9940 O.2   206  ASN206     -0.2716
     76  ND2       28.2270   11.0220 -145.4750 N.am  206  ASN206     -0.0877
     77  N         22.3000   12.1880 -149.3870 N.3   209  ASN209     -0.1240
     78  CA        23.2030   11.9390 -150.5080 C.3   209  ASN209      0.1653
     79  C         22.7390   10.7230 -151.3090 C.2   209  ASN209      0.2266
     80  O         22.9300    9.5790 -150.8950 O.2   209  ASN209     -0.2867
     81  CB        24.6230   11.7550 -149.9880 C.3   209  ASN209      0.1155
     82  CG        25.6300   11.7810 -151.0580 C.2   209  ASN209      0.2627
     83  OD1       25.4850   11.1050 -152.0390 O.2   209  ASN209     -0.2716
     84  ND2       26.6910   12.5340 -150.8560 N.am  209  ASN209     -0.0877
     85  N         23.9490    9.7670 -154.2970 N.3   211  TYR211     -0.1227
     86  CA        25.1120    9.0920 -154.8740 C.3   211  TYR211      0.1736
     87  C         25.5440    7.9190 -153.9920 C.2   211  TYR211      0.2595
     88  O         25.7420    6.7920 -154.4750 O.2   211  TYR211     -0.2718
     89  CB        26.2460   10.1310 -155.0430 C.3   211  TYR211      0.0548
     90  CG        27.4790    9.6610 -155.8020 C.ar  211  TYR211     -0.0200
     91  CD1       28.4510    8.8930 -155.2090 C.ar  211  TYR211     -0.0009
     92  CD2       27.7080   10.0900 -157.1130 C.ar  211  TYR211     -0.0009
     93  CE1       29.5630    8.4370 -155.9100 C.ar  211  TYR211      0.0417
     94  CE2       28.8240    9.6680 -157.8070 C.ar  211  TYR211      0.0417
     95  CZ        29.7560    8.8400 -157.1970 C.ar  211  TYR211      0.1957
     96  OH        30.9010    8.3830 -157.8560 O.3   211  TYR211     -0.2866
     97  N         25.6760    8.1620 -152.6910 N.am  212  ILE212     -0.1980
     98  CA        26.1170    7.0820 -151.8190 C.3   212  ILE212      0.1595
     99  C         25.0530    5.9880 -151.7430 C.2   212  ILE212      0.2287
    100  O         25.3680    4.7880 -151.5900 O.2   212  ILE212     -0.2864
    101  CB        26.4580    7.6480 -150.4220 C.3   212  ILE212      0.0276
    102  CG1       27.4870    8.7720 -150.5450 C.3   212  ILE212      0.0022
    103  CG2       27.0220    6.5670 -149.5320 C.3   212  ILE212      0.0022
    104  CD1       27.5990    9.6100 -149.3240 C.3   212  ILE212      0.0001
    105  N         22.0840   15.5720 -158.2350 N.3   242  SER242     -0.1217
    106  CA        23.0730   14.6970 -158.8670 C.3   242  SER242      0.1889
    107  C         22.4430   13.6200 -159.7570 C.2   242  SER242      0.2288
    108  O         22.8480   12.4640 -159.7270 O.2   242  SER242     -0.2866
    109  CB        23.9410   14.0510 -157.7930 C.3   242  SER242      0.2089
    110  OG        24.5770   15.0380 -156.9540 O.3   242  SER242     -0.2183
@<TRIPOS>BOND
     1     1     2    1
     2   107   108    2
     3   107   106    1
     4     2     5    1
     5     2     3    1
     6   106   105    1
     7   106   109    1
     8     5     6    1
     9     3     4    2
    10     3     9   am
    11    96    95    1
    12    94    95   ar
    13    94    92   ar
    14   109   110    1
    15     7     6    1
    16    16    14   ar
    17     6     8    1
    18    15    14   ar
    19    95    93   ar
    20    92    90   ar
    21     9    10    1
    22    14    13    1
    23    36    35    2
    24    10    13    1
    25    10    11    1
    26    93    91   ar
    27    90    91   ar
    28    90    89    1
    29    89    86    1
    30    35    34    1
    31    86    85    1
    32    86    87    1
    33    11    17   am
    34    11    12    2
    35    88    87    2
    36    17    18    1
    37    67    65    1
    38    22    21    1
    39    23    21    1
    40    87    97   am
    41    64    63    2
    42    34    37    1
    43    34    33    1
    44    21    18    1
    45    37    38    1
    46    18    19    1
    47    20    19    2
    48    65    66    1
    49    65    62    1
    50    43    45   ar
    51    43    40   ar
    52    63    62    1
    53    68    66    1
    54    97    98    1
    55    19    24   am
    56    62    61    1
    57    45    46   ar
    58    38    40   ar
    59    38    39   ar
    60    40    42   ar
    61    83    82    2
    62    98    99    1
    63    98   101    1
    64    99   100    2
    65    79    80    2
    66    79    78    1
    67    39    41   ar
    68    24    25    1
    69    82    84   am
    70    82    81    1
    71    46    44   ar
    72    27    26    2
    73    42    44   ar
    74    42    41   ar
    75    26    25    1
    76   102   101    1
    77   102   104    1
    78    78    81    1
    79    78    77    1
    80   101   103    1
    81    25    28    1
    82    59    58    2
    83    28    29    1
    84    58    57    1
    85    60    57    1
    86    55    53   ar
    87    29    30    1
    88    57    56    1
    89    53    52    1
    90    53    54   ar
    91    52    51    1
    92    50    49    2
    93    72    71    2
    94    30    31    1
    95    73    74    1
    96    73    70    1
    97    75    74    2
    98    74    76   am
    99    49    48    1
   100    71    70    1
   101    32    31    1
   102    51    48    1
   103    48    47    1
   104    70    69    1
