@<TRIPOS>MOLECULE
tmp/5udsD00.pdb
 157 152 0 0 0
SMALL
GASTEIGER

@<TRIPOS>ATOM
      1  N         13.3140  -72.3330   34.9350 N.3    22  ALA22      -0.1231
      2  CA        12.8070  -71.0030   34.5890 C.3    22  ALA22       0.1694
      3  C         13.6230  -70.4550   33.4250 C.2    22  ALA22       0.2592
      4  O         14.7990  -70.1230   33.5920 O.2    22  ALA22      -0.2718
      5  CB        12.8870  -70.0730   35.7930 C.3    22  ALA22       0.0304
      6  N         13.0150  -70.3490   32.2500 N.am   23  PHE23      -0.1962
      7  CA        13.7640  -70.0950   31.0250 C.3    23  PHE23       0.1771
      8  C         13.4380  -68.7160   30.4480 C.2    23  PHE23       0.2620
      9  O         12.3220  -68.4810   29.9720 O.2    23  PHE23      -0.2715
     10  CB        13.4940  -71.1910   30.0050 C.3    23  PHE23       0.0574
     11  CG        14.3060  -71.0550   28.7770 C.ar   23  PHE23      -0.0200
     12  CD1       15.6780  -71.0760   28.8560 C.ar   23  PHE23      -0.0042
     13  CD2       13.6960  -70.8880   27.5440 C.ar   23  PHE23      -0.0042
     14  CE1       16.4350  -70.9340   27.7310 C.ar   23  PHE23      -0.0003
     15  CE2       14.4450  -70.7510   26.4150 C.ar   23  PHE23      -0.0003
     16  CZ        15.8190  -70.7720   26.5030 C.ar   23  PHE23      -0.0000
     17  N         14.4430  -67.8360   30.4280 N.am   24  SER24      -0.1950
     18  CA        14.2730  -66.4750   29.9280 C.3    24  SER24       0.1924
     19  C         14.6210  -66.3100   28.4510 C.2    24  SER24       0.2314
     20  O         14.2720  -65.2810   27.8600 O.2    24  SER24      -0.2863
     21  CB        15.1190  -65.5080   30.7620 C.3    24  SER24       0.2116
     22  OG        16.5010  -65.6220   30.4730 O.3    24  SER24      -0.2180
     23  N         17.6730  -65.8810   27.5060 N.3    26  GLY26      -0.1210
     24  CA        19.0050  -65.3310   27.5410 C.3    26  GLY26       0.1956
     25  C         20.0580  -66.4050   27.6500 C.2    26  GLY26       0.2612
     26  O         19.7650  -67.5660   27.9000 O.2    26  GLY26      -0.2717
     27  N         21.3160  -65.9750   27.5440 N.am   27  ILE27      -0.1965
     28  CA        22.4230  -66.9270   27.4730 C.3    27  ILE27       0.1727
     29  C         22.4890  -67.7720   28.7390 C.2    27  ILE27       0.2616
     30  O         22.7820  -68.9690   28.6780 O.2    27  ILE27      -0.2715
     31  CB        23.7530  -66.1830   27.1970 C.3    27  ILE27       0.0290
     32  CG1       24.9140  -67.1460   26.8940 C.3    27  ILE27       0.0022
     33  CG2       24.1290  -65.2660   28.3530 C.3    27  ILE27       0.0023
     34  CD1       24.6840  -68.0830   25.7450 C.3    27  ILE27       0.0001
     35  N         22.1670  -67.1890   29.8960 N.am   28  ASP28      -0.1957
     36  CA        22.3510  -67.9190   31.1510 C.3    28  ASP28       0.1840
     37  C         21.3120  -69.0240   31.3280 C.2    28  ASP28       0.2622
     38  O         21.6630  -70.1810   31.5790 O.2    28  ASP28      -0.2715
     39  CB        22.3290  -66.9620   32.3320 C.3    28  ASP28       0.1450
     40  CG        23.3760  -65.8840   32.2130 C.2    28  ASP28       0.3671
     41  OD1       22.9840  -64.6920   32.1990 O.co2  28  ASP28      -0.2456
     42  OD2       24.5830  -66.2280   32.1650 O.co2  28  ASP28      -0.2456
     43  N         20.0240  -68.6910   31.2380 N.am   29  SER29      -0.1950
     44  CA        19.0400  -69.7560   31.3660 C.3    29  SER29       0.1924
     45  C         19.1010  -70.7090   30.1810 C.2    29  SER29       0.2314
     46  O         18.7130  -71.8720   30.3230 O.2    29  SER29      -0.2863
     47  CB        17.6240  -69.1890   31.5420 C.3    29  SER29       0.2116
     48  OG        17.2800  -68.2480   30.5410 O.3    29  SER29      -0.2180
     49  N          9.7990  -73.4900   31.3370 N.3    48  VAL48      -0.1231
     50  CA         8.7200  -72.5580   31.6450 C.3    48  VAL48       0.1692
     51  C          9.1380  -71.1670   31.1820 C.2    48  VAL48       0.2592
     52  O         10.1860  -70.6540   31.5990 O.2    48  VAL48      -0.2718
     53  CB         8.3800  -72.5380   33.1410 C.3    48  VAL48       0.0266
     54  CG1        7.3700  -71.4380   33.4300 C.3    48  VAL48       0.0020
     55  CG2        7.8620  -73.8980   33.5960 C.3    48  VAL48       0.0020
     56  N          8.3210  -70.5560   30.3310 N.am   49  VAL49      -0.1966
     57  CA         8.5170  -69.1770   29.9100 C.3    49  VAL49       0.1727
     58  C          7.3580  -68.3710   30.4550 C.2    49  VAL49       0.2616
     59  O          6.2060  -68.5820   30.0560 O.2    49  VAL49      -0.2715
     60  CB         8.6090  -69.0330   28.3830 C.3    49  VAL49       0.0290
     61  CG1        8.9340  -67.5850   28.0140 C.3    49  VAL49       0.0023
     62  CG2        9.6480  -69.9880   27.7930 C.3    49  VAL49       0.0023
     63  N          7.6680  -67.4030   31.3030 N.am   50  ALA50      -0.1977
     64  CA         6.6460  -66.5430   31.8780 C.3    50  ALA50       0.1597
     65  C          6.2960  -65.4100   30.9120 C.2    50  ALA50       0.2287
     66  O          7.1850  -64.7100   30.4050 O.2    50  ALA50      -0.2864
     67  CB         7.1240  -65.9790   33.2160 C.3    50  ALA50       0.0319
     68  N          6.9060  -57.2850   30.4160 N.3    55  PHE55      -0.1241
     69  CA         7.9780  -57.6440   29.4890 C.3    55  PHE55       0.1605
     70  C          7.3710  -57.8880   28.1180 C.2    55  PHE55       0.2264
     71  O          6.1670  -58.1050   27.9960 O.2    55  PHE55      -0.2867
     72  CB         8.7540  -58.8620   29.9770 C.3    55  PHE55       0.0534
     73  CG         9.5580  -58.6130   31.2260 C.ar   55  PHE55      -0.0203
     74  CD1        8.9710  -58.6960   32.4760 C.ar   55  PHE55      -0.0042
     75  CD2       10.9200  -58.3450   31.1470 C.ar   55  PHE55      -0.0042
     76  CE1        9.7140  -58.4800   33.6230 C.ar   55  PHE55      -0.0003
     77  CE2       11.6760  -58.1390   32.2940 C.ar   55  PHE55      -0.0003
     78  CZ        11.0680  -58.2000   33.5310 C.ar   55  PHE55      -0.0000
     79  N         10.0020  -60.9570   23.5360 N.3    59  GLU59      -0.1245
     80  CA        10.8540  -61.7810   24.3760 C.3    59  GLU59       0.1567
     81  C         10.1610  -63.0950   24.7280 C.2    59  GLU59       0.2260
     82  O         10.7810  -64.1620   24.6900 O.2    59  GLU59      -0.2867
     83  CB        11.2300  -60.9880   25.6250 C.3    59  GLU59       0.0388
     84  CG        12.2840  -61.5930   26.5160 C.3    59  GLU59       0.1160
     85  CD        12.0300  -61.2120   27.9570 C.2    59  GLU59       0.3649
     86  OE1       12.9790  -60.8160   28.6660 O.co2  59  GLU59      -0.2457
     87  OE2       10.8550  -61.3020   28.3740 O.co2  59  GLU59      -0.2457
     88  N          6.2610  -64.5340   40.6190 N.3   102  PHE102     -0.1227
     89  CA         7.0250  -65.3260   39.6680 C.3   102  PHE102      0.1736
     90  C          7.4530  -66.6530   40.2810 C.2   102  PHE102      0.2595
     91  O          7.1860  -67.7280   39.7300 O.2   102  PHE102     -0.2718
     92  CB         8.2500  -64.5350   39.2040 C.3   102  PHE102      0.0547
     93  CG         9.1550  -65.3060   38.2930 C.ar  102  PHE102     -0.0202
     94  CD1        8.8980  -65.3700   36.9300 C.ar  102  PHE102     -0.0042
     95  CD2       10.2690  -65.9710   38.7940 C.ar  102  PHE102     -0.0042
     96  CE1        9.7420  -66.0760   36.0760 C.ar  102  PHE102     -0.0003
     97  CE2       11.1160  -66.6870   37.9570 C.ar  102  PHE102     -0.0003
     98  CZ        10.8570  -66.7370   36.5910 C.ar  102  PHE102     -0.0000
     99  N          8.1380  -66.5960   41.4220 N.am  103  TYR103     -0.1976
    100  CA         8.6580  -67.8310   41.9910 C.3   103  TYR103      0.1639
    101  C          7.5460  -68.6850   42.5760 C.2   103  TYR103      0.2290
    102  O          7.6230  -69.9150   42.5150 O.2   103  TYR103     -0.2864
    103  CB         9.7450  -67.5100   43.0140 C.3   103  TYR103      0.0560
    104  CG        11.0580  -67.1810   42.3310 C.ar  103  TYR103     -0.0198
    105  CD1       11.8250  -68.1740   41.7250 C.ar  103  TYR103     -0.0009
    106  CD2       11.4910  -65.8690   42.2230 C.ar  103  TYR103     -0.0009
    107  CE1       13.0230  -67.8650   41.0730 C.ar  103  TYR103      0.0417
    108  CE2       12.6710  -65.5520   41.5740 C.ar  103  TYR103      0.0417
    109  CZ        13.4350  -66.5500   40.9980 C.ar  103  TYR103      0.1957
    110  OH        14.6150  -66.2030   40.3600 O.3   103  TYR103     -0.2866
    111  N          6.2260  -70.6520   39.5030 N.3   106  LEU106     -0.1245
    112  CA         7.0910  -71.7660   39.1200 C.3   106  LEU106      0.1561
    113  C          7.2020  -72.8200   40.2130 C.2   106  LEU106      0.2260
    114  O          7.3900  -74.0020   39.9040 O.2   106  LEU106     -0.2867
    115  CB         8.4830  -71.3070   38.6990 C.3   106  LEU106      0.0270
    116  CG         8.4680  -70.6980   37.2940 C.3   106  LEU106      0.0019
    117  CD1        8.4970  -69.1630   37.2850 C.3   106  LEU106      0.0001
    118  CD2        9.5430  -71.3420   36.3920 C.3   106  LEU106      0.0001
    119  N         16.9850  -71.4190   37.9110 N.3   120  ASP120     -0.1225
    120  CA        17.1840  -70.2030   37.1340 C.3   120  ASP120      0.1805
    121  C         18.6570  -70.0750   36.7330 C.2   120  ASP120      0.2598
    122  O         19.4980  -70.9140   37.0790 O.2   120  ASP120     -0.2718
    123  CB        16.6700  -68.9720   37.8980 C.3   120  ASP120      0.1424
    124  CG        17.3830  -68.7510   39.2280 C.2   120  ASP120      0.3668
    125  OD1       16.7230  -68.2340   40.1580 O.co2 120  ASP120     -0.2456
    126  OD2       18.5800  -69.1020   39.3610 O.co2 120  ASP120     -0.2456
    127  N         18.9620  -69.0160   35.9800 N.am  121  GLY121     -0.1942
    128  CA        20.2980  -68.7980   35.4620 C.3   121  GLY121      0.2014
    129  C         21.0890  -67.6340   36.0370 C.2   121  GLY121      0.2639
    130  O         21.8940  -67.0460   35.3120 O.2   121  GLY121     -0.2714
    131  N         20.8750  -67.2540   37.2930 N.am  122  MET122     -0.1963
    132  CA        21.6850  -66.1800   37.8630 C.3   122  MET122      0.1736
    133  C         23.1630  -66.5730   37.8890 C.2   122  MET122      0.2616
    134  O         23.5090  -67.7180   38.1860 O.2   122  MET122     -0.2715
    135  CB        21.2000  -65.8270   39.2720 C.3   122  MET122      0.0427
    136  CG        19.7090  -65.5350   39.3690 C.3   122  MET122      0.0599
    137  SD        19.0670  -65.6560   41.0620 S.3   122  MET122     -0.1393
    138  CE        17.8290  -64.3460   41.0820 C.3   122  MET122      0.0692
    139  N         24.0330  -65.6170   37.5460 N.am  123  ILE123     -0.1977
    140  CA        25.4960  -65.8150   37.5450 C.3   123  ILE123      0.1596
    141  C         26.0360  -66.1560   38.9220 C.2   123  ILE123      0.2287
    142  O         25.9010  -65.3840   39.8690 O.2   123  ILE123     -0.2864
    143  CB        26.2390  -64.5670   36.9950 C.3   123  ILE123      0.0276
    144  CG1       26.2230  -64.5700   35.4630 C.3   123  ILE123      0.0022
    145  CG2       27.6820  -64.5000   37.5290 C.3   123  ILE123      0.0022
    146  CD1       26.1690  -63.1900   34.8340 C.3   123  ILE123      0.0001
    147  N         18.9540  -57.6430   26.6840 N.3   154  ALA154     -0.1231
    148  CA        18.6570  -57.7430   28.1110 C.3   154  ALA154      0.1694
    149  C         17.3880  -56.9620   28.4390 C.2   154  ALA154      0.2592
    150  O         17.3650  -55.7280   28.3460 O.2   154  ALA154     -0.2718
    151  CB        19.8340  -57.2180   28.9280 C.3   154  ALA154      0.0304
    152  N         16.3560  -57.6680   28.8830 N.am  155  SER155     -0.1952
    153  CA        15.0990  -57.0300   29.2220 C.3   155  SER155      0.1924
    154  C         15.0880  -56.6370   30.6890 C.2   155  SER155      0.2314
    155  O         15.7960  -57.2170   31.5170 O.2   155  SER155     -0.2863
    156  CB        13.9210  -57.9500   28.9150 C.3   155  SER155      0.2116
    157  OG        13.7930  -58.1340   27.5500 O.3   155  SER155     -0.2180
@<TRIPOS>BOND
     1    79    80    1
     2    80    81    1
     3    80    83    1
     4    82    81    2
     5    83    84    1
     6    34    32    1
     7    15    16   ar
     8    15    13   ar
     9    16    14   ar
    10    84    85    1
    11   147   148    1
    12    32    31    1
    13    31    28    1
    14    31    33    1
    15    28    27    1
    16    28    29    1
    17    23    24    1
    18    24    25    1
    19    27    25   am
    20    13    11   ar
    21   157   156    1
    22    25    26    2
    23    14    12   ar
    24    62    60    1
    25    20    19    2
    26    85    87   ar
    27    85    86   ar
    28    71    70    2
    29    61    60    1
    30   148   149    1
    31   148   151    1
    32    70    69    1
    33   150   149    2
    34    60    57    1
    35   149   152   am
    36    19    18    1
    37    30    29    2
    38    29    35   am
    39    11    12   ar
    40    11    10    1
    41   152   153    1
    42   156   153    1
    43   153   154    1
    44    69    72    1
    45    69    68    1
    46    35    36    1
    47    57    56    1
    48    57    58    1
    49    18    17    1
    50    18    21    1
    51     9     8    2
    52    72    73    1
    53    10     7    1
    54    59    58    2
    55    45    46    2
    56    45    44    1
    57    56    51   am
    58    66    65    2
    59    17     8   am
    60     8     7    1
    61    58    63   am
    62    22    21    1
    63    48    47    1
    64   154   155    2
    65    65    64    1
    66     7     6    1
    67    75    73   ar
    68    75    77   ar
    69    36    37    1
    70    36    39    1
    71    51    52    2
    72    51    50    1
    73    73    74   ar
    74    43    37   am
    75    43    44    1
    76    63    64    1
    77    37    38    2
    78    49    50    1
    79    44    47    1
    80    50    53    1
    81    64    67    1
    82    42    40   ar
    83    41    40   ar
    84    40    39    1
    85     6     3   am
    86    77    78   ar
    87    74    76   ar
    88    53    54    1
    89    53    55    1
    90     3     4    2
    91     3     2    1
    92    78    76   ar
    93     2     1    1
    94     2     5    1
    95   146   144    1
    96   130   129    2
    97   128   127    1
    98   128   129    1
    99   144   143    1
   100   127   121   am
   101   129   131   am
   102    96    98   ar
   103    96    94   ar
   104   118   116    1
   105    98    97   ar
   106   121   122    2
   107   121   120    1
   108    94    93   ar
   109   143   145    1
   110   143   140    1
   111   120   123    1
   112   120   119    1
   113   117   116    1
   114   131   132    1
   115   116   115    1
   116   140   139    1
   117   140   141    1
   118   139   133   am
   119   132   133    1
   120   132   135    1
   121   133   134    2
   122   123   124    1
   123    97    95   ar
   124    93    95   ar
   125    93    92    1
   126   115   112    1
   127   141   142    2
   128   112   111    1
   129   112   113    1
   130    92    89    1
   131   124   126   ar
   132   124   125   ar
   133   135   136    1
   134   136   137    1
   135    89    90    1
   136    89    88    1
   137    91    90    2
   138   114   113    2
   139    90    99   am
   140   110   109    1
   141   109   107   ar
   142   109   108   ar
   143   137   138    1
   144   107   105   ar
   145    99   100    1
   146   108   106   ar
   147   105   104   ar
   148   100   101    1
   149   100   103    1
   150   106   104   ar
   151   104   103    1
   152   102   101    2
