@<TRIPOS>MOLECULE
tmp/5udtC00.pdb
 158 155 0 0 0
SMALL
GASTEIGER

@<TRIPOS>ATOM
      1  N         78.7690  -22.2740  -10.9860 N.3    22  ALA22      -0.1231
      2  CA        79.3290  -23.3600  -11.7850 C.3    22  ALA22       0.1694
      3  C         78.2450  -24.3920  -11.9910 C.2    22  ALA22       0.2592
      4  O         77.9710  -25.1920  -11.0970 O.2    22  ALA22      -0.2718
      5  CB        80.5250  -24.0250  -11.1230 C.3    22  ALA22       0.0304
      6  N         77.6870  -24.4260  -13.1890 N.am   23  PHE23      -0.1962
      7  CA        76.5480  -25.2680  -13.5090 C.3    23  PHE23       0.1771
      8  C         77.0430  -26.4870  -14.2700 C.2    23  PHE23       0.2620
      9  O         77.8920  -26.3640  -15.1500 O.2    23  PHE23      -0.2715
     10  CB        75.5470  -24.4970  -14.3430 C.3    23  PHE23       0.0574
     11  CG        74.3130  -25.2330  -14.5920 C.ar   23  PHE23      -0.0200
     12  CD1       73.3520  -25.3080  -13.6250 C.ar   23  PHE23      -0.0042
     13  CD2       74.1140  -25.8780  -15.7840 C.ar   23  PHE23      -0.0042
     14  CE1       72.1870  -25.9840  -13.8450 C.ar   23  PHE23      -0.0003
     15  CE2       72.9530  -26.5610  -16.0150 C.ar   23  PHE23      -0.0003
     16  CZ        71.9840  -26.6160  -15.0420 C.ar   23  PHE23      -0.0000
     17  N         76.5780  -27.6640  -13.8850 N.am   24  SER24      -0.1950
     18  CA        77.0060  -28.8910  -14.5350 C.3    24  SER24       0.1924
     19  C         75.8530  -29.6890  -15.1190 C.2    24  SER24       0.2314
     20  O         76.0970  -30.6640  -15.8490 O.2    24  SER24      -0.2863
     21  CB        77.7820  -29.7700  -13.5460 C.3    24  SER24       0.2116
     22  OG        76.9300  -30.2160  -12.4970 O.3    24  SER24      -0.2180
     23  N         72.3870  -31.0870   -8.0820 N.3    28  ASP28      -0.1225
     24  CA        72.9760  -30.2150   -7.0760 C.3    28  ASP28       0.1805
     25  C         73.1790  -28.8030   -7.6250 C.2    28  ASP28       0.2598
     26  O         72.6760  -27.8260   -7.0570 O.2    28  ASP28      -0.2718
     27  CB        74.3010  -30.8160   -6.5930 C.3    28  ASP28       0.1424
     28  CG        74.1290  -32.1480   -5.8560 C.2    28  ASP28       0.3668
     29  OD1       72.9930  -32.4680   -5.4500 O.co2  28  ASP28      -0.2456
     30  OD2       75.1390  -32.8660   -5.6620 O.co2  28  ASP28      -0.2456
     31  N         73.8820  -28.6820   -8.7560 N.am   29  SER29      -0.1952
     32  CA        74.1290  -27.3660   -9.3430 C.3    29  SER29       0.1924
     33  C         72.8410  -26.6780   -9.8010 C.2    29  SER29       0.2314
     34  O         72.7910  -25.4430   -9.8610 O.2    29  SER29      -0.2863
     35  CB        75.1280  -27.4790  -10.5000 C.3    29  SER29       0.2116
     36  OG        74.8010  -28.5470  -11.3700 O.3    29  SER29      -0.2180
     37  N         78.1390  -20.7260  -15.5280 N.3    48  VAL48      -0.1231
     38  CA        79.3110  -21.0880  -16.3150 C.3    48  VAL48       0.1692
     39  C         79.3420  -22.5960  -16.4930 C.2    48  VAL48       0.2592
     40  O         79.2220  -23.3370  -15.5120 O.2    48  VAL48      -0.2718
     41  CB        80.6070  -20.6110  -15.6380 C.3    48  VAL48       0.0266
     42  CG1       81.7790  -20.9010  -16.5030 C.3    48  VAL48       0.0020
     43  CG2       80.5380  -19.1400  -15.3770 C.3    48  VAL48       0.0020
     44  N         79.5290  -23.0480  -17.7340 N.am   49  VAL49      -0.1966
     45  CA        79.7120  -24.4620  -18.0420 C.3    49  VAL49       0.1727
     46  C         81.0960  -24.6520  -18.6370 C.2    49  VAL49       0.2616
     47  O         81.4970  -23.9130  -19.5410 O.2    49  VAL49      -0.2715
     48  CB        78.6520  -24.9790  -19.0160 C.3    49  VAL49       0.0290
     49  CG1       78.7940  -26.4660  -19.1370 C.3    49  VAL49       0.0023
     50  CG2       77.2690  -24.5890  -18.5640 C.3    49  VAL49       0.0023
     51  N         81.8470  -25.6050  -18.1080 N.am   50  ALA50      -0.1977
     52  CA        83.2070  -25.8060  -18.5720 C.3    50  ALA50       0.1597
     53  C         83.2280  -26.9760  -19.5280 C.2    50  ALA50       0.2287
     54  O         82.6800  -28.0410  -19.2290 O.2    50  ALA50      -0.2864
     55  CB        84.1830  -26.0490  -17.4300 C.3    50  ALA50       0.0319
     56  N         85.9160  -34.4300  -20.9580 N.3    55  PHE55      -0.1241
     57  CA        84.4800  -34.6530  -20.9180 C.3    55  PHE55       0.1605
     58  C         83.8770  -34.4580  -22.3070 C.2    55  PHE55       0.2264
     59  O         84.2900  -33.5620  -23.0570 O.2    55  PHE55      -0.2867
     60  CB        83.8170  -33.7050  -19.9400 C.3    55  PHE55       0.0534
     61  CG        84.1570  -33.9860  -18.5080 C.ar   55  PHE55      -0.0203
     62  CD1       83.7830  -35.1780  -17.9130 C.ar   55  PHE55      -0.0042
     63  CD2       84.8850  -33.0710  -17.7710 C.ar   55  PHE55      -0.0042
     64  CE1       84.1020  -35.4460  -16.6120 C.ar   55  PHE55      -0.0003
     65  CE2       85.2190  -33.3350  -16.4760 C.ar   55  PHE55      -0.0003
     66  CZ        84.8290  -34.5320  -15.8940 C.ar   55  PHE55      -0.0000
     67  N         93.3160  -35.7670  -10.9460 N.3    95  TRP95      -0.1241
     68  CA        92.0480  -35.0540  -10.8440 C.3    95  TRP95       0.1605
     69  C         92.0910  -33.9420   -9.8020 C.2    95  TRP95       0.2264
     70  O         91.1620  -33.1280   -9.7560 O.2    95  TRP95      -0.2867
     71  CB        90.8860  -36.0280  -10.5800 C.3    95  TRP95       0.0550
     72  CG        89.5110  -35.4080  -10.8450 C.ar   95  TRP95       0.0003
     73  CD1       88.4860  -35.2590   -9.9500 C.ar   95  TRP95       0.0946
     74  CD2       89.0490  -34.8260  -12.0720 C.ar   95  TRP95       0.0152
     75  NE1       87.4140  -34.6380  -10.5430 N.ar   95  TRP95      -0.2442
     76  CE2       87.7350  -34.3600  -11.8460 C.ar   95  TRP95       0.0810
     77  CE3       89.6130  -34.6640  -13.3420 C.ar   95  TRP95       0.0012
     78  CZ2       86.9860  -33.7410  -12.8380 C.ar   95  TRP95       0.0191
     79  CZ3       88.8700  -34.0450  -14.3200 C.ar   95  TRP95       0.0001
     80  CH2       87.5710  -33.5900  -14.0640 C.ar   95  TRP95       0.0015
     81  N         91.0870  -30.2990  -10.9520 N.3    99  LYS99      -0.1245
     82  CA        90.1640  -29.4760  -10.1870 C.3    99  LYS99       0.1561
     83  C         90.7760  -28.1160   -9.8930 C.2    99  LYS99       0.2260
     84  O         90.0790  -27.0930   -9.9250 O.2    99  LYS99      -0.2867
     85  CB        89.7610  -30.1830   -8.9010 C.3    99  LYS99       0.0271
     86  CG        88.5640  -31.0700   -9.0610 C.3    99  LYS99       0.0035
     87  CD        87.2540  -30.2730   -9.1470 C.3    99  LYS99       0.0206
     88  CE        86.0260  -31.2090   -9.1750 C.3    99  LYS99       0.1093
     89  NZ        84.6950  -30.5350   -9.3360 N.3    99  LYS99      -0.1314
     90  N         90.4040  -25.9640  -12.8250 N.3   102  PHE102     -0.1227
     91  CA        89.0000  -25.6530  -13.0340 C.3   102  PHE102      0.1736
     92  C         88.5860  -24.4370  -12.2320 C.2   102  PHE102      0.2595
     93  O         88.0620  -23.4730  -12.7990 O.2   102  PHE102     -0.2718
     94  CB        88.1730  -26.8670  -12.6430 C.3   102  PHE102      0.0547
     95  CG        86.6950  -26.6330  -12.5820 C.ar  102  PHE102     -0.0202
     96  CD1       86.0290  -26.7090  -11.3720 C.ar  102  PHE102     -0.0042
     97  CD2       85.9650  -26.3960  -13.7230 C.ar  102  PHE102     -0.0042
     98  CE1       84.6650  -26.5420  -11.3040 C.ar  102  PHE102     -0.0003
     99  CE2       84.6010  -26.2170  -13.6700 C.ar  102  PHE102     -0.0003
    100  CZ        83.9470  -26.2950  -12.4600 C.ar  102  PHE102     -0.0000
    101  N         88.8480  -24.4450  -10.9130 N.am  103  TYR103     -0.1976
    102  CA        88.4360  -23.3250  -10.0650 C.3   103  TYR103      0.1639
    103  C         89.2040  -22.0530  -10.3740 C.2   103  TYR103      0.2290
    104  O         88.6700  -20.9570  -10.1850 O.2   103  TYR103     -0.2864
    105  CB        88.5900  -23.6800   -8.5760 C.3   103  TYR103      0.0560
    106  CG        87.5340  -24.6300   -8.1090 C.ar  103  TYR103     -0.0198
    107  CD1       86.2380  -24.1850   -7.9430 C.ar  103  TYR103     -0.0009
    108  CD2       87.8050  -25.9670   -7.8790 C.ar  103  TYR103     -0.0009
    109  CE1       85.2310  -25.0290   -7.5400 C.ar  103  TYR103      0.0417
    110  CE2       86.8000  -26.8340   -7.4910 C.ar  103  TYR103      0.0417
    111  CZ        85.5030  -26.3480   -7.3260 C.ar  103  TYR103      0.1957
    112  OH        84.4620  -27.1660   -6.9370 O.3   103  TYR103     -0.2866
    113  N         87.3230  -20.4270  -13.1780 N.3   106  LEU106     -0.1245
    114  CA        86.0540  -19.9520  -12.6660 C.3   106  LEU106      0.1561
    115  C         86.2370  -18.7060  -11.8460 C.2   106  LEU106      0.2260
    116  O         85.3900  -17.8090  -11.8850 O.2   106  LEU106     -0.2867
    117  CB        85.3720  -21.0180  -11.8380 C.3   106  LEU106      0.0270
    118  CG        84.2140  -21.5760  -12.6290 C.3   106  LEU106      0.0019
    119  CD1       83.3210  -22.3150  -11.6940 C.3   106  LEU106      0.0001
    120  CD2       83.4960  -20.4090  -13.2150 C.3   106  LEU106      0.0001
    121  N         79.6540  -23.2620   -6.1530 N.3   120  ASP120     -0.1225
    122  CA        79.4160  -24.5380   -6.7800 C.3   120  ASP120      0.1805
    123  C         78.3340  -25.2800   -6.0170 C.2   120  ASP120      0.2598
    124  O         77.9670  -24.9180   -4.8990 O.2   120  ASP120     -0.2718
    125  CB        80.6860  -25.3700   -6.8690 C.3   120  ASP120      0.1424
    126  CG        81.0180  -26.0780   -5.5860 C.2   120  ASP120      0.3668
    127  OD1       80.2590  -26.9550   -5.1140 O.co2 120  ASP120     -0.2456
    128  OD2       82.1250  -25.8220   -5.1040 O.co2 120  ASP120     -0.2456
    129  N         77.8770  -26.3690   -6.6140 N.am  121  GLY121     -0.1942
    130  CA        76.7640  -27.1020   -6.0730 C.3   121  GLY121      0.2014
    131  C         77.1790  -28.3160   -5.2740 C.2   121  GLY121      0.2638
    132  O         76.5620  -29.3790   -5.3660 O.2   121  GLY121     -0.2714
    133  N         78.2560  -28.2030   -4.5140 N.am  122  MET122     -0.1976
    134  CA        78.5310  -29.3080   -3.6130 C.3   122  MET122      0.1605
    135  C         77.6150  -29.2090   -2.4110 C.2   122  MET122      0.2287
    136  O         77.0210  -28.1620   -2.1390 O.2   122  MET122     -0.2864
    137  CB        79.9940  -29.3530   -3.2190 C.3   122  MET122      0.0413
    138  CG        80.7470  -30.0880   -4.2820 C.3   122  MET122      0.0598
    139  SD        82.4490  -30.2970   -3.8970 S.3   122  MET122     -0.1393
    140  CE        82.8250  -28.5900   -3.5050 C.3   122  MET122      0.0692
    141  N         87.4120  -36.8420   -1.5230 N.3   131  ARG131     -0.1231
    142  CA        86.6950  -36.3790   -2.6980 C.3   131  ARG131      0.1679
    143  C         87.4730  -35.2350   -3.3310 C.2   131  ARG131      0.2434
    144  O         87.7310  -34.2200   -2.6670 O.2   131  ARG131     -0.2733
    145  CB        85.2770  -35.9350   -2.3680 C.3   131  ARG131      0.0321
    146  CG        84.4060  -35.7740   -3.5880 C.3   131  ARG131      0.0489
    147  CD        83.5790  -34.5300   -3.4170 C.3   131  ARG131      0.2205
    148  NE        83.2250  -33.8660   -4.6730 N.pl3 131  ARG131     -0.0865
    149  CZ        82.2280  -34.2320   -5.4710 C.cat 131  ARG131      0.5346
    150  NH1       81.4490  -35.2640   -5.1690 N.pl3 131  ARG131      0.1354
    151  NH2       82.0060  -33.5450   -6.5720 N.pl3 131  ARG131      0.1354
    152  N         87.8310  -35.3500   -4.6070 N.am  132  PRO132     -0.2729
    153  CA        88.8660  -34.4860   -5.2030 C.3   132  PRO132      0.1401
    154  C         88.6740  -32.9830   -5.0510 C.2   132  PRO132      0.2269
    155  O         89.5340  -32.2770   -4.5000 O.2   132  PRO132     -0.2865
    156  CB        88.8020  -34.8760   -6.6850 C.3   132  PRO132      0.0296
    157  CG        87.4090  -35.4410   -6.8740 C.3   132  PRO132      0.0237
    158  CD        87.1790  -36.2020   -5.6140 C.3   132  PRO132      0.0939
@<TRIPOS>BOND
     1    59    58    2
     2    58    57    1
     3    56    57    1
     4    57    60    1
     5    60    61    1
     6    47    46    2
     7    53    54    2
     8    53    52    1
     9    49    48    1
    10    48    50    1
    11    48    45    1
    12    46    51   am
    13    46    45    1
    14    52    51    1
    15    52    55    1
    16    61    62   ar
    17    61    63   ar
    18    45    44    1
    19    62    64   ar
    20    63    65   ar
    21    44    39   am
    22    64    66   ar
    23    42    41    1
    24    39    38    1
    25    39    40    2
    26    65    66   ar
    27    38    41    1
    28    38    37    1
    29    15    13   ar
    30    15    16   ar
    31    20    19    2
    32    13    11   ar
    33    41    43    1
    34     9     8    2
    35    19    18    1
    36    16    14   ar
    37    11    10    1
    38    11    12   ar
    39    18    17    1
    40    18    21    1
    41    10     7    1
    42    79    80   ar
    43    79    77   ar
    44     8    17   am
    45     8     7    1
    46    80    78   ar
    47    14    12   ar
    48    97    99   ar
    49    97    95   ar
    50    99   100   ar
    51    21    22    1
    52     7     6    1
    53    77    74   ar
    54   120   118    1
    55     6     3   am
    56   113   114    1
    57    91    90    1
    58    91    94    1
    59    91    92    1
    60    78    76   ar
    61    93    92    2
    62   114   115    1
    63   114   117    1
    64    94    95    1
    65   118   117    1
    66   118   119    1
    67    95    96   ar
    68   100    98   ar
    69    92   101   am
    70    74    76   ar
    71    74    72   ar
    72     3     2    1
    73     3     4    2
    74   116   115    2
    75    76    75   ar
    76     2     5    1
    77     2     1    1
    78    96    98   ar
    79    36    35    1
    80    81    82    1
    81    67    68    1
    82   101   102    1
    83    72    71    1
    84    72    73   ar
    85    68    71    1
    86    68    69    1
    87    75    73   ar
    88    35    32    1
    89   103   104    2
    90   103   102    1
    91    82    83    1
    92    82    85    1
    93   102   105    1
    94    84    83    2
    95    34    33    2
    96    69    70    2
    97    33    32    1
    98    32    31    1
    99    89    88    1
   100    88    87    1
   101    87    86    1
   102    86    85    1
   103    31    25   am
   104   105   106    1
   105   106   107   ar
   106   106   108   ar
   107    23    24    1
   108   107   109   ar
   109   108   110   ar
   110    25    24    1
   111    25    26    2
   112   109   111   ar
   113   110   111   ar
   114   111   112    1
   115    24    27    1
   116   157   156    1
   117   157   158    1
   118   125   122    1
   119   125   126    1
   120   122   121    1
   121   122   123    1
   122   156   153    1
   123   129   130    1
   124   129   123   am
   125    27    28    1
   126   151   149    1
   127   130   131    1
   128   123   124    2
   129    28    30   ar
   130    28    29   ar
   131   158   152    1
   132   126   127   ar
   133   126   128   ar
   134   149   150    1
   135   149   148    2
   136   132   131    2
   137   131   133   am
   138   153   154    1
   139   153   152    1
   140   154   155    2
   141   148   147    1
   142   152   143   am
   143   133   134    1
   144   138   139    1
   145   138   137    1
   146   139   140    1
   147   134   137    1
   148   134   135    1
   149   146   147    1
   150   146   145    1
   151   143   142    1
   152   143   144    2
   153   142   145    1
   154   142   141    1
   155   135   136    2
