@<TRIPOS>MOLECULE
tmp/5ue1B00.pdb
 105 100 0 0 0
SMALL
GASTEIGER

@<TRIPOS>ATOM
      1  N         53.0590   -9.0430   36.4700 N.3    78  SER78      -0.1202
      2  CA        53.1060  -10.4500   36.1810 C.3    78  SER78       0.2020
      3  C         52.2870  -11.2620   37.2160 C.2    78  SER78       0.2619
      4  O         52.0810  -10.8450   38.3620 O.2    78  SER78      -0.2717
      5  CB        54.5620  -10.9300   36.1940 C.3    78  SER78       0.2103
      6  OG        55.2460  -10.6570   37.4360 O.3    78  SER78      -0.2182
      7  N         51.9160  -12.4840   36.8090 N.am   79  ALA79      -0.1965
      8  CA        51.1730  -13.3930   37.6880 C.3    79  ALA79       0.1728
      9  C         51.4700  -14.8150   37.2310 C.2    79  ALA79       0.2616
     10  O         51.9150  -15.0710   36.0910 O.2    79  ALA79      -0.2715
     11  CB        49.6390  -13.1330   37.6110 C.3    79  ALA79       0.0334
     12  N         51.1910  -15.7500   38.1640 N.am   80  GLY80      -0.1955
     13  CA        51.3350  -17.1900   37.8670 C.3    80  GLY80       0.1869
     14  C         50.0220  -17.7590   37.4750 C.2    80  GLY80       0.2309
     15  O         49.0130  -17.6310   38.1790 O.2    80  GLY80      -0.2863
     16  N         53.9120  -15.5880   48.9680 N.3   153  VAL153     -0.1231
     17  CA        54.6410  -16.7480   48.5080 C.3   153  VAL153      0.1692
     18  C         54.7200  -16.6780   46.9680 C.2   153  VAL153      0.2592
     19  O         53.7210  -16.3660   46.3130 O.2   153  VAL153     -0.2718
     20  CB        53.9860  -18.0890   48.9500 C.3   153  VAL153      0.0266
     21  CG1       52.5210  -18.0910   48.6610 C.3   153  VAL153      0.0020
     22  CG2       54.6130  -19.3020   48.3180 C.3   153  VAL153      0.0020
     23  N         55.8830  -17.0410   46.4340 N.am  154  PHE154     -0.1962
     24  CA        56.0050  -17.3230   45.0240 C.3   154  PHE154      0.1771
     25  C         55.7170  -18.8050   44.8360 C.2   154  PHE154      0.2619
     26  O         56.4730  -19.6320   45.3380 O.2   154  PHE154     -0.2715
     27  CB        57.3860  -16.9630   44.5220 C.3   154  PHE154      0.0574
     28  CG        57.4930  -17.0290   43.0040 C.ar  154  PHE154     -0.0200
     29  CD1       57.7240  -18.2500   42.3470 C.ar  154  PHE154     -0.0042
     30  CD2       57.2510  -15.9010   42.2070 C.ar  154  PHE154     -0.0042
     31  CE1       57.8090  -18.3540   40.9980 C.ar  154  PHE154     -0.0003
     32  CE2       57.3160  -16.0130   40.8490 C.ar  154  PHE154     -0.0003
     33  CZ        57.5890  -17.2350   40.2370 C.ar  154  PHE154     -0.0000
     34  N         54.5570  -19.0940   44.2720 N.am  155  VAL155     -0.1977
     35  CA        54.0520  -20.4730   44.2230 C.3   155  VAL155      0.1596
     36  C         54.8080  -21.2380   43.1510 C.2   155  VAL155      0.2287
     37  O         54.8480  -20.8710   41.9820 O.2   155  VAL155     -0.2864
     38  CB        52.5620  -20.4840   43.9530 C.3   155  VAL155      0.0276
     39  CG1       52.0600  -21.9160   43.8740 C.3   155  VAL155      0.0022
     40  CG2       51.8060  -19.6880   44.9770 C.3   155  VAL155      0.0022
     41  N         47.6590  -16.5120   40.4650 N.3   174  VAL174     -0.1231
     42  CA        48.1480  -16.1160   41.7660 C.3   174  VAL174      0.1692
     43  C         49.2450  -15.0530   41.6240 C.2   174  VAL174      0.2592
     44  O         49.9570  -15.0240   40.6040 O.2   174  VAL174     -0.2718
     45  CB        48.7010  -17.2900   42.5890 C.3   174  VAL174      0.0266
     46  CG1       47.5880  -18.3210   42.8440 C.3   174  VAL174      0.0020
     47  CG2       49.9340  -17.9650   41.9100 C.3   174  VAL174      0.0020
     48  N         49.3920  -14.2480   42.6380 N.am  175  GLU175     -0.1966
     49  CA        50.4460  -13.2710   42.6950 C.3   175  GLU175      0.1733
     50  C         50.6300  -12.8700   44.1660 C.2   175  GLU175      0.2616
     51  O         50.1410  -13.5550   45.0640 O.2   175  GLU175     -0.2715
     52  CB        50.2950  -12.1680   41.6600 C.3   175  GLU175      0.0429
     53  CG        48.9120  -11.6840   41.5190 C.3   175  GLU175      0.1163
     54  CD        48.5280  -11.0540   42.7950 C.2   175  GLU175      0.3649
     55  OE1       49.0060   -9.9320   43.1060 O.co2 175  GLU175     -0.2457
     56  OE2       47.8020  -11.6760   43.6100 O.co2 175  GLU175     -0.2457
     57  N         51.3560  -11.7780   44.4170 N.am  176  MET176     -0.1977
     58  CA        51.8300  -11.4590   45.7820 C.3   176  MET176      0.1605
     59  C         51.4130  -10.1100   46.3050 C.2   176  MET176      0.2287
     60  O         51.7470   -9.7540   47.4250 O.2   176  MET176     -0.2864
     61  CB        53.3230  -11.6320   45.9020 C.3   176  MET176      0.0413
     62  CG        53.8200  -13.0070   45.4930 C.3   176  MET176      0.0598
     63  SD        55.6000  -13.2000   45.4890 S.3   176  MET176     -0.1393
     64  CE        55.9780  -12.8830   47.2210 C.3   176  MET176      0.0692
     65  N         46.8440   -8.0640   34.9410 N.3   196  ARG196     -0.1245
     66  CA        48.1770   -8.6350   34.9260 C.3   196  ARG196      0.1563
     67  C         48.3320   -9.5630   33.7090 C.2   196  ARG196      0.2260
     68  O         47.3800   -9.7410   32.9460 O.2   196  ARG196     -0.2867
     69  CB        48.4870   -9.3760   36.2500 C.3   196  ARG196      0.0307
     70  CG        48.7190   -8.3680   37.4110 C.3   196  ARG196      0.0489
     71  CD        48.8190   -9.1540   38.7260 C.3   196  ARG196      0.2205
     72  NE        49.1060   -8.3200   39.8970 N.pl3 196  ARG196     -0.0865
     73  CZ        50.2410   -8.2580   40.5510 C.cat 196  ARG196      0.5346
     74  NH1       51.3220   -8.8600   40.1610 N.pl3 196  ARG196      0.1354
     75  NH2       50.2720   -7.5330   41.6880 N.pl3 196  ARG196      0.1354
     76  N         53.5040  -14.8860   33.5060 N.3   199  SER199     -0.1202
     77  CA        54.9040  -15.1470   33.3890 C.3   199  SER199      0.2020
     78  C         55.3390  -16.6040   33.5160 C.2   199  SER199      0.2618
     79  O         56.4720  -16.9390   33.1560 O.2   199  SER199     -0.2717
     80  CB        55.6760  -14.2750   34.3840 C.3   199  SER199      0.2103
     81  OG        55.1760  -14.4880   35.6960 O.3   199  SER199     -0.2182
     82  N         54.4590  -17.4220   34.1050 N.am  200  ASP200     -0.1973
     83  CA        54.7660  -18.7610   34.4780 C.3   200  ASP200      0.1709
     84  C         53.4770  -19.4380   34.9130 C.2   200  ASP200      0.2293
     85  O         52.4450  -18.7670   35.1070 O.2   200  ASP200     -0.2864
     86  CB        55.8260  -18.8410   35.5970 C.3   200  ASP200      0.1436
     87  CG        55.3220  -18.1720   36.8440 C.2   200  ASP200      0.3671
     88  OD1       55.5450  -16.9340   36.9710 O.co2 200  ASP200     -0.2456
     89  OD2       54.6880  -18.8320   37.6960 O.co2 200  ASP200     -0.2456
     90  N         53.3810  -21.4260   37.7920 N.3   202  ALA202     -0.1245
     91  CA        53.4270  -21.6720   39.2220 C.3   202  ALA202      0.1562
     92  C         53.8130  -23.0890   39.5990 C.2   202  ALA202      0.2260
     93  O         53.2870  -23.6800   40.5280 O.2   202  ALA202     -0.2867
     94  CB        52.1270  -21.2540   39.9000 C.3   202  ALA202      0.0290
     95  N         60.8470  -17.5590   35.2970 N.3   210  PHE210     -0.1241
     96  CA        60.2140  -16.3010   35.5490 C.3   210  PHE210      0.1605
     97  C         60.9280  -15.1360   34.8790 C.2   210  PHE210      0.2264
     98  O         60.3020  -14.2490   34.2830 O.2   210  PHE210     -0.2867
     99  CB        60.0580  -16.0740   37.0580 C.3   210  PHE210      0.0534
    100  CG        59.5790  -14.7100   37.4180 C.ar  210  PHE210     -0.0203
    101  CD1       58.2500  -14.4020   37.3190 C.ar  210  PHE210     -0.0042
    102  CD2       60.4830  -13.7310   37.8050 C.ar  210  PHE210     -0.0042
    103  CE1       57.8180  -13.1170   37.6060 C.ar  210  PHE210     -0.0003
    104  CE2       60.0510  -12.4710   38.0800 C.ar  210  PHE210     -0.0003
    105  CZ        58.7320  -12.1970   38.0270 C.ar  210  PHE210     -0.0000
@<TRIPOS>BOND
     1    68    67    2
     2    79    78    2
     3    77    76    1
     4    77    78    1
     5    77    80    1
     6    78    82   am
     7    67    66    1
     8    82    83    1
     9    98    97    2
    10    80    81    1
    11    83    84    1
    12    83    86    1
    13    97    96    1
    14    84    85    2
    15    66    65    1
    16    66    69    1
    17    95    96    1
    18    96    99    1
    19    86    87    1
    20    10     9    2
    21     2     5    1
    22     2     1    1
    23     2     3    1
    24     5     6    1
    25    69    70    1
    26     7     3   am
    27     7     8    1
    28    87    88   ar
    29    87    89   ar
    30    99   100    1
    31     3     4    2
    32     9     8    1
    33     9    12   am
    34   101   100   ar
    35   101   103   ar
    36    70    71    1
    37   100   102   ar
    38    14    13    1
    39    14    15    2
    40   103   105   ar
    41    11     8    1
    42    90    91    1
    43   102   104   ar
    44    13    12    1
    45   105   104   ar
    46    71    72    1
    47    91    92    1
    48    91    94    1
    49    92    93    2
    50    72    73    2
    51    74    73    1
    52    33    32   ar
    53    33    31   ar
    54    41    42    1
    55    73    75    1
    56    44    43    2
    57    32    30   ar
    58    31    29   ar
    59    53    52    1
    60    53    54    1
    61    43    42    1
    62    43    48   am
    63    52    49    1
    64    42    45    1
    65    47    45    1
    66    37    36    2
    67    30    28   ar
    68    29    28   ar
    69    45    46    1
    70    48    49    1
    71    49    50    1
    72    54    55   ar
    73    54    56   ar
    74    28    27    1
    75    36    35    1
    76    39    38    1
    77    38    35    1
    78    38    40    1
    79    50    57   am
    80    50    51    2
    81    35    34    1
    82    34    25   am
    83    57    58    1
    84    27    24    1
    85    25    24    1
    86    25    26    2
    87    24    23    1
    88    63    62    1
    89    63    64    1
    90    62    61    1
    91    58    61    1
    92    58    59    1
    93    59    60    2
    94    19    18    2
    95    23    18   am
    96    18    17    1
    97    22    20    1
    98    17    20    1
    99    17    16    1
   100    21    20    1
