@<TRIPOS>MOLECULE
tmp/5ue2A00.pdb
 94 90 0 0 0
SMALL
GASTEIGER

@<TRIPOS>ATOM
      1  N         -3.4900   -4.8120   10.7640 N.3    10  LEU10      -0.1245
      2  CA        -3.1830   -3.4520   11.2190 C.3    10  LEU10       0.1561
      3  C         -2.7860   -2.5780   10.0440 C.2    10  LEU10       0.2260
      4  O         -3.3660   -1.5170    9.8690 O.2    10  LEU10      -0.2867
      5  CB        -2.0750   -3.4000   12.3220 C.3    10  LEU10       0.0270
      6  CG        -2.3970   -2.4060   13.4840 C.3    10  LEU10       0.0019
      7  CD1       -3.4160   -3.0380   14.4810 C.3    10  LEU10       0.0001
      8  CD2       -1.0990   -2.0090   14.2440 C.3    10  LEU10       0.0001
      9  N         -5.7020   -2.1150    7.4820 N.3    13  GLU13      -0.1231
     10  CA        -6.6940   -1.1090    7.8620 C.3    13  GLU13       0.1699
     11  C         -6.3400    0.2160    7.2320 C.2    13  GLU13       0.2592
     12  O         -7.2500    0.9050    6.8040 O.2    13  GLU13      -0.2718
     13  CB        -6.7970   -0.9000    9.4010 C.3    13  GLU13       0.0402
     14  CG        -7.6850   -1.9700   10.0870 C.3    13  GLU13       0.1161
     15  CD        -7.6390   -1.8400   11.5880 C.2    13  GLU13       0.3649
     16  OE1       -7.6390   -0.6820   12.0910 O.co2  13  GLU13      -0.2457
     17  OE2       -7.6050   -2.8940   12.2790 O.co2  13  GLU13      -0.2457
     18  N         -5.0450    0.5930    7.1570 N.am   14  GLN14      -0.1979
     19  CA        -4.6880    1.8700    6.5350 C.3    14  GLN14       0.1601
     20  C         -5.2900    1.9440    5.1510 C.2    14  GLN14       0.2287
     21  O         -5.8610    2.9720    4.8290 O.2    14  GLN14      -0.2864
     22  CB        -3.1550    2.1050    6.4240 C.3    14  GLN14       0.0394
     23  CG        -2.4790    2.2190    7.8190 C.3    14  GLN14       0.0908
     24  CD        -0.9720    2.2840    7.7100 C.2    14  GLN14       0.2608
     25  OE1       -0.4760    2.8080    6.7250 O.2    14  GLN14      -0.2717
     26  NE2       -0.2130    1.7670    8.7050 N.am   14  GLN14      -0.0878
     27  N         -9.0750    2.3580    5.3870 N.3    17  ASP17      -0.1239
     28  CA        -9.3300    3.6880    5.9260 C.3    17  ASP17       0.1674
     29  C         -8.9220    4.7950    4.9830 C.2    17  ASP17       0.2266
     30  O         -9.5830    5.8200    5.0020 O.2    17  ASP17      -0.2867
     31  CB        -8.6320    3.8940    7.2910 C.3    17  ASP17       0.1410
     32  CG        -9.2710    2.9970    8.3210 C.2    17  ASP17       0.3668
     33  OD1       -8.6060    2.0410    8.7980 O.co2  17  ASP17      -0.2456
     34  OD2      -10.4590    3.2390    8.6660 O.co2  17  ASP17      -0.2456
     35  N        -11.7570    5.4330    3.1810 N.3    20  LYS20      -0.1231
     36  CA       -12.7640    5.9630    4.0990 C.3    20  LYS20       0.1693
     37  C        -12.5730    7.4460    4.3510 C.2    20  LYS20       0.2591
     38  O        -13.5460    8.1740    4.2310 O.2    20  LYS20      -0.2718
     39  CB       -12.7710    5.1890    5.4480 C.3    20  LYS20       0.0285
     40  CG       -14.0930    5.2840    6.2540 C.3    20  LYS20       0.0035
     41  CD       -15.2920    4.6160    5.5230 C.3    20  LYS20       0.0206
     42  CE       -16.4700    4.2930    6.4740 C.3    20  LYS20       0.1093
     43  NZ       -16.2350    3.0800    7.2940 N.3    20  LYS20      -0.1314
     44  N        -11.3530    7.9310    4.6890 N.am   21  ARG21      -0.1980
     45  CA       -11.1870    9.3610    4.9740 C.3    21  ARG21       0.1597
     46  C        -11.5080   10.1750    3.7420 C.2    21  ARG21       0.2287
     47  O        -12.1330   11.2150    3.8800 O.2    21  ARG21      -0.2864
     48  CB        -9.7840    9.7610    5.5240 C.3    21  ARG21       0.0334
     49  CG        -8.6780    9.8020    4.4320 C.3    21  ARG21       0.0492
     50  CD        -7.2650   10.1240    4.9860 C.3    21  ARG21       0.2205
     51  NE        -6.6920    9.0210    5.7600 N.pl3  21  ARG21      -0.0865
     52  CZ        -5.4630    9.0340    6.2320 C.cat  21  ARG21       0.5346
     53  NH1       -4.6430   10.0510    6.0840 N.pl3  21  ARG21       0.1354
     54  NH2       -5.0320    7.9790    6.8820 N.pl3  21  ARG21       0.1354
     55  N        -15.9840   10.0830    7.8390 N.3    25  TYR25      -0.1241
     56  CA       -15.5440    9.3700    9.0400 C.3    25  TYR25       0.1605
     57  C        -16.7650    8.6860    9.6350 C.2    25  TYR25       0.2264
     58  O        -17.4270    9.2770   10.4740 O.2    25  TYR25      -0.2867
     59  CB       -14.8630   10.4040    9.9890 C.3    25  TYR25       0.0534
     60  CG       -13.7660    9.7750   10.8650 C.ar   25  TYR25      -0.0201
     61  CD1      -12.5270   10.4150   11.0000 C.ar   25  TYR25      -0.0009
     62  CD2      -13.9800    8.5630   11.5320 C.ar   25  TYR25      -0.0009
     63  CE1      -11.5040    9.8390   11.7570 C.ar   25  TYR25       0.0417
     64  CE2      -12.9490    7.9750   12.2690 C.ar   25  TYR25       0.0417
     65  CZ       -11.7070    8.6040   12.3840 C.ar   25  TYR25       0.1957
     66  OH       -10.6980    7.9830   13.1230 O.3    25  TYR25      -0.2866
     67  N        -17.3340    0.5530    9.1450 N.3    30  LYS30      -0.1245
     68  CA       -16.0700   -0.1750    9.2420 C.3    30  LYS30       0.1561
     69  C        -16.3520   -1.6540    9.3700 C.2    30  LYS30       0.2260
     70  O        -16.8360   -2.0560   10.4160 O.2    30  LYS30      -0.2867
     71  CB       -15.2090    0.2230   10.4760 C.3    30  LYS30       0.0271
     72  CG       -14.5030    1.5960   10.3230 C.3    30  LYS30       0.0035
     73  CD       -13.7570    1.9930   11.6290 C.3    30  LYS30       0.0206
     74  CE       -13.0410    3.3650   11.4990 C.3    30  LYS30       0.1093
     75  NZ       -12.3970    3.7590   12.7730 N.3    30  LYS30      -0.1314
     76  N         -9.4130   17.2340    9.6160 N.3   147  TYR147     -0.1228
     77  CA        -8.5180   16.7620    8.5510 C.3   147  TYR147      0.1721
     78  C         -7.0800   16.9780    8.9910 C.2   147  TYR147      0.2437
     79  O         -6.6960   18.1360    9.0180 O.2   147  TYR147     -0.2733
     80  CB        -8.8260   17.4040    7.1610 C.3   147  TYR147      0.0547
     81  CG        -9.2760   16.3410    6.1440 C.ar  147  TYR147     -0.0200
     82  CD1      -10.6290   16.1810    5.8170 C.ar  147  TYR147     -0.0009
     83  CD2       -8.3240   15.5110    5.5420 C.ar  147  TYR147     -0.0009
     84  CE1      -11.0220   15.2170    4.8840 C.ar  147  TYR147      0.0417
     85  CE2       -8.7190   14.5570    4.6000 C.ar  147  TYR147      0.0417
     86  CZ       -10.0590   14.4350    4.2340 C.ar  147  TYR147      0.1957
     87  OH       -10.4110   13.5310    3.2290 O.3   147  TYR147     -0.2866
     88  N         -6.2420   15.9690    9.3580 N.am  148  PRO148     -0.2729
     89  CA        -4.9230   16.2810    9.8970 C.3   148  PRO148      0.1401
     90  C         -3.9110   16.5550    8.8080 C.2   148  PRO148      0.2269
     91  O         -4.2310   16.3940    7.6410 O.2   148  PRO148     -0.2865
     92  CB        -4.6130   14.9440   10.6130 C.3   148  PRO148      0.0296
     93  CG        -5.2690   13.8960    9.6870 C.3   148  PRO148      0.0237
     94  CD        -6.6120   14.5600    9.2920 C.3   148  PRO148      0.0939
@<TRIPOS>BOND
     1    35    36    1
     2    87    86    1
     3    46    47    2
     4    46    45    1
     5    36    37    1
     6    36    39    1
     7    38    37    2
     8    86    85   ar
     9    86    84   ar
    10    37    44   am
    11    49    50    1
    12    49    48    1
    13    85    83   ar
    14    44    45    1
    15    21    20    2
    16    84    82   ar
    17    45    48    1
    18    29    30    2
    19    29    28    1
    20    50    51    1
    21    20    19    1
    22    27    28    1
    23    39    40    1
    24    41    40    1
    25    41    42    1
    26    83    81   ar
    27    51    52    2
    28    82    81   ar
    29    28    31    1
    30    53    52    1
    31    81    80    1
    32    52    54    1
    33    22    19    1
    34    22    23    1
    35    42    43    1
    36    19    18    1
    37    25    24    2
    38    12    11    2
    39    18    11   am
    40    80    77    1
    41    11    10    1
    42    31    32    1
    43     9    10    1
    44    91    90    2
    45    24    23    1
    46    24    26   am
    47    55    56    1
    48    10    13    1
    49    32    34   ar
    50    32    33   ar
    51    77    78    1
    52    77    76    1
    53    90    89    1
    54    78    79    2
    55    78    88   am
    56    56    57    1
    57    56    59    1
    58    67    68    1
    59    68    69    1
    60    68    71    1
    61    94    88    1
    62    94    93    1
    63    88    89    1
    64    69    70    2
    65    13    14    1
    66    57    58    2
    67    93    92    1
    68     4     3    2
    69    89    92    1
    70    59    60    1
    71     3     2    1
    72    14    15    1
    73    72    71    1
    74    72    73    1
    75     1     2    1
    76    60    61   ar
    77    60    62   ar
    78    61    63   ar
    79     2     5    1
    80    74    73    1
    81    74    75    1
    82    62    64   ar
    83    15    16   ar
    84    15    17   ar
    85    63    65   ar
    86    64    65   ar
    87     5     6    1
    88    65    66    1
    89     6     8    1
    90     6     7    1
