@<TRIPOS>MOLECULE
tmp/5ue3B00.pdb
 126 125 0 0 0
SMALL
GASTEIGER

@<TRIPOS>ATOM
      1  N         48.0050   48.8250   44.8600 N.3   140  LEU140     -0.1245
      2  CA        46.9500   48.4040   45.7990 C.3   140  LEU140      0.1561
      3  C         45.7420   49.3080   45.7890 C.2   140  LEU140      0.2260
      4  O         44.6250   48.8600   46.1270 O.2   140  LEU140     -0.2867
      5  CB        47.4970   48.3690   47.2240 C.3   140  LEU140      0.0270
      6  CG        48.6800   47.4210   47.4370 C.3   140  LEU140      0.0019
      7  CD1       49.1050   47.5540   48.8880 C.3   140  LEU140      0.0001
      8  CD2       48.3570   45.9510   47.0810 C.3   140  LEU140      0.0001
      9  N         45.1870   50.4000   57.0530 N.3   174  LEU174     -0.1231
     10  CA        46.4350   51.1080   56.7610 C.3   174  LEU174      0.1693
     11  C         46.4300   51.7010   55.3650 C.2   174  LEU174      0.2591
     12  O         46.8760   52.8400   55.1820 O.2   174  LEU174     -0.2718
     13  CB        47.6180   50.1580   56.8910 C.3   174  LEU174      0.0284
     14  CG        47.8470   49.7120   58.3420 C.3   174  LEU174      0.0019
     15  CD1       49.0420   48.7690   58.2840 C.3   174  LEU174      0.0001
     16  CD2       48.1660   50.8810   59.2560 C.3   174  LEU174      0.0001
     17  N         45.9750   50.9470   54.3590 N.am  175  VAL175     -0.1980
     18  CA        45.9900   51.4930   53.0070 C.3   175  VAL175      0.1595
     19  C         45.0110   52.6670   52.9030 C.2   175  VAL175      0.2287
     20  O         45.3070   53.6810   52.2500 O.2   175  VAL175     -0.2864
     21  CB        45.6910   50.3810   51.9760 C.3   175  VAL175      0.0276
     22  CG1       45.5250   50.9840   50.5530 C.3   175  VAL175      0.0022
     23  CG2       46.8470   49.3820   51.9810 C.3   175  VAL175      0.0022
     24  N         46.5130   55.8030   54.3740 N.3   178  HIS178     -0.1241
     25  CA        47.4640   56.3690   53.4220 C.3   178  HIS178      0.1621
     26  C         46.7300   57.1050   52.2970 C.2   178  HIS178      0.2264
     27  O         47.0840   58.2400   51.9370 O.2   178  HIS178     -0.2867
     28  CB        48.3420   55.2190   52.8810 C.3   178  HIS178      0.0745
     29  CG        49.2450   55.6350   51.7570 C.ar  178  HIS178      0.0817
     30  ND1       50.5870   55.8840   51.9430 N.ar  178  HIS178     -0.2268
     31  CD2       48.9920   55.8620   50.4450 C.ar  178  HIS178      0.1154
     32  CE1       51.1240   56.2760   50.7920 C.ar  178  HIS178      0.1986
     33  NE2       50.1670   56.2660   49.8690 N.ar  178  HIS178     -0.2212
     34  N         60.7980   55.6510   55.1610 N.3   192  PRO192     -0.2102
     35  CA        60.1540   54.3300   54.9810 C.3   192  PRO192      0.1504
     36  C         59.1400   53.9610   56.0480 C.2   192  PRO192      0.2576
     37  O         58.1690   53.2800   55.7060 O.2   192  PRO192     -0.2718
     38  CB        61.3390   53.3560   54.9850 C.3   192  PRO192      0.0282
     39  CG        62.4660   54.1780   54.4780 C.3   192  PRO192      0.0208
     40  CD        62.2630   55.5660   55.0440 C.3   192  PRO192      0.0893
     41  N         59.2620   54.4520   57.2900 N.am  193  GLU193     -0.1966
     42  CA        58.2880   54.1090   58.3200 C.3   193  GLU193      0.1733
     43  C         57.0580   55.0100   58.3220 C.2   193  GLU193      0.2616
     44  O         56.0690   54.6910   58.9960 O.2   193  GLU193     -0.2715
     45  CB        58.9370   54.1880   59.7060 C.3   193  GLU193      0.0429
     46  CG        60.1400   53.2580   59.8970 C.3   193  GLU193      0.1163
     47  CD        61.4140   53.7220   59.2070 C.2   193  GLU193      0.3649
     48  OE1       62.3330   52.8750   59.0750 O.co2 193  GLU193     -0.2457
     49  OE2       61.5250   54.9110   58.8020 O.co2 193  GLU193     -0.2457
     50  N         57.0680   56.0900   57.5530 N.am  194  ALA194     -0.1963
     51  CA        55.9630   57.0310   57.5940 C.3   194  ALA194      0.1728
     52  C         54.7440   56.4600   56.8780 C.2   194  ALA194      0.2616
     53  O         54.8610   55.6540   55.9360 O.2   194  ALA194     -0.2715
     54  CB        56.3870   58.3550   56.9510 C.3   194  ALA194      0.0334
     55  N         53.5710   56.8940   57.3240 N.am  195  LEU195     -0.1977
     56  CA        52.3360   56.4100   56.7030 C.3   195  LEU195      0.1596
     57  C         52.3220   56.7280   55.2150 C.2   195  LEU195      0.2287
     58  O         51.8560   55.9190   54.4090 O.2   195  LEU195     -0.2864
     59  CB        51.0950   57.0430   57.3510 C.3   195  LEU195      0.0297
     60  CG        49.7110   56.6940   56.7450 C.3   195  LEU195      0.0022
     61  CD1       49.4120   55.1840   56.7380 C.3   195  LEU195      0.0001
     62  CD2       48.6580   57.4500   57.5350 C.3   195  LEU195      0.0001
     63  N         54.7670   56.9120   53.1030 N.3   197  TYR197     -0.1228
     64  CA        55.6880   56.2070   52.2180 C.3   197  TYR197      0.1721
     65  C         54.8840   55.3530   51.2460 C.2   197  TYR197      0.2437
     66  O         53.8540   54.7980   51.6220 O.2   197  TYR197     -0.2733
     67  CB        56.6160   55.3540   53.0850 C.3   197  TYR197      0.0547
     68  CG        57.8430   54.7640   52.3900 C.ar  197  TYR197     -0.0200
     69  CD1       57.9480   53.4220   52.1940 C.ar  197  TYR197     -0.0009
     70  CD2       58.9080   55.5730   51.9930 C.ar  197  TYR197     -0.0009
     71  CE1       59.0690   52.8740   51.5600 C.ar  197  TYR197      0.0417
     72  CE2       60.0350   55.0320   51.3950 C.ar  197  TYR197      0.0417
     73  CZ        60.1100   53.6900   51.1850 C.ar  197  TYR197      0.1957
     74  OH        61.2400   53.1730   50.5890 O.3   197  TYR197     -0.2866
     75  N         55.3280   55.2110   49.9890 N.am  198  PRO198     -0.2718
     76  CA        54.4180   54.6020   49.0060 C.3   198  PRO198      0.1535
     77  C         54.2920   53.0950   49.1050 C.2   198  PRO198      0.2598
     78  O         53.2590   52.5350   48.7020 O.2   198  PRO198     -0.2715
     79  CB        55.0230   55.0020   47.6510 C.3   198  PRO198      0.0310
     80  CG        56.4530   55.4010   47.9420 C.3   198  PRO198      0.0237
     81  CD        56.4200   55.9590   49.3530 C.3   198  PRO198      0.0939
     82  N         55.3260   52.4240   49.5970 N.am  199  MET199     -0.1964
     83  CA        55.3200   50.9720   49.6160 C.3   199  MET199      0.1736
     84  C         54.4900   50.4860   50.7740 C.2   199  MET199      0.2616
     85  O         54.5060   51.0870   51.8500 O.2   199  MET199     -0.2715
     86  CB        56.7190   50.4230   49.7970 C.3   199  MET199      0.0427
     87  CG        57.6450   50.8740   48.7560 C.3   199  MET199      0.0599
     88  SD        59.1890   49.9720   48.9420 S.3   199  MET199     -0.1393
     89  CE        59.5840   50.3250   47.2820 C.3   199  MET199      0.0692
     90  N         53.7670   49.3990   50.5570 N.am  200  TYR200     -0.1960
     91  CA        53.0050   48.8040   51.6580 C.3   200  TYR200      0.1771
     92  C         53.9470   48.1680   52.6800 C.2   200  TYR200      0.2619
     93  O         54.8370   47.3990   52.3300 O.2   200  TYR200     -0.2715
     94  CB        52.0620   47.7440   51.1310 C.3   200  TYR200      0.0574
     95  CG        51.2630   47.1080   52.2270 C.ar  200  TYR200     -0.0198
     96  CD1       50.1760   47.7410   52.7210 C.ar  200  TYR200     -0.0009
     97  CD2       51.5920   45.8580   52.7210 C.ar  200  TYR200     -0.0009
     98  CE1       49.3950   47.1850   53.7450 C.ar  200  TYR200      0.0417
     99  CE2       50.8210   45.2570   53.7420 C.ar  200  TYR200      0.0417
    100  CZ        49.7290   45.9390   54.2450 C.ar  200  TYR200      0.1957
    101  OH        48.9880   45.3240   55.2510 O.3   200  TYR200     -0.2866
    102  N         53.7010   48.4490   53.9640 N.am  201  ARG201     -0.1977
    103  CA        54.4610   47.8030   55.0350 C.3   201  ARG201      0.1597
    104  C         53.5060   47.6420   56.2060 C.2   201  ARG201      0.2287
    105  O         53.1400   48.6410   56.8300 O.2   201  ARG201     -0.2864
    106  CB        55.6600   48.6690   55.4340 C.3   201  ARG201      0.0334
    107  CG        56.7710   47.9620   56.1570 C.3   201  ARG201      0.0492
    108  CD        57.7470   49.0020   56.7170 C.3   201  ARG201      0.2205
    109  NE        57.1080   49.8070   57.7460 N.pl3 201  ARG201     -0.0865
    110  CZ        57.5690   49.9320   58.9880 C.cat 201  ARG201      0.5346
    111  NH1       58.7010   49.3340   59.3620 N.pl3 201  ARG201      0.1354
    112  NH2       56.9030   50.6680   59.8530 N.pl3 201  ARG201      0.1354
    113  N         52.0190   47.1440   59.7970 N.3   203  THR203     -0.1218
    114  CA        52.4360   47.4130   61.1570 C.3   203  THR203      0.1862
    115  C         51.2270   47.3160   62.0750 C.2   203  THR203      0.2287
    116  O         50.0880   47.5600   61.6540 O.2   203  THR203     -0.2866
    117  CB        53.0840   48.8060   61.2930 C.3   203  THR203      0.1770
    118  OG1       53.5810   48.9180   62.6330 O.3   203  THR203     -0.2211
    119  CG2       52.0990   49.9360   61.0030 C.3   203  THR203      0.0375
    120  N         49.8460   54.3680   63.1780 N.3   207  PRO207     -0.2116
    121  CA        50.2620   54.5960   61.7750 C.3   207  PRO207      0.1372
    122  C         50.9650   55.9200   61.5260 C.2   207  PRO207      0.2244
    123  O         51.8200   55.9710   60.6330 O.2   207  PRO207     -0.2868
    124  CB        48.9450   54.5100   60.9790 C.3   207  PRO207      0.0268
    125  CG        48.0500   53.6210   61.8770 C.3   207  PRO207      0.0207
    126  CD        48.4050   54.0710   63.2900 C.3   207  PRO207      0.0892
@<TRIPOS>BOND
     1     1     2    1
     2     3     2    1
     3     3     4    2
     4     2     5    1
     5     8     6    1
     6     5     6    1
     7    89    88    1
     8     6     7    1
     9    79    80    1
    10    79    76    1
    11    80    81    1
    12    78    77    2
    13    87    88    1
    14    87    86    1
    15    76    77    1
    16    76    75    1
    17    77    82   am
    18    81    75    1
    19    82    83    1
    20    83    86    1
    21    83    84    1
    22    33    31   ar
    23    33    32   ar
    24    75    65   am
    25    31    29   ar
    26    22    21    1
    27    90    84   am
    28    90    91    1
    29    74    73    1
    30    84    85    2
    31    32    30   ar
    32    94    91    1
    33    94    95    1
    34    73    72   ar
    35    73    71   ar
    36    65    66    2
    37    65    64    1
    38    72    70   ar
    39    71    69   ar
    40    91    92    1
    41    29    30   ar
    42    29    28    1
    43    27    26    2
    44    21    23    1
    45    21    18    1
    46    70    68   ar
    47    69    68   ar
    48    64    67    1
    49    64    63    1
    50    95    97   ar
    51    95    96   ar
    52    20    19    2
    53    26    25    1
    54    93    92    2
    55    68    67    1
    56    92   102   am
    57    97    99   ar
    58    96    98   ar
    59    28    25    1
    60    19    18    1
    61    18    17    1
    62    25    24    1
    63    99   100   ar
    64    98   100   ar
    65   102   103    1
    66   100   101    1
    67    17    11   am
    68    58    57    2
    69    39    38    1
    70    39    40    1
    71    35    38    1
    72    35    34    1
    73    35    36    1
    74   103   106    1
    75   103   104    1
    76    40    34    1
    77    12    11    2
    78    57    56    1
    79    11    10    1
    80   106   107    1
    81    37    36    2
    82    53    52    2
    83    36    41   am
    84   107   108    1
    85   104   105    2
    86    56    55    1
    87    56    59    1
    88   108   109    1
    89    61    60    1
    90    60    59    1
    91    60    62    1
    92    10    13    1
    93    10     9    1
    94    52    55   am
    95    52    51    1
    96    13    14    1
    97    54    51    1
    98    41    42    1
    99    50    51    1
   100    50    43   am
   101   109   110    2
   102    15    14    1
   103    42    43    1
   104    42    45    1
   105    43    44    2
   106    14    16    1
   107    49    47   ar
   108   110   111    1
   109   110   112    1
   110    48    47   ar
   111    47    46    1
   112    45    46    1
   113   113   114    1
   114   123   122    2
   115   124   121    1
   116   124   125    1
   117   119   117    1
   118   114   117    1
   119   114   115    1
   120   117   118    1
   121   122   121    1
   122   116   115    2
   123   121   120    1
   124   125   126    1
   125   120   126    1
