@<TRIPOS>MOLECULE
tmp/5ue4B00.pdb
 123 122 0 0 0
SMALL
GASTEIGER

@<TRIPOS>ATOM
      1  N         48.3390   53.4630   43.8910 N.3    54  GLY54      -0.1210
      2  CA        48.3040   53.7560   42.4720 C.3    54  GLY54       0.1956
      3  C         48.5340   55.2140   42.1090 C.2    54  GLY54       0.2612
      4  O         48.6860   55.5510   40.9320 O.2    54  GLY54      -0.2717
      5  N         48.5770   56.0890   43.1060 N.am   55  VAL55      -0.1966
      6  CA        48.8260   57.5070   42.8490 C.3    55  VAL55       0.1712
      7  C         50.2880   57.7420   42.4640 C.2    55  VAL55       0.2458
      8  O         51.1890   57.2070   43.0940 O.2    55  VAL55      -0.2730
      9  CB        48.4700   58.3440   44.0930 C.3    55  VAL55       0.0289
     10  CG1       48.9670   59.8070   43.9510 C.3    55  VAL55       0.0023
     11  CG2       46.9640   58.2560   44.3680 C.3    55  VAL55       0.0023
     12  N         50.5400   58.5180   41.3930 N.am   56  PRO56      -0.2727
     13  CA        51.9440   58.7580   41.0280 C.3    56  PRO56       0.1402
     14  C         52.7010   59.5750   42.0850 C.2    56  PRO56       0.2269
     15  O         52.0810   60.3140   42.8540 O.2    56  PRO56      -0.2865
     16  CB        51.8410   59.5360   39.7040 C.3    56  PRO56       0.0296
     17  CG        50.5090   59.1450   39.1290 C.3    56  PRO56       0.0237
     18  CD        49.6020   58.9680   40.3450 C.3    56  PRO56       0.0939
     19  N         53.0450   64.7420   37.6290 N.3    60  ARG60      -0.1245
     20  CA        51.6160   64.8290   37.3510 C.3    60  ARG60       0.1563
     21  C         51.3460   65.8190   36.2120 C.2    60  ARG60       0.2260
     22  O         50.5590   65.5400   35.3030 O.2    60  ARG60      -0.2867
     23  CB        50.8270   65.2200   38.6150 C.3    60  ARG60       0.0307
     24  CG        50.3000   64.0490   39.4590 C.3    60  ARG60       0.0489
     25  CD        51.3610   63.4750   40.4050 C.3    60  ARG60       0.2205
     26  NE        51.9010   64.4860   41.3150 N.pl3  60  ARG60      -0.0865
     27  CZ        51.8240   64.4290   42.6440 C.cat  60  ARG60       0.5346
     28  NH1       51.2330   63.3950   43.2350 N.pl3  60  ARG60       0.1354
     29  NH2       52.3450   65.4040   43.3850 N.pl3  60  ARG60       0.1354
     30  N         43.9960   68.8520   37.4280 N.3    61  PHE61      -0.1241
     31  CA        42.9670   68.9790   38.4580 C.3    61  PHE61       0.1605
     32  C         42.4860   70.4040   38.6470 C.2    61  PHE61       0.2264
     33  O         43.1950   71.3660   38.3460 O.2    61  PHE61      -0.2867
     34  CB        43.4530   68.4150   39.7960 C.3    61  PHE61       0.0534
     35  CG        43.6810   66.9450   39.7660 C.ar   61  PHE61      -0.0203
     36  CD1       42.6280   66.0770   39.5250 C.ar   61  PHE61      -0.0042
     37  CD2       44.9450   66.4220   39.9670 C.ar   61  PHE61      -0.0042
     38  CE1       42.8300   64.7050   39.4880 C.ar   61  PHE61      -0.0003
     39  CE2       45.1580   65.0550   39.9350 C.ar   61  PHE61      -0.0003
     40  CZ        44.1030   64.1920   39.6870 C.ar   61  PHE61      -0.0000
     41  N         43.4010   72.0860   45.4680 N.3    65  LEU65      -0.1245
     42  CA        43.7420   70.7560   45.9880 C.3    65  LEU65       0.1561
     43  C         43.7020   70.6900   47.5230 C.2    65  LEU65       0.2260
     44  O         44.3780   69.8650   48.1400 O.2    65  LEU65      -0.2867
     45  CB        45.0770   70.2630   45.4350 C.3    65  LEU65       0.0270
     46  CG        45.1940   70.3710   43.9090 C.3    65  LEU65       0.0019
     47  CD1       46.3590   69.5280   43.4130 C.3    65  LEU65       0.0001
     48  CD2       43.8920   69.9440   43.2360 C.3    65  LEU65       0.0001
     49  N         41.8710   55.2960   35.0770 N.3   130  TYR130     -0.1241
     50  CA        43.0590   54.8060   35.7650 C.3   130  TYR130      0.1605
     51  C         42.7720   53.4000   36.2600 C.2   130  TYR130      0.2264
     52  O         42.5740   53.1750   37.4520 O.2   130  TYR130     -0.2867
     53  CB        43.4490   55.7230   36.9140 C.3   130  TYR130      0.0534
     54  CG        43.7940   57.1190   36.4720 C.ar  130  TYR130     -0.0201
     55  CD1       45.0610   57.4220   35.9900 C.ar  130  TYR130     -0.0009
     56  CD2       42.8490   58.1320   36.5160 C.ar  130  TYR130     -0.0009
     57  CE1       45.3800   58.7000   35.5700 C.ar  130  TYR130      0.0417
     58  CE2       43.1630   59.4180   36.1000 C.ar  130  TYR130      0.0417
     59  CZ        44.4250   59.6940   35.6290 C.ar  130  TYR130      0.1957
     60  OH        44.7390   60.9760   35.2130 O.3   130  TYR130     -0.2866
     61  N         43.7610   53.8940   44.9350 N.3   141  HIS141     -0.1226
     62  CA        44.2190   55.2370   44.6260 C.3   141  HIS141      0.1752
     63  C         43.1440   56.2320   45.0000 C.2   141  HIS141      0.2596
     64  O         42.0710   55.8510   45.4350 O.2   141  HIS141     -0.2718
     65  CB        44.6560   55.3630   43.1590 C.3   141  HIS141      0.0759
     66  CG        43.5790   55.0630   42.1600 C.ar  141  HIS141      0.0818
     67  ND1       43.8660   54.6050   40.8890 N.ar  141  HIS141     -0.2268
     68  CD2       42.2330   55.1840   42.2190 C.ar  141  HIS141      0.1154
     69  CE1       42.7470   54.4430   40.2150 C.ar  141  HIS141      0.1986
     70  NE2       41.7400   54.7870   41.0000 N.ar  141  HIS141     -0.2212
     71  N         43.4420   57.5160   44.8620 N.am  142  ALA142     -0.1966
     72  CA        42.5120   58.5450   45.2730 C.3   142  ALA142      0.1728
     73  C         42.8680   59.8140   44.5340 C.2   142  ALA142      0.2616
     74  O         43.9160   59.8810   43.8960 O.2   142  ALA142     -0.2715
     75  CB        42.5760   58.7610   46.8080 C.3   142  ALA142      0.0334
     76  N         42.0040   60.8150   44.6420 N.am  143  PHE143     -0.1960
     77  CA        42.1860   62.0750   43.9300 C.3   143  PHE143      0.1756
     78  C         42.1390   63.2220   44.9230 C.2   143  PHE143      0.2461
     79  O         41.4270   63.1380   45.9170 O.2   143  PHE143     -0.2730
     80  CB        41.0880   62.2250   42.8870 C.3   143  PHE143      0.0574
     81  CG        41.0940   61.1220   41.8790 C.ar  143  PHE143     -0.0200
     82  CD1       41.9020   61.2030   40.7590 C.ar  143  PHE143     -0.0042
     83  CD2       40.3570   59.9730   42.0910 C.ar  143  PHE143     -0.0042
     84  CE1       41.9330   60.1730   39.8320 C.ar  143  PHE143     -0.0003
     85  CE2       40.3830   58.9320   41.1740 C.ar  143  PHE143     -0.0003
     86  CZ        41.1700   59.0350   40.0470 C.ar  143  PHE143     -0.0000
     87  N         42.9010   64.2900   44.6600 N.am  144  PRO144     -0.2727
     88  CA        42.9790   65.4280   45.5860 C.3   144  PRO144      0.1402
     89  C         41.6660   66.1970   45.6710 C.2   144  PRO144      0.2269
     90  O         40.8520   66.1060   44.7510 O.2   144  PRO144     -0.2865
     91  CB        44.0640   66.3150   44.9620 C.3   144  PRO144      0.0296
     92  CG        44.0320   65.9600   43.4850 C.3   144  PRO144      0.0237
     93  CD        43.7540   64.4800   43.4710 C.3   144  PRO144      0.0939
     94  N         45.2760   61.3920   50.7430 N.3   181  HIS181     -0.1241
     95  CA        45.2690   61.9940   49.4050 C.3   181  HIS181      0.1621
     96  C         43.9920   62.7850   49.2030 C.2   181  HIS181      0.2264
     97  O         44.0090   63.8890   48.6590 O.2   181  HIS181     -0.2867
     98  CB        45.2970   60.9110   48.3300 C.3   181  HIS181      0.0745
     99  CG        46.6160   60.2350   48.1590 C.ar  181  HIS181      0.0817
    100  ND1       47.8140   60.9180   48.1260 N.ar  181  HIS181     -0.2268
    101  CD2       46.9250   58.9280   48.0060 C.ar  181  HIS181      0.1154
    102  CE1       48.8010   60.0600   47.9470 C.ar  181  HIS181      0.1986
    103  NE2       48.2880   58.8460   47.8620 N.ar  181  HIS181     -0.2212
    104  N         44.3320   66.0720   50.3360 N.3   184  GLY184     -0.1210
    105  CA        45.3310   66.8910   49.6540 C.3   184  GLY184      0.1956
    106  C         46.7830   66.5070   49.9180 C.2   184  GLY184      0.2612
    107  O         47.6970   67.2310   49.5300 O.2   184  GLY184     -0.2717
    108  N         47.0160   65.3740   50.5780 N.am  185  LEU185     -0.1965
    109  CA        48.3900   64.9540   50.8490 C.3   185  LEU185      0.1728
    110  C         49.0350   64.2330   49.6900 C.2   185  LEU185      0.2616
    111  O         48.3780   63.5330   48.9090 O.2   185  LEU185     -0.2715
    112  CB        48.4880   64.0700   52.0930 C.3   185  LEU185      0.0311
    113  CG        48.1700   64.7580   53.4160 C.3   185  LEU185      0.0022
    114  CD1       48.2620   63.7410   54.5510 C.3   185  LEU185      0.0001
    115  CD2       49.1140   65.9150   53.6470 C.3   185  LEU185      0.0001
    116  N         50.3430   64.4200   49.6000 N.am  186  ASP186     -0.1971
    117  CA        51.1740   63.7610   48.6190 C.3   186  ASP186      0.1709
    118  C         51.8820   62.6050   49.2980 C.2   186  ASP186      0.2293
    119  O         51.8290   62.4720   50.5310 O.2   186  ASP186     -0.2864
    120  CB        52.2200   64.7540   48.1190 C.3   186  ASP186      0.1436
    121  CG        52.4840   64.6090   46.6590 C.2   186  ASP186      0.3671
    122  OD1       52.3210   63.4790   46.1520 O.co2 186  ASP186     -0.2456
    123  OD2       52.8470   65.6200   46.0160 O.co2 186  ASP186     -0.2456
@<TRIPOS>BOND
     1    49    50    1
     2    60    59    1
     3    22    21    2
     4    57    59   ar
     5    57    55   ar
     6    59    58   ar
     7    50    51    1
     8    50    53    1
     9    55    54   ar
    10    58    56   ar
    11    21    20    1
    12    51    52    2
    13    54    56   ar
    14    54    53    1
    15    20    19    1
    16    20    23    1
    17    30    31    1
    18    33    32    2
    19    31    32    1
    20    31    34    1
    21    23    24    1
    22    17    16    1
    23    17    18    1
    24    24    25    1
    25    38    36   ar
    26    38    40   ar
    27    36    35   ar
    28    40    39   ar
    29    16    13    1
    30    35    34    1
    31    35    37   ar
    32    84    86   ar
    33    84    82   ar
    34    39    37   ar
    35    86    85   ar
    36    69    67   ar
    37    69    70   ar
    38    18    12    1
    39    25    26    1
    40    82    81   ar
    41    67    66   ar
    42     4     3    2
    43    70    68   ar
    44    13    12    1
    45    13    14    1
    46    85    83   ar
    47    26    27    2
    48    12     7   am
    49    81    83   ar
    50    81    80    1
    51    14    15    2
    52     3     2    1
    53     3     5   am
    54    66    68   ar
    55    66    65    1
    56     7     6    1
    57     7     8    2
    58     2     1    1
    59    27    28    1
    60    27    29    1
    61     6     5    1
    62     6     9    1
    63    80    77    1
    64    65    62    1
    65    48    46    1
    66    47    46    1
    67    93    92    1
    68    93    87    1
    69    92    91    1
    70    74    73    2
    71    46    45    1
    72    77    76    1
    73    77    78    1
    74    10     9    1
    75     9    11    1
    76    73    76   am
    77    73    72    1
    78    62    61    1
    79    62    63    1
    80    87    78   am
    81    87    88    1
    82    90    89    2
    83    71    63   am
    84    71    72    1
    85    78    79    2
    86    91    88    1
    87    63    64    2
    88    72    75    1
    89    45    42    1
    90    41    42    1
    91    88    89    1
    92    42    43    1
    93   123   121   ar
    94   122   121   ar
    95   121   120    1
    96    43    44    2
    97   103   102   ar
    98   103   101   ar
    99   102   100   ar
   100   101    99   ar
   101   120   117    1
   102   100    99   ar
   103    99    98    1
   104    98    95    1
   105   117   118    1
   106   117   116    1
   107    97    96    2
   108   111   110    2
   109    96    95    1
   110   118   119    2
   111    95    94    1
   112   107   106    2
   113   116   110   am
   114   105   106    1
   115   105   104    1
   116   110   109    1
   117   106   108   am
   118   108   109    1
   119   109   112    1
   120   112   113    1
   121   113   115    1
   122   113   114    1
