@<TRIPOS>MOLECULE
tmp/5ue5A00.pdb
 111 108 0 0 0
SMALL
GASTEIGER

@<TRIPOS>ATOM
      1  N         18.4050   -7.7600   40.9170 N.3    91  TYR91      -0.1241
      2  CA        18.8870   -7.8560   39.5390 C.3    91  TYR91       0.1605
      3  C         20.2730   -7.2640   39.4020 C.2    91  TYR91       0.2264
      4  O         20.4950   -6.2420   40.0300 O.2    91  TYR91      -0.2867
      5  CB        17.9150   -7.0840   38.6140 C.3    91  TYR91       0.0534
      6  CG        17.9170   -5.5980   39.0070 C.ar   91  TYR91      -0.0201
      7  CD1       17.1580   -5.1500   40.0940 C.ar   91  TYR91      -0.0009
      8  CD2       18.6840   -4.6760   38.2860 C.ar   91  TYR91      -0.0009
      9  CE1       17.1110   -3.7900   40.4140 C.ar   91  TYR91       0.0417
     10  CE2       18.6270   -3.3140   38.5930 C.ar   91  TYR91       0.0417
     11  CZ        17.8080   -2.8630   39.6320 C.ar   91  TYR91       0.1957
     12  OH        17.6920   -1.4950   39.8760 O.3    91  TYR91      -0.2866
     13  N         17.3130   -0.8240   34.9880 N.3   110  SER110     -0.1202
     14  CA        16.5320   -0.4980   36.1650 C.3   110  SER110      0.2020
     15  C         15.3490    0.3610   35.8030 C.2   110  SER110      0.2618
     16  O         14.2690    0.1150   36.3030 O.2   110  SER110     -0.2717
     17  CB        17.3600    0.3040   37.1880 C.3   110  SER110      0.2103
     18  OG        16.4750    0.5400   38.2870 O.3   110  SER110     -0.2182
     19  N         15.5330    1.3890   34.9520 N.am  111  LYS111     -0.1979
     20  CA        14.4380    2.3190   34.6490 C.3   111  LYS111      0.1596
     21  C         13.2510    1.6130   34.0170 C.2   111  LYS111      0.2287
     22  O         12.1500    2.1320   34.1220 O.2   111  LYS111     -0.2864
     23  CB        15.0530    3.4540   33.7870 C.3   111  LYS111      0.0298
     24  CG        14.1370    4.6510   33.4140 C.3   111  LYS111      0.0038
     25  CD        15.0460    5.8390   32.9730 C.3   111  LYS111      0.0206
     26  CE        14.2860    6.9490   32.2010 C.3   111  LYS111      0.1093
     27  NZ        15.1910    8.0910   31.9190 N.3   111  LYS111     -0.1314
     28  N         12.7610   -2.2620   34.4020 N.3   113  LEU113     -0.1231
     29  CA        12.4370   -3.1770   35.5060 C.3   113  LEU113      0.1693
     30  C         11.6690   -2.4620   36.6030 C.2   113  LEU113      0.2592
     31  O         10.7040   -2.9960   37.1250 O.2   113  LEU113     -0.2718
     32  CB        13.7850   -3.6490   36.1190 C.3   113  LEU113      0.0284
     33  CG        13.6800   -4.6090   37.3430 C.3   113  LEU113      0.0019
     34  CD1       13.9870   -6.0780   36.9360 C.3   113  LEU113      0.0001
     35  CD2       14.6810   -4.1500   38.4340 C.3   113  LEU113      0.0001
     36  N         12.1110   -1.2390   36.9670 N.am  114  ASN114     -0.1974
     37  CA        11.4870   -0.4890   38.0520 C.3   114  ASN114      0.1688
     38  C         10.0910   -0.1110   37.6310 C.2   114  ASN114      0.2292
     39  O          9.1870   -0.2810   38.4340 O.2   114  ASN114     -0.2864
     40  CB        12.3140    0.7790   38.3990 C.3   114  ASN114      0.1181
     41  CG        11.6850    1.5900   39.5070 C.2   114  ASN114      0.2629
     42  OD1       11.7210    1.1490   40.6440 O.2   114  ASN114     -0.2716
     43  ND2       11.1080    2.7780   39.2150 N.am  114  ASN114     -0.0877
     44  N          6.7700   -0.7130   39.7000 N.3   118  LYS118     -0.1245
     45  CA         5.9140    0.3870   40.1420 C.3   118  LYS118      0.1561
     46  C          4.4530    0.1750   39.8110 C.2   118  LYS118      0.2260
     47  O          3.6770    1.0010   40.2630 O.2   118  LYS118     -0.2867
     48  CB         6.3810    1.7400   39.5270 C.3   118  LYS118      0.0271
     49  CG         7.7900    2.1750   40.0320 C.3   118  LYS118      0.0035
     50  CD         7.7450    3.2700   41.1400 C.3   118  LYS118      0.0206
     51  CE         6.9710    2.8460   42.4190 C.3   118  LYS118      0.1093
     52  NZ         7.0690    3.8820   43.4720 N.3   118  LYS118     -0.1314
     53  N          7.9270   -5.8110   45.4400 N.3   123  HIS123     -0.1226
     54  CA         8.9330   -4.8740   45.9340 C.3   123  HIS123      0.1752
     55  C         10.2290   -5.1540   45.2010 C.2   123  HIS123      0.2596
     56  O         10.3960   -6.2780   44.7560 O.2   123  HIS123     -0.2718
     57  CB         9.0530   -5.1410   47.4570 C.3   123  HIS123      0.0759
     58  CG         9.8590   -4.1030   48.1990 C.ar  123  HIS123      0.0818
     59  ND1        9.3310   -3.2020   48.9950 N.ar  123  HIS123     -0.2268
     60  CD2       11.1970   -3.9560   48.1680 C.ar  123  HIS123      0.1154
     61  CE1       10.2630   -2.4620   49.5020 C.ar  123  HIS123      0.1986
     62  NE2       11.3750   -2.8420   49.0620 N.ar  123  HIS123     -0.2212
     63  N         11.1380   -4.1590   45.0570 N.am  124  PHE124     -0.1962
     64  CA        12.4110   -4.3850   44.3700 C.3   124  PHE124      0.1771
     65  C         13.5410   -3.8750   45.2360 C.2   124  PHE124      0.2619
     66  O         13.2850   -3.0880   46.1320 O.2   124  PHE124     -0.2715
     67  CB        12.3930   -3.7410   42.9600 C.3   124  PHE124      0.0574
     68  CG        11.6110   -4.6400   41.9870 C.ar  124  PHE124     -0.0200
     69  CD1       10.2130   -4.6860   42.0160 C.ar  124  PHE124     -0.0042
     70  CD2       12.2940   -5.4370   41.0610 C.ar  124  PHE124     -0.0042
     71  CE1        9.5150   -5.5280   41.1440 C.ar  124  PHE124     -0.0003
     72  CE2       11.5930   -6.1790   40.1060 C.ar  124  PHE124     -0.0003
     73  CZ        10.1980   -6.2340   40.1510 C.ar  124  PHE124     -0.0000
     74  N         14.7900   -4.3400   44.9970 N.am  125  ARG125     -0.1963
     75  CA        15.8760   -4.1240   45.9560 C.3   125  ARG125      0.1729
     76  C         17.1480   -3.8620   45.1850 C.2   125  ARG125      0.2616
     77  O         17.2880   -4.4450   44.1200 O.2   125  ARG125     -0.2715
     78  CB        15.9610   -5.4470   46.7620 C.3   125  ARG125      0.0348
     79  CG        17.1010   -5.5730   47.8110 C.3   125  ARG125      0.0492
     80  CD        16.7590   -5.0010   49.2180 C.3   125  ARG125      0.2205
     81  NE        16.7760   -3.5340   49.2540 N.pl3 125  ARG125     -0.0865
     82  CZ        15.7130   -2.7530   49.2190 C.cat 125  ARG125      0.5346
     83  NH1       14.4790   -3.1850   49.0770 N.pl3 125  ARG125      0.1354
     84  NH2       15.8980   -1.4550   49.3290 N.pl3 125  ARG125      0.1354
     85  N         18.0690   -2.9980   45.6810 N.am  126  LYS126     -0.1977
     86  CA        19.2660   -2.6680   44.9040 C.3   126  LYS126      0.1596
     87  C         20.3310   -3.6960   45.1880 C.2   126  LYS126      0.2287
     88  O         20.2380   -4.3670   46.2030 O.2   126  LYS126     -0.2864
     89  CB        19.7600   -1.2170   45.1930 C.3   126  LYS126      0.0298
     90  CG        20.6200   -0.5770   44.0530 C.3   126  LYS126      0.0038
     91  CD        22.1690   -0.7030   44.1820 C.3   126  LYS126      0.0206
     92  CE        22.8490    0.6390   44.5920 C.3   126  LYS126      0.1093
     93  NZ        22.5180    1.0320   45.9810 N.3   126  LYS126     -0.1314
     94  N          4.2340    7.1550   37.7750 N.3   246  LYS246     -0.1231
     95  CA         5.6420    7.4960   37.5610 C.3   246  LYS246      0.1693
     96  C          5.7420    8.9450   37.1390 C.2   246  LYS246      0.2591
     97  O          4.7230    9.6020   36.9990 O.2   246  LYS246     -0.2718
     98  CB         6.3150    6.5720   36.5010 C.3   246  LYS246      0.0285
     99  CG         7.6720    5.9560   36.9710 C.3   246  LYS246      0.0035
    100  CD         8.6130    5.6220   35.7770 C.3   246  LYS246      0.0206
    101  CE         9.5210    6.7980   35.3100 C.3   246  LYS246      0.1093
    102  NZ        10.7270    6.9450   36.1600 N.3   246  LYS246     -0.1314
    103  N          6.9820    9.4410   36.9310 N.am  247  LYS247     -0.1980
    104  CA         7.1900   10.8210   36.5040 C.3   247  LYS247      0.1596
    105  C          7.1080   10.8860   35.0010 C.2   247  LYS247      0.2287
    106  O          7.0120    9.8690   34.3340 O.2   247  LYS247     -0.2864
    107  CB         8.5860   11.3100   36.9810 C.3   247  LYS247      0.0298
    108  CG         8.7240   11.2100   38.5280 C.3   247  LYS247      0.0038
    109  CD        10.1660   11.5490   39.0160 C.3   247  LYS247      0.0206
    110  CE        10.6830   10.5640   40.1060 C.3   247  LYS247      0.1093
    111  NZ        11.0490    9.2370   39.5530 N.3   247  LYS247     -0.1314
@<TRIPOS>BOND
     1    27    26    1
     2    26    25    1
     3    25    24    1
     4    24    23    1
     5    23    20    1
     6    21    22    2
     7    21    20    1
     8   106   105    2
     9    28    29    1
    10    20    19    1
    11    19    15   am
    12    13    14    1
    13   105   104    1
    14   101   100    1
    15   101   102    1
    16    29    32    1
    17    29    30    1
    18   100    99    1
    19    15    14    1
    20    15    16    2
    21    32    33    1
    22    14    17    1
    23    98    99    1
    24    98    95    1
    25   104   103    1
    26   104   107    1
    27    30    36   am
    28    30    31    2
    29   103    96   am
    30    34    33    1
    31    36    37    1
    32   107   108    1
    33    97    96    2
    34    96    95    1
    35    17    18    1
    36    33    35    1
    37    95    94    1
    38    38    37    1
    39    38    39    2
    40    37    40    1
    41     8    10   ar
    42     8     6   ar
    43    40    41    1
    44   108   109    1
    45    10    11   ar
    46     5     6    1
    47     5     2    1
    48     6     7   ar
    49   109   110    1
    50    43    41   am
    51     3     2    1
    52     3     4    2
    53    41    42    2
    54    48    49    1
    55    48    45    1
    56     2     1    1
    57   111   110    1
    58    11    12    1
    59    11     9   ar
    60    44    45    1
    61    46    45    1
    62    46    47    2
    63    49    50    1
    64     7     9   ar
    65    72    73   ar
    66    72    70   ar
    67    73    71   ar
    68    70    68   ar
    69    50    51    1
    70    71    69   ar
    71    68    69   ar
    72    68    67    1
    73    51    52    1
    74    67    64    1
    75    90    91    1
    76    90    89    1
    77    77    76    2
    78    91    92    1
    79    64    63    1
    80    64    65    1
    81    92    93    1
    82    56    55    2
    83    86    87    1
    84    86    89    1
    85    86    85    1
    86    74    65   am
    87    74    75    1
    88    63    55   am
    89    76    85   am
    90    76    75    1
    91    87    88    2
    92    55    54    1
    93    65    66    2
    94    53    54    1
    95    54    57    1
    96    75    78    1
    97    78    79    1
    98    57    58    1
    99    79    80    1
   100    60    58   ar
   101    60    62   ar
   102    58    59   ar
   103    59    61   ar
   104    62    61   ar
   105    83    82    1
   106    80    81    1
   107    82    81    2
   108    82    84    1
