@<TRIPOS>MOLECULE
tmp/5ue9A01.pdb
 84 77 0 0 0
SMALL
GASTEIGER

@<TRIPOS>ATOM
      1  N        -11.1850  -15.3860  -17.9150 N.3    44  LYS44      -0.1245
      2  CA       -10.5740  -15.8670  -16.6780 C.3    44  LYS44       0.1561
      3  C         -9.0530  -16.0240  -16.8100 C.2    44  LYS44       0.2260
      4  O         -8.5220  -16.1560  -17.9220 O.2    44  LYS44      -0.2867
      5  CB       -11.2570  -17.1930  -16.2900 C.3    44  LYS44       0.0271
      6  CG       -10.8860  -17.8360  -14.9560 C.3    44  LYS44       0.0035
      7  CD       -10.8230  -16.7970  -13.8290 C.3    44  LYS44       0.0206
      8  CE       -10.7780  -17.4430  -12.4450 C.3    44  LYS44       0.1093
      9  NZ       -10.2090  -16.4960  -11.4310 N.3    44  LYS44      -0.1314
     10  N        -13.6440  -12.3010   -2.8150 N.3    68  ASN68      -0.1225
     11  CA       -13.4270  -13.5700   -3.5110 C.3    68  ASN68       0.1785
     12  C        -12.0280  -14.0980   -3.2160 C.2    68  ASN68       0.2597
     13  O        -11.0660  -13.3300   -3.1210 O.2    68  ASN68      -0.2718
     14  CB       -13.6250  -13.4550   -5.0440 C.3    68  ASN68       0.1169
     15  CG       -12.4060  -12.8900   -5.7590 C.2    68  ASN68       0.2627
     16  OD1      -11.4920  -13.6220   -6.1600 O.2    68  ASN68      -0.2716
     17  ND2      -12.3760  -11.5700   -5.9010 N.am   68  ASN68      -0.0877
     18  N        -11.9180  -15.4150   -3.0820 N.am   69  ALA69      -0.1966
     19  CA       -10.6200  -16.0720   -2.9370 C.3    69  ALA69       0.1728
     20  C        -10.5870  -17.3160   -3.8260 C.2    69  ALA69       0.2616
     21  O        -10.2650  -18.4230   -3.3840 O.2    69  ALA69      -0.2715
     22  CB       -10.3360  -16.4030   -1.4740 C.3    69  ALA69       0.0334
     23  N        -10.8980  -17.1150   -5.1160 N.am   70  ILE70      -0.1963
     24  CA       -11.0650  -18.2230   -6.0630 C.3    70  ILE70       0.1727
     25  C         -9.7930  -19.0630   -6.1460 C.2    70  ILE70       0.2617
     26  O         -9.8360  -20.2940   -6.0990 O.2    70  ILE70      -0.2715
     27  CB       -11.4510  -17.6760   -7.4500 C.3    70  ILE70       0.0290
     28  CG1      -12.6550  -16.6980   -7.3840 C.3    70  ILE70       0.0022
     29  CG2      -11.7160  -18.8140   -8.4110 C.3    70  ILE70       0.0023
     30  CD1      -13.9690  -17.2440   -6.8460 C.3    70  ILE70       0.0001
     31  N         -8.6400  -18.4100   -6.2540 N.am   71  GLY71      -0.1940
     32  CA        -7.3820  -19.1150   -6.3560 C.3    71  GLY71       0.2014
     33  C         -6.9560  -19.4440   -7.7670 C.2    71  GLY71       0.2638
     34  O         -6.1390  -20.3550   -7.9590 O.2    71  GLY71      -0.2714
     35  N         -7.4620  -18.7090   -8.7600 N.am   72  LEU72      -0.1977
     36  CA        -7.0590  -18.8560  -10.1580 C.3    72  LEU72       0.1596
     37  C         -7.4810  -20.2160  -10.7320 C.2    72  LEU72       0.2287
     38  O         -6.7510  -20.8310  -11.5220 O.2    72  LEU72      -0.2864
     39  CB        -5.5480  -18.6350  -10.3230 C.3    72  LEU72       0.0297
     40  CG        -4.9180  -17.2820   -9.9520 C.3    72  LEU72       0.0022
     41  CD1       -3.4160  -17.3610  -10.1100 C.3    72  LEU72       0.0001
     42  CD2       -5.4760  -16.1320  -10.7700 C.3    72  LEU72       0.0001
     43  N         -1.5970  -10.4190  -15.3640 N.3   128  ASN128     -0.1240
     44  CA        -2.0930  -10.3390  -14.0050 C.3   128  ASN128      0.1653
     45  C         -0.8850  -10.5690  -13.1090 C.2   128  ASN128      0.2266
     46  O         -0.5090  -11.7060  -12.8210 O.2   128  ASN128     -0.2867
     47  CB        -3.2070  -11.3560  -13.8040 C.3   128  ASN128      0.1155
     48  CG        -3.8050  -11.3180  -12.4140 C.2   128  ASN128      0.2627
     49  OD1       -3.4640  -10.4710  -11.5880 O.2   128  ASN128     -0.2716
     50  ND2       -4.7070  -12.2640  -12.1460 N.am  128  ASN128     -0.0877
     51  N         -0.7530   -9.6040  -10.1150 N.3   130  SER130     -0.1217
     52  CA        -1.3150   -9.5810   -8.7610 C.3   130  SER130      0.1889
     53  C         -1.4920  -10.9900   -8.1810 C.2   130  SER130      0.2288
     54  O         -2.6080  -11.3540   -7.7890 O.2   130  SER130     -0.2866
     55  CB        -2.6540   -8.8460   -8.7820 C.3   130  SER130      0.2089
     56  OG        -2.5720   -7.6400   -9.5510 O.3   130  SER130     -0.2183
     57  N         -1.8610   -5.4540  -15.4650 N.3   166  LYS166     -0.1245
     58  CA        -2.9910   -5.1820  -14.5700 C.3   166  LYS166      0.1561
     59  C         -2.4600   -4.8980  -13.1730 C.2   166  LYS166      0.2260
     60  O         -1.9410   -5.8000  -12.5050 O.2   166  LYS166     -0.2867
     61  CB        -3.9780   -6.3450  -14.5280 C.3   166  LYS166      0.0271
     62  CG        -5.1460   -6.1010  -13.5910 C.3   166  LYS166      0.0035
     63  CD        -6.2920   -7.0330  -13.9210 C.3   166  LYS166      0.0206
     64  CE        -7.5560   -6.6200  -13.2110 C.3   166  LYS166      0.1093
     65  NZ        -8.6160   -7.6290  -13.3480 N.3   166  LYS166     -0.1314
     66  N         -6.9870   -4.3580  -10.0010 N.3   193  ASN193     -0.1225
     67  CA        -7.3780   -5.6010   -9.3660 C.3   193  ASN193      0.1785
     68  C         -7.9530   -5.3030   -7.9680 C.2   193  ASN193      0.2597
     69  O         -8.2060   -4.1580   -7.5940 O.2   193  ASN193     -0.2718
     70  CB        -6.1830   -6.5360   -9.3430 C.3   193  ASN193      0.1169
     71  CG        -6.5800   -7.9720   -9.2320 C.2   193  ASN193      0.2627
     72  OD1       -7.5620   -8.3110   -8.5460 O.2   193  ASN193     -0.2716
     73  ND2       -5.8340   -8.8370   -9.9070 N.am  193  ASN193     -0.0877
     74  N         -8.1610   -6.3320   -7.1640 N.am  194  THR194     -0.1953
     75  CA        -8.9130   -6.1450   -5.9350 C.3   194  THR194      0.1897
     76  C         -8.0250   -5.6820   -4.7730 C.2   194  THR194      0.2313
     77  O         -6.8080   -5.8840   -4.7530 O.2   194  THR194     -0.2863
     78  CB        -9.6270   -7.4490   -5.5590 C.3   194  THR194      0.1794
     79  OG1       -8.6970   -8.5250   -5.6470 O.3   194  THR194     -0.2208
     80  CG2      -10.8100   -7.7340   -6.4900 C.3   194  THR194      0.0378
     81  N        -10.0820  -11.0170   -2.1040 N.3   215  GLY215     -0.1225
     82  CA       -10.0760   -9.7970   -2.8840 C.3   215  GLY215      0.1811
     83  C        -11.3910   -9.0780   -2.7620 C.2   215  GLY215      0.2280
     84  O        -12.4570   -9.6850   -2.9080 O.2   215  GLY215     -0.2866
@<TRIPOS>BOND
     1     4     3    2
     2     1     2    1
     3     3     2    1
     4     2     5    1
     5     5     6    1
     6    57    58    1
     7    43    44    1
     8     6     7    1
     9    58    61    1
    10    58    59    1
    11    61    62    1
    12    44    47    1
    13    44    45    1
    14    63    62    1
    15    63    64    1
    16     7     8    1
    17    47    48    1
    18    65    64    1
    19    59    60    2
    20    45    46    2
    21     8     9    1
    22    48    50   am
    23    48    49    2
    24    38    37    2
    25    42    40    1
    26    37    36    1
    27    39    36    1
    28    39    40    1
    29    36    35    1
    30    51    52    1
    31    41    40    1
    32    66    67    1
    33    73    71   am
    34    56    55    1
    35    67    70    1
    36    67    68    1
    37    70    71    1
    38    71    72    2
    39    55    52    1
    40    52    53    1
    41    35    33   am
    42    29    27    1
    43    53    54    2
    44    68    69    2
    45    68    74   am
    46    34    33    2
    47    33    32    1
    48    27    28    1
    49    27    24    1
    50    28    30    1
    51    74    75    1
    52    80    78    1
    53    32    31    1
    54    31    25   am
    55    16    15    2
    56    25    26    2
    57    25    24    1
    58    24    23    1
    59    75    78    1
    60    75    76    1
    61    17    15   am
    62    15    14    1
    63    79    78    1
    64    23    20   am
    65    14    11    1
    66    76    77    2
    67    20    21    2
    68    20    19    1
    69    11    12    1
    70    11    10    1
    71    12    13    2
    72    12    18   am
    73    18    19    1
    74    19    22    1
    75    84    83    2
    76    82    83    1
    77    82    81    1
