@<TRIPOS>MOLECULE
tmp/5uehA00.pdb
 180 175 0 0 0
SMALL
GASTEIGER

@<TRIPOS>ATOM
      1  N        -24.7970   24.8420  -13.3980 N.3    27  MET27      -0.1245
      2  CA       -23.4290   25.2930  -13.6090 C.3    27  MET27       0.1570
      3  C        -22.6560   24.6590  -12.4810 C.2    27  MET27       0.2261
      4  O        -23.1520   24.5770  -11.3580 O.2    27  MET27      -0.2867
      5  CB       -23.3480   26.8230  -13.5830 C.3    27  MET27       0.0387
      6  CG       -22.0590   27.4120  -14.1260 C.3    27  MET27       0.0595
      7  SD       -20.7170   27.4930  -12.9170 S.3    27  MET27      -0.1393
      8  CE       -21.2340   28.9310  -11.9950 C.3    27  MET27       0.0692
      9  N        -20.3070   25.2020  -10.4050 N.3    29  PHE29      -0.1227
     10  CA       -19.8910   25.9190   -9.2280 C.3    29  PHE29       0.1736
     11  C        -21.0030   26.7810   -8.6050 C.2    29  PHE29       0.2596
     12  O        -20.7040   27.6090   -7.7400 O.2    29  PHE29      -0.2718
     13  CB       -18.6940   26.7990   -9.6300 C.3    29  PHE29       0.0547
     14  CG       -17.5530   26.0100  -10.1790 C.ar   29  PHE29      -0.0202
     15  CD1      -16.7550   25.2710   -9.3330 C.ar   29  PHE29      -0.0042
     16  CD2      -17.3060   25.9640  -11.5480 C.ar   29  PHE29      -0.0042
     17  CE1      -15.7080   24.5030   -9.8290 C.ar   29  PHE29      -0.0003
     18  CE2      -16.2630   25.2120  -12.0520 C.ar   29  PHE29      -0.0003
     19  CZ       -15.4590   24.4770  -11.1890 C.ar   29  PHE29      -0.0000
     20  N        -22.2500   26.6080   -9.0580 N.am   30  CYS30      -0.1957
     21  CA       -23.4070   27.3590   -8.5300 C.3    30  CYS30       0.1828
     22  C        -23.9610   26.6020   -7.3340 C.2    30  CYS30       0.2467
     23  O        -24.3540   25.4290   -7.4820 O.2    30  CYS30      -0.2730
     24  CB       -24.5190   27.5120   -9.5740 C.3    30  CYS30       0.0996
     25  SG       -26.1050   28.0570   -8.8800 S.3    30  CYS30      -0.0797
     26  N        -23.9780   27.2380   -6.1410 N.am   31  PRO31      -0.2726
     27  CA       -24.5090   26.5220   -4.9690 C.3    31  PRO31       0.1402
     28  C        -26.0130   26.2670   -5.0290 C.2    31  PRO31       0.2269
     29  O        -26.4810   25.2420   -4.4960 O.2    31  PRO31      -0.2865
     30  CB       -24.1530   27.4550   -3.7980 C.3    31  PRO31       0.0296
     31  CG       -24.1240   28.8070   -4.4160 C.3    31  PRO31       0.0237
     32  CD       -23.5120   28.5870   -5.7730 C.3    31  PRO31       0.0939
     33  N        -22.7030   31.1230  -17.4590 N.3    54  LEU54      -0.1231
     34  CA       -23.4880   32.2190  -16.8850 C.3    54  LEU54       0.1693
     35  C        -22.9070   33.6210  -17.1690 C.2    54  LEU54       0.2591
     36  O        -23.6040   34.6220  -17.0100 O.2    54  LEU54      -0.2718
     37  CB       -23.6640   32.0090  -15.3920 C.3    54  LEU54       0.0284
     38  CG       -24.4090   30.7310  -14.9900 C.3    54  LEU54       0.0019
     39  CD1      -24.3270   30.5870  -13.4740 C.3    54  LEU54       0.0001
     40  CD2      -25.8570   30.7480  -15.4610 C.3    54  LEU54       0.0001
     41  N        -21.6470   33.6710  -17.5870 N.am   55  LYS55      -0.1980
     42  CA       -21.0200   34.8980  -18.0600 C.3    55  LYS55       0.1596
     43  C        -21.2480   35.1590  -19.5560 C.2    55  LYS55       0.2287
     44  O        -20.9130   36.2420  -20.0480 O.2    55  LYS55      -0.2864
     45  CB       -19.5070   34.8490  -17.7730 C.3    55  LYS55       0.0298
     46  CG       -19.1430   34.9820  -16.3000 C.3    55  LYS55       0.0038
     47  CD       -19.7750   36.2280  -15.6980 C.3    55  LYS55       0.0206
     48  CE       -18.9750   36.8140  -14.5470 C.3    55  LYS55       0.1093
     49  NZ       -19.8070   37.8530  -13.8640 N.3    55  LYS55      -0.1314
     50  N        -24.3900   33.8120  -21.6920 N.3    57  LYS57      -0.1245
     51  CA       -25.5780   32.9520  -21.7220 C.3    57  LYS57       0.1561
     52  C        -26.1280   32.7760  -23.1270 C.2    57  LYS57       0.2260
     53  O        -26.2140   33.7520  -23.8760 O.2    57  LYS57      -0.2867
     54  CB       -26.6870   33.5350  -20.8510 C.3    57  LYS57       0.0271
     55  CG       -26.3390   33.5210  -19.3830 C.3    57  LYS57       0.0035
     56  CD       -27.4410   34.1000  -18.5200 C.3    57  LYS57       0.0206
     57  CE       -26.8630   34.4950  -17.1730 C.3    57  LYS57       0.1093
     58  NZ       -27.9010   34.7860  -16.1590 N.3    57  LYS57      -0.1314
     59  N        -22.2270   35.7820    0.5790 N.3   125  VAL125     -0.1231
     60  CA       -21.2520   35.5430   -0.4900 C.3   125  VAL125      0.1692
     61  C        -20.9280   36.8590   -1.2160 C.2   125  VAL125      0.2592
     62  O        -19.7760   37.1030   -1.5560 O.2   125  VAL125     -0.2718
     63  CB       -21.7170   34.4430   -1.4700 C.3   125  VAL125      0.0266
     64  CG1      -20.7410   34.2990   -2.6370 C.3   125  VAL125      0.0020
     65  CG2      -21.8590   33.1000   -0.7430 C.3   125  VAL125      0.0020
     66  N        -21.9270   37.7130   -1.4260 N.am  126  GLY126     -0.1957
     67  CA       -21.6930   39.0570   -1.9630 C.3   126  GLY126      0.1869
     68  C        -20.8390   39.9040   -1.0350 C.2   126  GLY126      0.2309
     69  O        -19.9070   40.5910   -1.4640 O.2   126  GLY126     -0.2863
     70  N        -18.6900   38.6830    0.9510 N.3   128  PHE128     -0.1227
     71  CA       -17.3480   38.0890    0.8300 C.3   128  PHE128      0.1736
     72  C        -16.5930   38.6660   -0.3610 C.2   128  PHE128      0.2595
     73  O        -15.4760   39.1290   -0.2190 O.2   128  PHE128     -0.2718
     74  CB       -17.3880   36.5540    0.7470 C.3   128  PHE128      0.0547
     75  CG       -16.1250   35.9600    0.2040 C.ar  128  PHE128     -0.0202
     76  CD1      -15.0140   35.7890    1.0290 C.ar  128  PHE128     -0.0042
     77  CD2      -16.0280   35.6170   -1.1330 C.ar  128  PHE128     -0.0042
     78  CE1      -13.8320   35.2820    0.5180 C.ar  128  PHE128     -0.0003
     79  CE2      -14.8490   35.1100   -1.6470 C.ar  128  PHE128     -0.0003
     80  CZ       -13.7540   34.9460   -0.8230 C.ar  128  PHE128     -0.0000
     81  N        -17.2280   38.6740   -1.5200 N.am  129  ILE129     -0.1980
     82  CA       -16.6270   39.2460   -2.7370 C.3   129  ILE129      0.1595
     83  C        -16.2010   40.7020   -2.5310 C.2   129  ILE129      0.2287
     84  O        -15.1280   41.0920   -2.9650 O.2   129  ILE129     -0.2864
     85  CB       -17.5900   39.1390   -3.9550 C.3   129  ILE129      0.0276
     86  CG1      -17.8220   37.6730   -4.3350 C.3   129  ILE129      0.0022
     87  CG2      -17.0770   39.9190   -5.1580 C.3   129  ILE129      0.0022
     88  CD1      -16.5720   36.8780   -4.6570 C.3   129  ILE129      0.0001
     89  N        -18.0770   25.7700    0.7550 N.3   181  ARG181     -0.1245
     90  CA       -17.1560   26.8000    0.2850 C.3   181  ARG181      0.1563
     91  C        -16.4890   27.6140    1.4290 C.2   181  ARG181      0.2260
     92  O        -15.7360   28.5420    1.1570 O.2   181  ARG181     -0.2867
     93  CB       -17.9170   27.7260   -0.6830 C.3   181  ARG181      0.0307
     94  CG       -18.5820   27.0110   -1.8770 C.3   181  ARG181      0.0489
     95  CD       -19.9040   27.6640   -2.2880 C.3   181  ARG181      0.2205
     96  NE       -20.5880   27.0490   -3.4430 N.pl3 181  ARG181     -0.0865
     97  CZ       -20.9380   25.7650   -3.5630 C.cat 181  ARG181      0.5346
     98  NH1      -20.6070   24.8900   -2.6520 N.pl3 181  ARG181      0.1354
     99  NH2      -21.5700   25.3310   -4.6510 N.pl3 181  ARG181      0.1354
    100  N        -12.5630   27.4420    1.4480 N.3   184  ALA184     -0.1231
    101  CA       -12.0230   28.2020    0.3200 C.3   184  ALA184      0.1694
    102  C        -12.1460   29.7250    0.5250 C.2   184  ALA184      0.2591
    103  O        -11.2890   30.4760    0.0660 O.2   184  ALA184     -0.2718
    104  CB       -12.6990   27.7860   -0.9840 C.3   184  ALA184      0.0304
    105  N        -13.2030   30.1570    1.2210 N.am  185  MET185     -0.1979
    106  CA       -13.3980   31.5680    1.5960 C.3   185  MET185      0.1605
    107  C        -12.5690   32.0250    2.8060 C.2   185  MET185      0.2287
    108  O        -12.5210   33.2340    3.1130 O.2   185  MET185     -0.2864
    109  CB       -14.8840   31.8150    1.8830 C.3   185  MET185      0.0413
    110  CG       -15.7640   31.6780    0.6530 C.3   185  MET185      0.0598
    111  SD       -17.5170   31.6170    1.0890 S.3   185  MET185     -0.1393
    112  CE       -17.9170   33.3330    0.9580 C.3   185  MET185      0.0692
    113  N        -12.5510   25.2380   -6.1810 N.3   220  TRP220     -0.1227
    114  CA       -13.2740   26.4590   -5.7470 C.3   220  TRP220      0.1737
    115  C        -12.4980   27.7450   -6.0370 C.2   220  TRP220      0.2595
    116  O        -13.0410   28.7020   -6.6270 O.2   220  TRP220     -0.2718
    117  CB       -13.6950   26.3890   -4.2580 C.3   220  TRP220      0.0564
    118  CG       -14.8970   25.5200   -4.0950 C.ar  220  TRP220      0.0003
    119  CD1      -15.0090   24.3730   -3.3560 C.ar  220  TRP220      0.0946
    120  CD2      -16.1510   25.7070   -4.7400 C.ar  220  TRP220      0.0152
    121  NE1      -16.2660   23.8270   -3.5130 N.ar  220  TRP220     -0.2442
    122  CE2      -16.9840   24.6270   -4.3640 C.ar  220  TRP220      0.0810
    123  CE3      -16.6570   26.6900   -5.5990 C.ar  220  TRP220      0.0012
    124  CZ2      -18.2850   24.5040   -4.8250 C.ar  220  TRP220      0.0191
    125  CZ3      -17.9350   26.5630   -6.0680 C.ar  220  TRP220      0.0001
    126  CH2      -18.7460   25.4820   -5.6730 C.ar  220  TRP220      0.0015
    127  N        -11.2280   27.7450   -5.6550 N.am  221  GLN221     -0.1979
    128  CA       -10.3560   28.8990   -5.8760 C.3   221  GLN221      0.1601
    129  C        -10.0400   29.1180   -7.3400 C.2   221  GLN221      0.2287
    130  O         -9.9950   30.2600   -7.7810 O.2   221  GLN221     -0.2864
    131  CB        -9.0670   28.7910   -5.0540 C.3   221  GLN221      0.0394
    132  CG        -9.3830   28.7950   -3.5730 C.3   221  GLN221      0.0908
    133  CD        -8.2290   29.1760   -2.6800 C.2   221  GLN221      0.2608
    134  OE1       -7.0430   29.1420   -3.0960 O.2   221  GLN221     -0.2717
    135  NE2       -8.5720   29.5720   -1.4210 N.am  221  GLN221     -0.0878
    136  N        -12.0730   28.3840   -9.8290 N.3   223  PHE223     -0.1227
    137  CA       -13.2620   28.9960  -10.3670 C.3   223  PHE223      0.1736
    138  C        -13.3390   30.4630   -9.9840 C.2   223  PHE223      0.2595
    139  O        -13.5800   31.3250  -10.8370 O.2   223  PHE223     -0.2718
    140  CB       -14.5210   28.2690   -9.9040 C.3   223  PHE223      0.0547
    141  CG       -15.7530   29.0530  -10.1440 C.ar  223  PHE223     -0.0202
    142  CD1      -16.2880   29.1330  -11.4190 C.ar  223  PHE223     -0.0042
    143  CD2      -16.3480   29.7720   -9.1170 C.ar  223  PHE223     -0.0042
    144  CE1      -17.4120   29.8960  -11.6650 C.ar  223  PHE223     -0.0003
    145  CE2      -17.4770   30.5260   -9.3580 C.ar  223  PHE223     -0.0003
    146  CZ       -18.0080   30.5910  -10.6380 C.ar  223  PHE223     -0.0000
    147  N        -13.1370   30.7420   -8.6960 N.am  224  LEU224     -0.1980
    148  CA       -13.2900   32.1010   -8.1810 C.3   224  LEU224      0.1596
    149  C        -12.3390   33.0980   -8.8500 C.2   224  LEU224      0.2287
    150  O        -12.7670   34.2200   -9.2020 O.2   224  LEU224     -0.2864
    151  CB       -13.0870   32.1340   -6.6700 C.3   224  LEU224      0.0297
    152  CG       -13.3190   33.4820   -5.9940 C.3   224  LEU224      0.0022
    153  CD1      -14.7700   33.9350   -6.1130 C.3   224  LEU224      0.0001
    154  CD2      -12.8920   33.3660   -4.5370 C.3   224  LEU224      0.0001
    155  N        -13.7580   33.7350  -12.2610 N.3   227  TYR227     -0.1227
    156  CA       -15.0390   34.4530  -12.1420 C.3   227  TYR227      0.1736
    157  C        -14.8400   35.9800  -11.8270 C.2   227  TYR227      0.2595
    158  O        -15.5370   36.7970  -12.4320 O.2   227  TYR227     -0.2718
    159  CB       -15.9500   33.7870  -11.0990 C.3   227  TYR227      0.0548
    160  CG       -17.4130   34.0860  -11.3100 C.ar  227  TYR227     -0.0200
    161  CD1      -18.0840   33.5850  -12.4180 C.ar  227  TYR227     -0.0009
    162  CD2      -18.1260   34.8450  -10.3940 C.ar  227  TYR227     -0.0009
    163  CE1      -19.4380   33.8090  -12.5980 C.ar  227  TYR227      0.0417
    164  CE2      -19.4820   35.0760  -10.5580 C.ar  227  TYR227      0.0417
    165  CZ       -20.1430   34.5420  -11.6550 C.ar  227  TYR227      0.1957
    166  OH       -21.5410   34.7700  -11.8150 O.3   227  TYR227     -0.2866
    167  N        -13.9040   36.3050  -10.9010 N.am  228  LEU228     -0.1980
    168  CA       -13.6010   37.7110  -10.4970 C.3   228  LEU228      0.1596
    169  C        -12.7580   38.4220  -11.5730 C.2   228  LEU228      0.2287
    170  O        -12.8690   39.6340  -11.7180 O.2   228  LEU228     -0.2864
    171  CB       -12.8930   37.7530   -9.1440 C.3   228  LEU228      0.0297
    172  CG       -13.7360   37.2200   -7.9910 C.3   228  LEU228      0.0022
    173  CD1      -12.9500   37.2890   -6.6930 C.3   228  LEU228      0.0001
    174  CD2      -15.0470   37.9960   -7.8800 C.3   228  LEU228      0.0001
    175  N        -16.7530   29.1890  -15.7310 N.3   235  CYS235     -0.1235
    176  CA       -17.6860   28.0750  -15.5790 C.3   235  CYS235      0.1677
    177  C        -17.1240   26.7100  -16.0140 C.2   235  CYS235      0.2270
    178  O        -17.5280   25.6740  -15.4820 O.2   235  CYS235     -0.2867
    179  CB       -18.9950   28.4030  -16.3000 C.3   235  CYS235      0.0956
    180  SG       -19.8250   29.8370  -15.5530 S.3   235  CYS235     -0.0801
@<TRIPOS>BOND
     1    53    52    2
     2    52    51    1
     3    51    50    1
     4    51    54    1
     5    54    55    1
     6    44    43    2
     7    43    42    1
     8    55    56    1
     9    56    57    1
    10    42    45    1
    11    42    41    1
    12    45    46    1
    13    41    35   am
    14    33    34    1
    15    57    58    1
    16    35    36    2
    17    35    34    1
    18    34    37    1
    19    46    47    1
    20   179   176    1
    21   179   180    1
    22   177   176    1
    23   177   178    2
    24   175   176    1
    25    47    48    1
    26    40    38    1
    27    37    38    1
    28    38    39    1
    29    48    49    1
    30     6     5    1
    31     6     7    1
    32     2     5    1
    33     2     1    1
    34     2     3    1
    35     7     8    1
    36   163   161   ar
    37   163   165   ar
    38     3     4    2
    39   158   157    2
    40   161   160   ar
    41   155   156    1
    42   156   157    1
    43   156   159    1
    44    18    16   ar
    45    18    19   ar
    46   157   167   am
    47   166   165    1
    48   170   169    2
    49   144   142   ar
    50   144   146   ar
    51   165   164   ar
    52   169   168    1
    53    16    14   ar
    54   142   141   ar
    55   160   159    1
    56   160   162   ar
    57    19    17   ar
    58   167   168    1
    59   139   138    2
    60   146   145   ar
    61   164   162   ar
    62   168   171    1
    63     9    10    1
    64   137   138    1
    65   137   140    1
    66   137   136    1
    67    14    13    1
    68    14    15   ar
    69   141   140    1
    70   141   143   ar
    71   138   147   am
    72    17    15   ar
    73    13    10    1
    74    24    25    1
    75    24    21    1
    76   145   143   ar
    77    10    11    1
    78   150   149    2
    79   171   172    1
    80    20    11   am
    81    20    21    1
    82   149   148    1
    83   147   148    1
    84    11    12    2
    85    21    22    1
    86   148   151    1
    87   172   174    1
    88   172   173    1
    89   130   129    2
    90    23    22    2
    91   129   128    1
    92    22    26   am
    93   151   152    1
    94   116   115    2
    95   113   114    1
    96    26    32    1
    97    26    27    1
    98   153   152    1
    99   125   126   ar
   100   125   123   ar
   101   115   114    1
   102   115   127   am
   103   152   154    1
   104   128   127    1
   105   128   131    1
   106    32    31    1
   107   114   117    1
   108   126   124   ar
   109   123   120   ar
   110    87    85    1
   111   131   132    1
   112    28    27    1
   113    28    29    2
   114    27    30    1
   115   124   122   ar
   116   120   122   ar
   117   120   118   ar
   118    88    86    1
   119    99    97    1
   120    31    30    1
   121   122   121   ar
   122    86    85    1
   123   117   118    1
   124   118   119   ar
   125    85    82    1
   126   132   133    1
   127    97    96    2
   128    97    98    1
   129   121   119   ar
   130    96    95    1
   131   134   133    2
   132    84    83    2
   133    82    83    1
   134    82    81    1
   135   133   135   am
   136    64    63    1
   137    95    94    1
   138    67    66    1
   139    67    68    1
   140    94    93    1
   141    79    77   ar
   142    79    80   ar
   143    62    61    2
   144    81    72   am
   145    63    65    1
   146    63    60    1
   147    69    68    2
   148    66    61   am
   149    61    60    1
   150    77    75   ar
   151   104   101    1
   152    80    78   ar
   153    93    90    1
   154    60    59    1
   155    72    73    2
   156    72    71    1
   157   103   102    2
   158    75    74    1
   159    75    76   ar
   160    90    89    1
   161    90    91    1
   162   101   102    1
   163   101   100    1
   164    78    76   ar
   165   102   105   am
   166   110   111    1
   167   110   109    1
   168    74    71    1
   169    71    70    1
   170   112   111    1
   171    92    91    2
   172   105   106    1
   173   106   109    1
   174   106   107    1
   175   107   108    2
