@<TRIPOS>MOLECULE
tmp/5uenA00.pdb
 208 197 0 0 0
SMALL
GASTEIGER

@<TRIPOS>ATOM
      1  N         56.8930   56.2410  157.3620 N.3     9  TYR9       -0.1241
      2  CA        56.3550   56.0090  156.0160 C.3     9  TYR9        0.1605
      3  C         55.6410   54.6570  155.9390 C.2     9  TYR9        0.2264
      4  O         54.4460   54.5890  155.5820 O.2     9  TYR9       -0.2867
      5  CB        57.4680   56.0930  154.9540 C.3     9  TYR9        0.0534
      6  CG        57.0740   55.5290  153.6050 C.ar    9  TYR9       -0.0201
      7  CD1       56.1990   56.2200  152.7680 C.ar    9  TYR9       -0.0009
      8  CD2       57.5650   54.2920  153.1700 C.ar    9  TYR9       -0.0009
      9  CE1       55.8260   55.7000  151.5350 C.ar    9  TYR9        0.0417
     10  CE2       57.1950   53.7660  151.9390 C.ar    9  TYR9        0.0417
     11  CZ        56.3320   54.4710  151.1270 C.ar    9  TYR9        0.1957
     12  OH        55.9650   53.9460  149.9150 O.3     9  TYR9       -0.2866
     13  N         51.6730   54.1770  155.5350 N.3    13  GLU13      -0.1245
     14  CA        51.2220   53.3540  154.3940 C.3    13  GLU13       0.1567
     15  C         50.3860   52.1550  154.8460 C.2    13  GLU13       0.2260
     16  O         49.2590   51.9410  154.3550 O.2    13  GLU13      -0.2867
     17  CB        52.4170   52.8680  153.5690 C.3    13  GLU13       0.0388
     18  CG        53.0620   53.9410  152.6990 C.3    13  GLU13       0.1160
     19  CD        52.3790   54.1210  151.3520 C.2    13  GLU13       0.3649
     20  OE1       51.1340   54.0920  151.2880 O.co2  13  GLU13      -0.2457
     21  OE2       53.0970   54.2960  150.3440 O.co2  13  GLU13      -0.2457
     22  N         54.8120   49.3620  147.0680 N.3    63  ALA63      -0.1245
     23  CA        55.5610   50.5630  147.4500 C.3    63  ALA63       0.1562
     24  C         56.4530   50.3020  148.6550 C.2    63  ALA63       0.2260
     25  O         57.6250   50.6860  148.6570 O.2    63  ALA63      -0.2867
     26  CB        54.6130   51.7200  147.7400 C.3    63  ALA63       0.0290
     27  N         60.3710   50.1340  148.7050 N.3    67  ASN67      -0.1240
     28  CA        61.0370   51.0220  149.6650 C.3    67  ASN67       0.1653
     29  C         62.0790   50.2850  150.5080 C.2    67  ASN67       0.2266
     30  O         63.2340   50.7160  150.5880 O.2    67  ASN67      -0.2867
     31  CB        60.0100   51.6960  150.5830 C.3    67  ASN67       0.1155
     32  CG        60.6400   52.7130  151.5230 C.2    67  ASN67       0.2627
     33  OD1       60.8020   52.4550  152.7160 O.2    67  ASN67      -0.2716
     34  ND2       61.0060   53.8680  150.9860 N.am   67  ASN67      -0.0877
     35  N         49.0240   51.1850  139.7530 N.3    84  VAL84      -0.1231
     36  CA        48.4740   52.4580  140.2250 C.3    84  VAL84       0.1692
     37  C         47.9400   53.3250  139.0710 C.2    84  VAL84       0.2591
     38  O         46.8860   53.9490  139.2140 O.2    84  VAL84      -0.2718
     39  CB        49.4970   53.2400  141.0920 C.3    84  VAL84       0.0266
     40  CG1       50.6470   53.7940  140.2600 C.3    84  VAL84       0.0020
     41  CG2       48.8100   54.3530  141.8690 C.3    84  VAL84       0.0020
     42  N         48.6420   53.3190  137.9300 N.am   85  LEU85      -0.1980
     43  CA        48.2110   54.0600  136.7300 C.3    85  LEU85       0.1596
     44  C         46.8930   53.5200  136.1930 C.2    85  LEU85       0.2287
     45  O         45.9930   54.2990  135.8480 O.2    85  LEU85      -0.2864
     46  CB        49.2660   54.0090  135.6190 C.3    85  LEU85       0.0297
     47  CG        50.6820   54.4680  135.9680 C.3    85  LEU85       0.0022
     48  CD1       51.5890   54.3420  134.7580 C.3    85  LEU85       0.0001
     49  CD2       50.6660   55.8910  136.4990 C.3    85  LEU85       0.0001
     50  N         44.0930   54.1420  139.1750 N.3    88  THR88      -0.1218
     51  CA        43.7390   55.5690  139.2200 C.3    88  THR88       0.1862
     52  C         42.8990   55.9730  138.0070 C.2    88  THR88       0.2287
     53  O         41.9250   56.7180  138.1570 O.2    88  THR88      -0.2866
     54  CB        44.9780   56.4860  139.3160 C.3    88  THR88       0.1770
     55  OG1       45.7870   56.0870  140.4280 O.3    88  THR88      -0.2211
     56  CG2       44.5730   57.9400  139.5080 C.3    88  THR88       0.0375
     57  N         68.1040   51.9700  141.4210 N.3   165  LYS165     -0.1245
     58  CA        67.1940   52.2780  142.5220 C.3   165  LYS165      0.1561
     59  C         65.8420   52.6110  141.9070 C.2   165  LYS165      0.2260
     60  O         65.7260   53.5710  141.1410 O.2   165  LYS165     -0.2867
     61  CB        67.6950   53.4570  143.3720 C.3   165  LYS165      0.0271
     62  CG        66.6590   53.9760  144.3660 C.3   165  LYS165      0.0035
     63  CD        67.2780   54.6500  145.5740 C.3   165  LYS165      0.0206
     64  CE        66.1880   55.1770  146.4990 C.3   165  LYS165      0.1093
     65  NZ        66.7180   55.6050  147.8240 N.3   165  LYS165     -0.1314
     66  N         59.9950   56.2870  140.4370 N.3   168  PHE168     -0.1227
     67  CA        58.9360   56.5060  139.4460 C.3   168  PHE168      0.1736
     68  C         59.4340   57.3420  138.2690 C.2   168  PHE168      0.2595
     69  O         59.2950   56.9430  137.1100 O.2   168  PHE168     -0.2718
     70  CB        57.7370   57.1900  140.1020 C.3   168  PHE168      0.0547
     71  CG        56.5380   57.3080  139.2100 C.ar  168  PHE168     -0.0202
     72  CD1       55.6110   56.2800  139.1350 C.ar  168  PHE168     -0.0042
     73  CD2       56.3250   58.4570  138.4580 C.ar  168  PHE168     -0.0042
     74  CE1       54.4960   56.3910  138.3200 C.ar  168  PHE168     -0.0003
     75  CE2       55.2150   58.5730  137.6380 C.ar  168  PHE168     -0.0003
     76  CZ        54.3000   57.5390  137.5680 C.ar  168  PHE168     -0.0000
     77  N         60.0290   58.4900  138.5810 N.am  169  GLU169     -0.1979
     78  CA        60.5840   59.3870  137.5580 C.3   169  GLU169      0.1602
     79  C         61.7600   58.8070  136.7620 C.2   169  GLU169      0.2287
     80  O         62.0800   59.3230  135.6890 O.2   169  GLU169     -0.2864
     81  CB        60.9660   60.7570  138.1480 C.3   169  GLU169      0.0415
     82  CG        62.1030   60.7740  139.1660 C.3   169  GLU169      0.1163
     83  CD        61.6100   60.8490  140.6020 C.2   169  GLU169      0.3649
     84  OE1       60.8620   59.9280  141.0110 O.co2 169  GLU169     -0.2457
     85  OE2       61.9720   61.8190  141.3180 O.co2 169  GLU169     -0.2457
     86  N         57.8890   61.4500  132.1570 N.3   174  MET174     -0.1245
     87  CA        57.0950   62.6040  132.5970 C.3   174  MET174      0.1570
     88  C         56.2300   63.1760  131.4790 C.2   174  MET174      0.2261
     89  O         55.1030   63.6080  131.7310 O.2   174  MET174     -0.2867
     90  CB        57.9830   63.6920  133.2040 C.3   174  MET174      0.0387
     91  CG        58.4880   63.3400  134.5950 C.3   174  MET174      0.0595
     92  SD        57.1650   63.1940  135.8210 S.3   174  MET174     -0.1393
     93  CE        57.7150   61.7560  136.7070 C.3   174  MET174      0.0692
     94  N         53.1850   61.2010  131.5370 N.3   177  MET177     -0.1245
     95  CA        52.3510   61.5670  132.6870 C.3   177  MET177      0.1570
     96  C         51.6270   62.9060  132.5120 C.2   177  MET177      0.2261
     97  O         50.4500   63.0300  132.8640 O.2   177  MET177     -0.2867
     98  CB        53.1790   61.5780  133.9800 C.3   177  MET177      0.0387
     99  CG        53.2910   60.2200  134.6620 C.3   177  MET177      0.0595
    100  SD        51.8520   59.8520  135.6890 S.3   177  MET177     -0.1393
    101  CE        50.9330   58.7220  134.6560 C.3   177  MET177      0.0692
    102  N         48.6460   61.1290  130.1740 N.3   181  ASN181     -0.1240
    103  CA        47.7900   60.7940  131.3130 C.3   181  ASN181      0.1653
    104  C         47.0030   62.0130  131.8450 C.2   181  ASN181      0.2266
    105  O         45.7570   61.9930  131.8920 O.2   181  ASN181     -0.2867
    106  CB        48.6300   60.1470  132.4220 C.3   181  ASN181      0.1155
    107  CG        47.8120   59.7760  133.6410 C.2   181  ASN181      0.2627
    108  OD1       48.0740   60.2450  134.7460 O.2   181  ASN181     -0.2716
    109  ND2       46.8150   58.9350  133.4440 N.am  181  ASN181     -0.0877
    110  N         44.2640   64.1760  144.2960 N.3   315  TRP315     -0.1241
    111  CA        45.1040   63.8350  143.1250 C.3   315  TRP315      0.1605
    112  C         45.8560   64.9800  142.4410 C.2   315  TRP315      0.2264
    113  O         46.9510   64.7470  141.9250 O.2   315  TRP315     -0.2867
    114  CB        44.2900   63.0520  142.0860 C.3   315  TRP315      0.0550
    115  CG        44.2110   61.6000  142.4170 C.ar  315  TRP315      0.0003
    116  CD1       43.1400   60.9200  142.9180 C.ar  315  TRP315      0.0946
    117  CD2       45.2700   60.6550  142.3000 C.ar  315  TRP315      0.0152
    118  NE1       43.4640   59.5980  143.1050 N.ar  315  TRP315     -0.2442
    119  CE2       44.7700   59.4100  142.7350 C.ar  315  TRP315      0.0810
    120  CE3       46.5950   60.7370  141.8580 C.ar  315  TRP315      0.0012
    121  CZ2       45.5520   58.2500  142.7370 C.ar  315  TRP315      0.0191
    122  CZ3       47.3690   59.5940  141.8630 C.ar  315  TRP315      0.0001
    123  CH2       46.8470   58.3610  142.2970 C.ar  315  TRP315      0.0015
    124  N         49.9880   65.8070  143.1260 N.3   318  LEU318     -0.1231
    125  CA        50.9480   64.8910  142.4860 C.3   318  LEU318      0.1693
    126  C         51.0890   65.1420  140.9730 C.2   318  LEU318      0.2592
    127  O         52.1710   64.9430  140.4100 O.2   318  LEU318     -0.2718
    128  CB        50.5620   63.4280  142.7460 C.3   318  LEU318      0.0284
    129  CG        51.5930   62.3460  142.3940 C.3   318  LEU318      0.0019
    130  CD1       52.7980   62.3900  143.3210 C.3   318  LEU318      0.0001
    131  CD2       50.9470   60.9740  142.4460 C.3   318  LEU318      0.0001
    132  N         50.0000   65.5730  140.3300 N.am  319  HIS319     -0.1976
    133  CA        50.0430   66.0140  138.9310 C.3   319  HIS319      0.1656
    134  C         50.8060   67.3300  138.7900 C.2   319  HIS319      0.2291
    135  O         51.7370   67.4250  137.9800 O.2   319  HIS319     -0.2864
    136  CB        48.6360   66.1450  138.3400 C.3   319  HIS319      0.0771
    137  CG        47.9570   64.8310  138.1210 C.ar  319  HIS319      0.0820
    138  ND1       48.4750   63.8590  137.2930 N.ar  319  HIS319     -0.2267
    139  CD2       46.8030   64.3290  138.6180 C.ar  319  HIS319      0.1154
    140  CE1       47.6700   62.8120  137.2950 C.ar  319  HIS319      0.1986
    141  NE2       46.6460   63.0720  138.0870 N.ar  319  HIS319     -0.2212
    142  N         53.0440   68.4630  140.6830 N.3   321  LEU321     -0.1231
    143  CA        54.4330   68.0210  140.8640 C.3   321  LEU321      0.1693
    144  C         55.0460   67.3960  139.5930 C.2   321  LEU321      0.2592
    145  O         56.2170   67.6390  139.2940 O.2   321  LEU321     -0.2718
    146  CB        54.5520   67.0450  142.0410 C.3   321  LEU321      0.0284
    147  CG        54.4360   67.6450  143.4500 C.3   321  LEU321      0.0019
    148  CD1       54.2660   66.5680  144.5130 C.3   321  LEU321      0.0001
    149  CD2       55.6480   68.5000  143.7850 C.3   321  LEU321      0.0001
    150  N         54.2660   66.5970  138.8600 N.am  322  ASN322     -0.1974
    151  CA        54.7380   66.0040  137.5950 C.3   322  ASN322      0.1688
    152  C         54.9170   67.0390  136.4950 C.2   322  ASN322      0.2292
    153  O         55.8580   66.9450  135.7000 O.2   322  ASN322     -0.2864
    154  CB        53.7960   64.8960  137.1030 C.3   322  ASN322      0.1181
    155  CG        53.8630   63.6470  137.9580 C.2   322  ASN322      0.2629
    156  OD1       54.6490   63.5630  138.9010 O.2   322  ASN322     -0.2716
    157  ND2       53.0320   62.6670  137.6270 N.am  322  ASN322     -0.0877
    158  N         58.0350   69.2790  137.5110 N.3   325  THR325     -0.1218
    159  CA        59.2730   68.5180  137.2450 C.3   325  THR325      0.1862
    160  C         59.5880   68.4250  135.7450 C.2   325  THR325      0.2287
    161  O         60.7520   68.5610  135.3480 O.2   325  THR325     -0.2866
    162  CB        59.2390   67.0920  137.8400 C.3   325  THR325      0.1770
    163  OG1       58.0330   66.4350  137.4500 O.3   325  THR325     -0.2211
    164  CG2       59.3280   67.1350  139.3620 C.3   325  THR325      0.0375
    165  N         56.3070   66.4600  148.4310 N.3   338  THR338     -0.1203
    166  CA        56.2390   65.2380  147.6160 C.3   338  THR338      0.1994
    167  C         55.5670   64.0950  148.3810 C.2   338  THR338      0.2617
    168  O         54.7240   63.3900  147.8270 O.2   338  THR338     -0.2717
    169  CB        57.6450   64.7770  147.1650 C.3   338  THR338      0.1784
    170  OG1       58.2690   65.8170  146.4010 O.3   338  THR338     -0.2211
    171  CG2       57.5720   63.5010  146.3230 C.3   338  THR338      0.0376
    172  N         55.9460   63.9300  149.6490 N.am  339  TYR339     -0.1975
    173  CA        55.4560   62.8350  150.4890 C.3   339  TYR339      0.1639
    174  C         53.9740   62.9820  150.8660 C.2   339  TYR339      0.2290
    175  O         53.2300   62.0020  150.7810 O.2   339  TYR339     -0.2864
    176  CB        56.3350   62.6510  151.7440 C.3   339  TYR339      0.0560
    177  CG        57.4950   61.6800  151.5670 C.ar  339  TYR339     -0.0198
    178  CD1       57.2680   60.3080  151.5240 C.ar  339  TYR339     -0.0009
    179  CD2       58.8170   62.1270  151.4600 C.ar  339  TYR339     -0.0009
    180  CE1       58.3150   59.4050  151.3760 C.ar  339  TYR339      0.0417
    181  CE2       59.8740   61.2340  151.3050 C.ar  339  TYR339      0.0417
    182  CZ        59.6190   59.8710  151.2510 C.ar  339  TYR339      0.1957
    183  OH        60.6540   58.9560  151.1260 O.3   339  TYR339     -0.2866
    184  N         51.8400   62.1560  147.8840 N.3   342  ILE342     -0.1245
    185  CA        51.7720   60.7000  147.7110 C.3   342  ILE342      0.1561
    186  C         50.8920   60.0400  148.7800 C.2   342  ILE342      0.2260
    187  O         50.1330   59.1150  148.4680 O.2   342  ILE342     -0.2867
    188  CB        53.1910   60.0820  147.6620 C.3   342  ILE342      0.0252
    189  CG1       53.8860   60.5260  146.3640 C.3   342  ILE342      0.0019
    190  CG2       53.1480   58.5540  147.7290 C.3   342  ILE342      0.0019
    191  CD1       55.3890   60.3900  146.3830 C.3   342  ILE342      0.0001
    192  N         47.1650   60.5750  147.7820 N.3   345  THR345     -0.1203
    193  CA        46.6870   59.7120  146.6980 C.3   345  THR345      0.1994
    194  C         46.3420   58.3120  147.1840 C.2   345  THR345      0.2617
    195  O         45.2920   57.7760  146.8290 O.2   345  THR345     -0.2717
    196  CB        47.7170   59.5700  145.5590 C.3   345  THR345      0.1784
    197  OG1       48.9530   59.0670  146.0740 O.3   345  THR345     -0.2211
    198  CG2       47.9530   60.8970  144.8800 C.3   345  THR345      0.0376
    199  N         47.2330   57.7240  147.9830 N.am  346  HIS346     -0.1975
    200  CA        46.9610   56.4260  148.6130 C.3   346  HIS346      0.1656
    201  C         45.8260   56.5460  149.6300 C.2   346  HIS346      0.2291
    202  O         44.9710   55.6590  149.7190 O.2   346  HIS346     -0.2864
    203  CB        48.2130   55.8540  149.2810 C.3   346  HIS346      0.0771
    204  CG        49.3470   55.6090  148.3330 C.ar  346  HIS346      0.0820
    205  ND1       50.6630   55.8270  148.6790 N.ar  346  HIS346     -0.2267
    206  CD2       49.3600   55.1920  147.0450 C.ar  346  HIS346      0.1154
    207  CE1       51.4400   55.5370  147.6510 C.ar  346  HIS346      0.1986
    208  NE2       50.6740   55.1510  146.6450 N.ar  346  HIS346     -0.2212
@<TRIPOS>BOND
     1   102   103    1
     2   103   104    1
     3   103   106    1
     4    88    89    2
     5    88    87    1
     6    94    95    1
     7   104   105    2
     8    86    87    1
     9   106   107    1
    10    96    95    1
    11    96    97    2
    12    87    90    1
    13    95    98    1
    14    90    91    1
    15   109   107   am
    16   107   108    2
    17    98    99    1
    18    91    92    1
    19   101   100    1
    20    99   100    1
    21    48    47    1
    22   161   160    2
    23    46    47    1
    24    46    43    1
    25    80    79    2
    26   153   152    2
    27   160   159    1
    28    92    93    1
    29    45    44    2
    30    47    49    1
    31    44    43    1
    32   152   151    1
    33    43    42    1
    34    79    78    1
    35   154   151    1
    36   154   155    1
    37    69    68    2
    38   159   158    1
    39   159   162    1
    40   138   140   ar
    41   138   137   ar
    42   140   141   ar
    43   163   162    1
    44    78    81    1
    45    78    77    1
    46    76    75   ar
    47    76    74   ar
    48   151   150    1
    49   157   155   am
    50    75    73   ar
    51   162   164    1
    52    42    37   am
    53   155   156    2
    54   135   134    2
    55    52    53    2
    56    52    51    1
    57   141   139   ar
    58   137   136    1
    59   137   139   ar
    60    81    82    1
    61    68    77   am
    62    68    67    1
    63    74    72   ar
    64   136   133    1
    65    73    71   ar
    66   134   133    1
    67   150   144   am
    68   133   132    1
    69    37    38    2
    70    37    36    1
    71    72    71   ar
    72    82    83    1
    73    50    51    1
    74    71    70    1
    75    51    54    1
    76   145   144    2
    77    54    56    1
    78    54    55    1
    79    67    70    1
    80    67    66    1
    81   144   143    1
    82    35    36    1
    83    36    39    1
    84    40    39    1
    85   132   126   am
    86   127   126    2
    87    83    84   ar
    88    83    85   ar
    89   142   143    1
    90   143   146    1
    91   126   125    1
    92    39    41    1
    93    60    59    2
    94    57    58    1
    95   120   122   ar
    96   120   117   ar
    97   122   123   ar
    98    59    58    1
    99   113   112    2
   100   146   147    1
   101   114   115    1
   102   114   111    1
   103   123   121   ar
   104   117   115   ar
   105   117   119   ar
   106   129   131    1
   107   129   128    1
   108   129   130    1
   109   115   116   ar
   110   112   111    1
   111   125   128    1
   112   125   124    1
   113    58    61    1
   114   119   121   ar
   115   119   118   ar
   116   116   118   ar
   117   111   110    1
   118    61    62    1
   119   147   149    1
   120   147   148    1
   121    62    63    1
   122   198   196    1
   123   196   197    1
   124   196   193    1
   125    63    64    1
   126   171   169    1
   127   189   191    1
   128   189   188    1
   129   170   169    1
   130    64    65    1
   131   208   206   ar
   132   208   207   ar
   133   193   194    1
   134   193   192    1
   135   195   194    2
   136   206   204   ar
   137    22    23    1
   138   169   166    1
   139   194   199   am
   140    23    26    1
   141    23    24    1
   142   166   167    1
   143   166   165    1
   144   207   205   ar
   145   188   185    1
   146   188   190    1
   147   185   184    1
   148   185   186    1
   149   168   167    2
   150   199   200    1
   151   204   205   ar
   152   204   203    1
   153   167   172   am
   154   187   186    2
   155   200   203    1
   156   200   201    1
   157    24    25    2
   158    27    28    1
   159   201   202    2
   160   172   173    1
   161    28    29    1
   162    28    31    1
   163    12    11    1
   164    21    19   ar
   165   173   174    1
   166   173   176    1
   167    29    30    2
   168    31    32    1
   169   175   174    2
   170    34    32   am
   171   183   182    1
   172    11     9   ar
   173    11    10   ar
   174   182   181   ar
   175   182   180   ar
   176    20    19   ar
   177   181   179   ar
   178    19    18    1
   179   180   178   ar
   180   179   177   ar
   181    32    33    2
   182   178   177   ar
   183     9     7   ar
   184   177   176    1
   185    10     8   ar
   186    18    17    1
   187     7     6   ar
   188     8     6   ar
   189    17    14    1
   190     6     5    1
   191    16    15    2
   192    14    15    1
   193    14    13    1
   194     5     2    1
   195     4     3    2
   196     3     2    1
   197     2     1    1
