@<TRIPOS>MOLECULE
tmp/5uenA02.pdb
 117 109 0 0 0
SMALL
GASTEIGER

@<TRIPOS>ATOM
      1  N         26.3800   50.2320  141.1060 N.3    43  CYS43      -0.1235
      2  CA        27.1990   49.3410  140.2650 C.3    43  CYS43       0.1677
      3  C         28.5410   49.9580  139.8290 C.2    43  CYS43       0.2270
      4  O         29.5320   49.2410  139.6760 O.2    43  CYS43      -0.2867
      5  CB        26.4060   48.8860  139.0380 C.3    43  CYS43       0.0956
      6  SG        24.8770   48.0150  139.4560 S.3    43  CYS43      -0.0801
      7  N         30.7040   50.0710  143.1260 N.3    46  VAL46      -0.1231
      8  CA        31.3590   48.7710  143.3140 C.3    46  VAL46       0.1692
      9  C         32.6690   48.7360  142.5120 C.2    46  VAL46       0.2592
     10  O         33.7190   48.3740  143.0510 O.2    46  VAL46      -0.2718
     11  CB        30.4390   47.5900  142.8980 C.3    46  VAL46       0.0266
     12  CG1       31.1870   46.2580  142.9340 C.3    46  VAL46       0.0020
     13  CG2       29.2070   47.5210  143.7890 C.3    46  VAL46       0.0020
     14  N         32.6000   49.1220  141.2350 N.am   47  SER47      -0.1952
     15  CA        33.7870   49.1890  140.3700 C.3    47  SER47       0.1924
     16  C         34.8370   50.1420  140.9420 C.2    47  SER47       0.2314
     17  O         36.0310   49.8220  140.9640 O.2    47  SER47      -0.2863
     18  CB        33.3980   49.6200  138.9540 C.3    47  SER47       0.2116
     19  OG        34.5420   49.7890  138.1320 O.3    47  SER47      -0.2180
     20  N         36.3210   48.4280  144.0850 N.3    50  VAL50      -0.1245
     21  CA        37.2640   47.3870  143.6180 C.3    50  VAL50       0.1561
     22  C         38.6500   47.9730  143.3110 C.2    50  VAL50       0.2260
     23  O         39.6790   47.4240  143.7360 O.2    50  VAL50      -0.2867
     24  CB        36.7090   46.6460  142.3680 C.3    50  VAL50       0.0252
     25  CG1       37.7790   45.7860  141.6890 C.3    50  VAL50       0.0019
     26  CG2       35.4950   45.7970  142.7380 C.3    50  VAL50       0.0019
     27  N         42.1910   47.3300  145.3830 N.3    54  ALA54      -0.1245
     28  CA        43.4330   47.0110  144.6800 C.3    54  ALA54       0.1562
     29  C         44.6070   47.9180  145.0630 C.2    54  ALA54       0.2260
     30  O         45.7420   47.4520  145.0960 O.2    54  ALA54      -0.2867
     31  CB        43.2150   47.0370  143.1750 C.3    54  ALA54       0.0290
     32  N         47.3430   45.8480  146.7390 N.3    58  LEU58      -0.1245
     33  CA        48.4630   45.6610  145.7930 C.3    58  LEU58       0.1561
     34  C         49.4340   46.8440  145.7220 C.2    58  LEU58       0.2260
     35  O         50.6510   46.6430  145.8390 O.2    58  LEU58      -0.2867
     36  CB        47.9420   45.3330  144.3840 C.3    58  LEU58       0.0270
     37  CG        48.9530   45.0890  143.2490 C.3    58  LEU58       0.0019
     38  CD1       49.9240   43.9700  143.5800 C.3    58  LEU58       0.0001
     39  CD2       48.2200   44.7930  141.9540 C.3    58  LEU58       0.0001
     40  N         57.3170   47.4960  135.6710 N.3    79  MET79      -0.1245
     41  CA        56.1020   46.6980  135.9320 C.3    79  MET79       0.1570
     42  C         55.3560   47.1140  137.1910 C.2    79  MET79       0.2261
     43  O         54.1290   47.2060  137.1840 O.2    79  MET79      -0.2867
     44  CB        56.4330   45.2060  136.0340 C.3    79  MET79       0.0387
     45  CG        56.6100   44.5180  134.6920 C.3    79  MET79       0.0595
     46  SD        57.2670   42.8470  134.9080 S.3    79  MET79      -0.1393
     47  CE        55.8760   42.0410  135.7080 C.3    79  MET79       0.0692
     48  N         53.0400   50.4400  137.1260 N.3    82  CYS82      -0.1221
     49  CA        51.8120   50.5170  136.3030 C.3    82  CYS82       0.1794
     50  C         50.4340   50.2900  136.9780 C.2    82  CYS82       0.2443
     51  O         49.4610   50.9810  136.6220 O.2    82  CYS82      -0.2733
     52  CB        51.9470   49.5990  135.0840 C.3    82  CYS82       0.0970
     53  SG        53.3170   50.0600  133.9810 S.3    82  CYS82      -0.0800
     54  N         50.3210   49.3170  137.9160 N.am   83  PRO83      -0.2729
     55  CA        49.0250   49.0560  138.5730 C.3    83  PRO83       0.1401
     56  C         48.2900   50.2980  139.0840 C.2    83  PRO83       0.2269
     57  O         47.0780   50.4430  138.8560 O.2    83  PRO83      -0.2865
     58  CB        49.4130   48.1470  139.7410 C.3    83  PRO83       0.0296
     59  CG        50.5840   47.3820  139.2380 C.3    83  PRO83       0.0237
     60  CD        51.3090   48.2730  138.2610 C.3    83  PRO83       0.0939
     61  N         46.7800   52.1920  136.1480 N.3    86  ILE86      -0.1231
     62  CA        45.5310   51.5330  135.7370 C.3    86  ILE86       0.1692
     63  C         44.4140   51.8970  136.7170 C.2    86  ILE86       0.2591
     64  O         43.3450   52.4260  136.3250 O.2    86  ILE86      -0.2718
     65  CB        45.6730   49.9880  135.6890 C.3    86  ILE86       0.0266
     66  CG1       46.7200   49.5620  134.6500 C.3    86  ILE86       0.0019
     67  CG2       44.3280   49.3190  135.3810 C.3    86  ILE86       0.0020
     68  CD1       47.3110   48.1890  134.8930 C.3    86  ILE86       0.0001
     69  N         44.6830   51.6310  137.9950 N.am   87  LEU87      -0.1980
     70  CA        43.6570   51.7520  139.0250 C.3    87  LEU87       0.1596
     71  C         43.1610   53.1870  139.1770 C.2    87  LEU87       0.2287
     72  O         41.9470   53.4170  139.2700 O.2    87  LEU87      -0.2864
     73  CB        44.1630   51.2010  140.3560 C.3    87  LEU87       0.0297
     74  CG        44.4370   49.6950  140.3670 C.3    87  LEU87       0.0022
     75  CD1       45.1760   49.3170  141.6480 C.3    87  LEU87       0.0001
     76  CD2       43.1640   48.8860  140.1870 C.3    87  LEU87       0.0001
     77  N         30.9230   49.7420  132.3700 N.3   125  ILE125     -0.1245
     78  CA        31.9270   49.3720  133.3780 C.3   125  ILE125      0.1561
     79  C         33.1230   48.7180  132.6850 C.2   125  ILE125      0.2260
     80  O         34.2400   49.2350  132.7650 O.2   125  ILE125     -0.2867
     81  CB        31.3470   48.4430  134.4830 C.3   125  ILE125      0.0252
     82  CG1       30.3930   49.2280  135.3920 C.3   125  ILE125      0.0019
     83  CG2       32.4530   47.8200  135.3420 C.3   125  ILE125      0.0019
     84  CD1       29.3960   48.3670  136.1440 C.3   125  ILE125      0.0001
     85  N         37.3820   49.7510  132.5610 N.3   129  TRP129     -0.1241
     86  CA        38.5300   48.8970  132.8580 C.3   129  TRP129      0.1605
     87  C         39.4070   48.6400  131.6330 C.2   129  TRP129      0.2264
     88  O         40.6310   48.7170  131.7330 O.2   129  TRP129     -0.2867
     89  CB        38.0880   47.5790  133.5000 C.3   129  TRP129      0.0550
     90  CG        37.7050   47.7400  134.9380 C.ar  129  TRP129      0.0003
     91  CD1       36.4420   47.8050  135.4450 C.ar  129  TRP129      0.0946
     92  CD2       38.5940   47.8730  136.0490 C.ar  129  TRP129      0.0152
     93  NE1       36.4890   47.9630  136.8100 N.ar  129  TRP129     -0.2442
     94  CE2       37.7990   48.0070  137.2060 C.ar  129  TRP129      0.0810
     95  CE3       39.9870   47.8860  136.1810 C.ar  129  TRP129      0.0012
     96  CZ2       38.3490   48.1510  138.4830 C.ar  129  TRP129      0.0191
     97  CZ3       40.5360   48.0320  137.4590 C.ar  129  TRP129      0.0001
     98  CH2       39.7140   48.1640  138.5890 C.ar  129  TRP129      0.0015
     99  N         43.2000   49.8160  131.5530 N.3   133  PHE133     -0.1241
    100  CA        44.3240   48.9450  131.2010 C.3   133  PHE133      0.1605
    101  C         45.0920   49.5000  129.9950 C.2   133  PHE133      0.2264
    102  O         46.3270   49.5000  130.0060 O.2   133  PHE133     -0.2867
    103  CB        43.8730   47.4940  130.9530 C.3   133  PHE133      0.0534
    104  CG        43.8400   46.6480  132.2000 C.ar  133  PHE133     -0.0203
    105  CD1       45.0190   46.1780  132.7660 C.ar  133  PHE133     -0.0042
    106  CD2       42.6330   46.3100  132.8070 C.ar  133  PHE133     -0.0042
    107  CE1       44.9940   45.3950  133.9120 C.ar  133  PHE133     -0.0003
    108  CE2       42.6030   45.5230  133.9530 C.ar  133  PHE133     -0.0003
    109  CZ        43.7850   45.0660  134.5060 C.ar  133  PHE133     -0.0000
    110  N         48.7610   50.5100  130.9560 N.3   137  LEU137     -0.1245
    111  CA        49.8060   49.6320  130.3910 C.3   137  LEU137      0.1561
    112  C         50.6280   50.2660  129.2650 C.2   137  LEU137      0.2260
    113  O         51.6260   49.6760  128.8570 O.2   137  LEU137     -0.2867
    114  CB        49.2180   48.3030  129.8990 C.3   137  LEU137      0.0270
    115  CG        48.6100   47.3710  130.9430 C.3   137  LEU137      0.0019
    116  CD1       47.9580   46.1800  130.2580 C.3   137  LEU137      0.0001
    117  CD2       49.6650   46.9070  131.9340 C.3   137  LEU137      0.0001
@<TRIPOS>BOND
     1   113   112    2
     2   112   111    1
     3   114   111    1
     4   114   115    1
     5   101   102    2
     6   101   100    1
     7   116   115    1
     8   111   110    1
     9   115   117    1
    10   103   100    1
    11   103   104    1
    12   100    99    1
    13    87    88    2
    14    87    86    1
    15   104   105   ar
    16   104   106   ar
    17    77    78    1
    18    85    86    1
    19    79    80    2
    20    79    78    1
    21   105   107   ar
    22   106   108   ar
    23    86    89    1
    24    78    81    1
    25    89    90    1
    26   107   109   ar
    27   108   109   ar
    28    53    52    1
    29    81    83    1
    30    81    82    1
    31    66    68    1
    32    66    65    1
    33    45    46    1
    34    45    44    1
    35    46    47    1
    36    90    91   ar
    37    90    92   ar
    38    52    49    1
    39    67    65    1
    40    82    84    1
    41    91    93   ar
    42    40    41    1
    43    65    62    1
    44    62    61    1
    45    62    63    1
    46    41    44    1
    47    41    42    1
    48    92    95   ar
    49    92    94   ar
    50    95    97   ar
    51    49    50    1
    52    49    48    1
    53    64    63    2
    54    51    50    2
    55    63    69   am
    56    93    94   ar
    57    50    54   am
    58    43    42    2
    59    94    96   ar
    60    97    98   ar
    61    54    60    1
    62    54    55    1
    63    69    70    1
    64    19    18    1
    65    60    59    1
    66    96    98   ar
    67    55    56    1
    68    55    58    1
    69    57    56    2
    70    18    15    1
    71    70    71    1
    72    70    73    1
    73     5     6    1
    74     5     2    1
    75    71    72    2
    76    59    58    1
    77     4     3    2
    78     3     2    1
    79    76    74    1
    80     2     1    1
    81    73    74    1
    82    74    75    1
    83    15    16    1
    84    15    14    1
    85    16    17    2
    86    14     9   am
    87    25    24    1
    88    39    37    1
    89    24    26    1
    90    24    21    1
    91     9    10    2
    92     9     8    1
    93    11    12    1
    94    11     8    1
    95    11    13    1
    96     7     8    1
    97    31    28    1
    98    37    38    1
    99    37    36    1
   100    22    21    1
   101    22    23    2
   102    21    20    1
   103    36    33    1
   104    28    29    1
   105    28    27    1
   106    29    30    2
   107    34    33    1
   108    34    35    2
   109    33    32    1
