@<TRIPOS>MOLECULE
tmp/5uenA01.pdb
 83 80 0 0 0
SMALL
GASTEIGER

@<TRIPOS>ATOM
      1  N         26.3800   50.2320  141.1060 N.3    43  CYS43      -0.1235
      2  CA        27.1990   49.3410  140.2650 C.3    43  CYS43       0.1677
      3  C         28.5410   49.9580  139.8290 C.2    43  CYS43       0.2270
      4  O         29.5320   49.2410  139.6760 O.2    43  CYS43      -0.2867
      5  CB        26.4060   48.8860  139.0380 C.3    43  CYS43       0.0956
      6  SG        24.8770   48.0150  139.4560 S.3    43  CYS43      -0.0801
      7  N         26.9210   47.4300  132.5790 N.3   122  ALA122     -0.1245
      8  CA        28.0150   46.4500  132.6000 C.3   122  ALA122      0.1562
      9  C         29.0240   46.6850  131.4690 C.2   122  ALA122      0.2260
     10  O         30.2460   46.6740  131.7030 O.2   122  ALA122     -0.2867
     11  CB        27.4620   45.0330  132.5360 C.3   122  ALA122      0.0290
     12  N         30.9230   49.7420  132.3700 N.3   125  ILE125     -0.1231
     13  CA        31.9270   49.3720  133.3780 C.3   125  ILE125      0.1692
     14  C         33.1230   48.7180  132.6850 C.2   125  ILE125      0.2591
     15  O         34.2400   49.2350  132.7650 O.2   125  ILE125     -0.2718
     16  CB        31.3470   48.4430  134.4830 C.3   125  ILE125      0.0266
     17  CG1       30.3930   49.2280  135.3920 C.3   125  ILE125      0.0019
     18  CG2       32.4530   47.8200  135.3420 C.3   125  ILE125      0.0020
     19  CD1       29.3960   48.3670  136.1440 C.3   125  ILE125      0.0001
     20  N         32.8730   47.6140  131.9780 N.am  126  ALA126     -0.1980
     21  CA        33.9420   46.8870  131.2680 C.3   126  ALA126      0.1597
     22  C         34.8260   47.8170  130.4210 C.2   126  ALA126      0.2287
     23  O         36.0680   47.7160  130.4530 O.2   126  ALA126     -0.2864
     24  CB        33.3480   45.7900  130.4000 C.3   126  ALA126      0.0319
     25  N         37.3820   49.7510  132.5610 N.3   129  TRP129     -0.1227
     26  CA        38.5300   48.8970  132.8580 C.3   129  TRP129      0.1737
     27  C         39.4070   48.6400  131.6330 C.2   129  TRP129      0.2595
     28  O         40.6310   48.7170  131.7330 O.2   129  TRP129     -0.2718
     29  CB        38.0880   47.5790  133.5000 C.3   129  TRP129      0.0564
     30  CG        37.7050   47.7400  134.9380 C.ar  129  TRP129      0.0003
     31  CD1       36.4420   47.8050  135.4450 C.ar  129  TRP129      0.0946
     32  CD2       38.5940   47.8730  136.0490 C.ar  129  TRP129      0.0152
     33  NE1       36.4890   47.9630  136.8100 N.ar  129  TRP129     -0.2442
     34  CE2       37.7990   48.0070  137.2060 C.ar  129  TRP129      0.0810
     35  CE3       39.9870   47.8860  136.1810 C.ar  129  TRP129      0.0012
     36  CZ2       38.3490   48.1510  138.4830 C.ar  129  TRP129      0.0191
     37  CZ3       40.5360   48.0320  137.4590 C.ar  129  TRP129      0.0001
     38  CH2       39.7140   48.1640  138.5890 C.ar  129  TRP129      0.0015
     39  N         38.7950   48.3630  130.4830 N.am  130  ILE130     -0.1980
     40  CA        39.5750   48.1520  129.2480 C.3   130  ILE130      0.1595
     41  C         40.4310   49.3910  128.9530 C.2   130  ILE130      0.2287
     42  O         41.6680   49.2940  128.8260 O.2   130  ILE130     -0.2864
     43  CB        38.6700   47.8050  128.0400 C.3   130  ILE130      0.0276
     44  CG1       38.0010   46.4370  128.2450 C.3   130  ILE130      0.0022
     45  CG2       39.4640   47.7860  126.7330 C.3   130  ILE130      0.0022
     46  CD1       36.6800   46.2970  127.5210 C.3   130  ILE130      0.0001
     47  N         43.2000   49.8160  131.5530 N.3   133  PHE133     -0.1227
     48  CA        44.3240   48.9450  131.2010 C.3   133  PHE133      0.1736
     49  C         45.0920   49.5000  129.9950 C.2   133  PHE133      0.2595
     50  O         46.3270   49.5000  130.0060 O.2   133  PHE133     -0.2718
     51  CB        43.8730   47.4940  130.9530 C.3   133  PHE133      0.0547
     52  CG        43.8400   46.6480  132.2000 C.ar  133  PHE133     -0.0202
     53  CD1       45.0190   46.1780  132.7660 C.ar  133  PHE133     -0.0042
     54  CD2       42.6330   46.3100  132.8070 C.ar  133  PHE133     -0.0042
     55  CE1       44.9940   45.3950  133.9120 C.ar  133  PHE133     -0.0003
     56  CE2       42.6030   45.5230  133.9530 C.ar  133  PHE133     -0.0003
     57  CZ        43.7850   45.0660  134.5060 C.ar  133  PHE133     -0.0000
     58  N         44.3760   50.0000  128.9810 N.am  134  VAL134     -0.1980
     59  CA        45.0430   50.6250  127.8240 C.3   134  VAL134      0.1595
     60  C         45.9340   51.7970  128.2560 C.2   134  VAL134      0.2287
     61  O         47.1230   51.8350  127.9090 O.2   134  VAL134     -0.2864
     62  CB        44.0370   51.0710  126.7240 C.3   134  VAL134      0.0276
     63  CG1       44.6890   51.9930  125.6920 C.3   134  VAL134      0.0022
     64  CG2       43.4400   49.8560  126.0250 C.3   134  VAL134      0.0022
     65  N         48.7610   50.5100  130.9560 N.3   137  LEU137     -0.1245
     66  CA        49.8060   49.6320  130.3910 C.3   137  LEU137      0.1561
     67  C         50.6280   50.2660  129.2650 C.2   137  LEU137      0.2260
     68  O         51.6260   49.6760  128.8570 O.2   137  LEU137     -0.2867
     69  CB        49.2180   48.3030  129.8990 C.3   137  LEU137      0.0270
     70  CG        48.6100   47.3710  130.9430 C.3   137  LEU137      0.0019
     71  CD1       47.9580   46.1800  130.2580 C.3   137  LEU137      0.0001
     72  CD2       49.6650   46.9070  131.9340 C.3   137  LEU137      0.0001
     73  N         54.1920   49.0650  127.0040 N.3   141  PHE141     -0.1241
     74  CA        54.3550   48.8790  125.5530 C.3   141  PHE141      0.1605
     75  C         55.6290   49.5280  124.9940 C.2   141  PHE141      0.2264
     76  O         56.0910   49.1200  123.9270 O.2   141  PHE141     -0.2867
     77  CB        53.1400   49.3940  124.7560 C.3   141  PHE141      0.0534
     78  CG        51.8090   48.7930  125.1630 C.ar  141  PHE141     -0.0203
     79  CD1       51.7000   47.4690  125.6230 C.ar  141  PHE141     -0.0042
     80  CD2       50.6380   49.5600  125.0480 C.ar  141  PHE141     -0.0042
     81  CE1       50.4600   46.9460  125.9770 C.ar  141  PHE141     -0.0003
     82  CE2       49.4000   49.0340  125.3980 C.ar  141  PHE141     -0.0003
     83  CZ        49.3100   47.7250  125.8530 C.ar  141  PHE141     -0.0000
@<TRIPOS>BOND
     1    76    75    2
     2    77    78    1
     3    77    74    1
     4    75    74    1
     5    80    78   ar
     6    80    82   ar
     7    78    79   ar
     8    82    83   ar
     9    74    73    1
    10    79    81   ar
    11    63    62    1
    12    83    81   ar
    13    64    62    1
    14    62    59    1
    15    45    43    1
    16    46    44    1
    17    59    60    1
    18    59    58    1
    19    61    60    2
    20    43    44    1
    21    43    40    1
    22    42    41    2
    23    68    67    2
    24    41    40    1
    25    58    49   am
    26    40    39    1
    27    67    66    1
    28    69    66    1
    29    69    70    1
    30    49    50    2
    31    49    48    1
    32    71    70    1
    33    66    65    1
    34    24    21    1
    35    22    23    2
    36    22    21    1
    37    39    27   am
    38    70    72    1
    39    51    48    1
    40    51    52    1
    41    48    47    1
    42    21    20    1
    43     9    10    2
    44     9     8    1
    45    27    28    2
    46    27    26    1
    47    20    14   am
    48    52    53   ar
    49    52    54   ar
    50    12    13    1
    51    11     8    1
    52    25    26    1
    53     7     8    1
    54    14    15    2
    55    14    13    1
    56    53    55   ar
    57    54    56   ar
    58    26    29    1
    59    13    16    1
    60    29    30    1
    61    55    57   ar
    62    56    57   ar
    63    16    18    1
    64    16    17    1
    65    30    31   ar
    66    30    32   ar
    67    17    19    1
    68    31    33   ar
    69    32    35   ar
    70    32    34   ar
    71    35    37   ar
    72    33    34   ar
    73    34    36   ar
    74    37    38   ar
    75    36    38   ar
    76     5     6    1
    77     5     2    1
    78     4     3    2
    79     3     2    1
    80     2     1    1
