@<TRIPOS>MOLECULE
tmp/5uenA04.pdb
 98 94 0 0 0
SMALL
GASTEIGER

@<TRIPOS>ATOM
      1  N         65.4480   53.5720  159.4340 N.3     3  SER3       -0.1217
      2  CA        65.2500   54.9520  159.8770 C.3     3  SER3        0.1889
      3  C         63.8250   55.1840  160.3900 C.2     3  SER3        0.2288
      4  O         62.8530   54.6660  159.8230 O.2     3  SER3       -0.2866
      5  CB        65.5530   55.9080  158.7140 C.3     3  SER3        0.2089
      6  OG        65.3160   57.2580  159.0590 O.3     3  SER3       -0.2183
      7  N         61.9750   57.7270  160.1010 N.3     5  PHE5       -0.1227
      8  CA        61.2150   58.2590  158.9730 C.3     5  PHE5        0.1736
      9  C         60.6850   57.1420  158.0710 C.2     5  PHE5        0.2595
     10  O         59.5190   57.1600  157.6750 O.2     5  PHE5       -0.2718
     11  CB        62.0780   59.2290  158.1360 C.3     5  PHE5        0.0547
     12  CG        62.2770   60.6170  158.7200 C.ar    5  PHE5       -0.0202
     13  CD1       61.6680   61.0630  159.9030 C.ar    5  PHE5       -0.0042
     14  CD2       63.0740   61.5180  158.0170 C.ar    5  PHE5       -0.0042
     15  CE1       61.8850   62.3470  160.3660 C.ar    5  PHE5       -0.0003
     16  CE2       63.2900   62.8080  158.4800 C.ar    5  PHE5       -0.0003
     17  CZ        62.6950   63.2230  159.6560 C.ar    5  PHE5       -0.0000
     18  N         61.5400   56.1780  157.7520 N.am    6  GLN6       -0.1979
     19  CA        61.1510   55.0090  156.9530 C.3     6  GLN6        0.1601
     20  C         60.0740   54.1860  157.6630 C.2     6  GLN6        0.2287
     21  O         59.0710   53.7760  157.0470 O.2     6  GLN6       -0.2864
     22  CB        62.3680   54.1310  156.6320 C.3     6  GLN6        0.0394
     23  CG        62.1560   53.2210  155.4320 C.3     6  GLN6        0.0908
     24  CD        63.3400   52.3140  155.1460 C.2     6  GLN6        0.2608
     25  OE1       64.4250   52.4740  155.7120 O.2     6  GLN6       -0.2717
     26  NE2       63.1330   51.3500  154.2510 N.am    6  GLN6       -0.0878
     27  N         58.0450   55.4380  159.8750 N.3     8  ALA8       -0.1231
     28  CA        56.8520   56.2960  159.8020 C.3     8  ALA8        0.1694
     29  C         56.1280   56.1850  158.4520 C.2     8  ALA8        0.2592
     30  O         54.9000   56.0550  158.4110 O.2     8  ALA8       -0.2718
     31  CB        57.2170   57.7440  160.0890 C.3     8  ALA8        0.0304
     32  N         56.8930   56.2410  157.3620 N.am    9  TYR9       -0.1976
     33  CA        56.3550   56.0090  156.0160 C.3     9  TYR9        0.1639
     34  C         55.6410   54.6570  155.9390 C.2     9  TYR9        0.2290
     35  O         54.4460   54.5890  155.5820 O.2     9  TYR9       -0.2864
     36  CB        57.4680   56.0930  154.9540 C.3     9  TYR9        0.0560
     37  CG        57.0740   55.5290  153.6050 C.ar    9  TYR9       -0.0198
     38  CD1       56.1990   56.2200  152.7680 C.ar    9  TYR9       -0.0009
     39  CD2       57.5650   54.2920  153.1700 C.ar    9  TYR9       -0.0009
     40  CE1       55.8260   55.7000  151.5350 C.ar    9  TYR9        0.0417
     41  CE2       57.1950   53.7660  151.9390 C.ar    9  TYR9        0.0417
     42  CZ        56.3320   54.4710  151.1270 C.ar    9  TYR9        0.1957
     43  OH        55.9650   53.9460  149.9150 O.3     9  TYR9       -0.2866
     44  N         52.4820   54.6560  158.2010 N.3    12  ILE12      -0.1245
     45  CA        51.4020   55.4500  157.6000 C.3    12  ILE12       0.1561
     46  C         50.8050   54.7160  156.3940 C.2    12  ILE12       0.2260
     47  O         49.5710   54.6310  156.2640 O.2    12  ILE12      -0.2867
     48  CB        51.8850   56.8770  157.2360 C.3    12  ILE12       0.0252
     49  CG1       52.1570   57.6730  158.5240 C.3    12  ILE12       0.0019
     50  CG2       50.8640   57.6200  156.3740 C.3    12  ILE12       0.0019
     51  CD1       53.0920   58.8500  158.3460 C.3    12  ILE12       0.0001
     52  N         60.3710   50.1340  148.7050 N.3    67  ASN67      -0.1240
     53  CA        61.0370   51.0220  149.6650 C.3    67  ASN67       0.1653
     54  C         62.0790   50.2850  150.5080 C.2    67  ASN67       0.2266
     55  O         63.2340   50.7160  150.5880 O.2    67  ASN67      -0.2867
     56  CB        60.0100   51.6960  150.5830 C.3    67  ASN67       0.1155
     57  CG        60.6400   52.7130  151.5230 C.2    67  ASN67       0.2627
     58  OD1       60.8020   52.4550  152.7160 O.2    67  ASN67      -0.2716
     59  ND2       61.0060   53.8680  150.9860 N.am   67  ASN67      -0.0877
     60  N         58.8290   66.8510  151.8380 N.3   336  ILE336     -0.1245
     61  CA        57.5700   66.7450  152.5930 C.3   336  ILE336      0.1561
     62  C         56.3630   66.9820  151.6800 C.2   336  ILE336      0.2260
     63  O         55.3650   66.2550  151.7650 O.2   336  ILE336     -0.2867
     64  CB        57.5460   67.6860  153.8360 C.3   336  ILE336      0.0252
     65  CG1       56.4310   67.2990  154.8250 C.3   336  ILE336      0.0019
     66  CG2       57.4220   69.1520  153.4410 C.3   336  ILE336      0.0019
     67  CD1       56.6950   66.0260  155.6060 C.3   336  ILE336      0.0001
     68  N         55.9460   63.9300  149.6490 N.3   339  TYR339     -0.1227
     69  CA        55.4560   62.8350  150.4890 C.3   339  TYR339      0.1736
     70  C         53.9740   62.9820  150.8660 C.2   339  TYR339      0.2595
     71  O         53.2300   62.0020  150.7810 O.2   339  TYR339     -0.2718
     72  CB        56.3350   62.6510  151.7440 C.3   339  TYR339      0.0548
     73  CG        57.4950   61.6800  151.5670 C.ar  339  TYR339     -0.0200
     74  CD1       57.2680   60.3080  151.5240 C.ar  339  TYR339     -0.0009
     75  CD2       58.8170   62.1270  151.4600 C.ar  339  TYR339     -0.0009
     76  CE1       58.3150   59.4050  151.3760 C.ar  339  TYR339      0.0417
     77  CE2       59.8740   61.2340  151.3050 C.ar  339  TYR339      0.0417
     78  CZ        59.6190   59.8710  151.2510 C.ar  339  TYR339      0.1957
     79  OH        60.6540   58.9560  151.1260 O.3   339  TYR339     -0.2866
     80  N         53.5440   64.1830  151.2680 N.am  340  ILE340     -0.1980
     81  CA        52.1100   64.4060  151.5790 C.3   340  ILE340      0.1595
     82  C         51.2040   64.2460  150.3490 C.2   340  ILE340      0.2287
     83  O         50.0750   63.7510  150.4620 O.2   340  ILE340     -0.2864
     84  CB        51.8210   65.7670  152.2800 C.3   340  ILE340      0.0276
     85  CG1       52.0750   66.9600  151.3470 C.3   340  ILE340      0.0022
     86  CG2       52.5970   65.8770  153.5940 C.3   340  ILE340      0.0022
     87  CD1       52.0000   68.3080  152.0360 C.3   340  ILE340      0.0001
     88  N         50.9840   60.5100  150.0250 N.3   343  PHE343     -0.1241
     89  CA        50.0820   60.0430  151.0820 C.3   343  PHE343      0.1605
     90  C         48.6180   60.3740  150.7880 C.2   343  PHE343      0.2264
     91  O         47.7370   59.5670  151.0960 O.2   343  PHE343     -0.2867
     92  CB        50.4700   60.6090  152.4620 C.3   343  PHE343      0.0534
     93  CG        51.7360   60.0220  153.0460 C.ar  343  PHE343     -0.0203
     94  CD1       51.9570   58.6390  153.0650 C.ar  343  PHE343     -0.0042
     95  CD2       52.6960   60.8550  153.6200 C.ar  343  PHE343     -0.0042
     96  CE1       53.1190   58.1130  153.6100 C.ar  343  PHE343     -0.0003
     97  CE2       53.8560   60.3310  154.1700 C.ar  343  PHE343     -0.0003
     98  CZ        54.0660   58.9600  154.1680 C.ar  343  PHE343     -0.0000
@<TRIPOS>BOND
     1    52    53    1
     2    68    69    1
     3    53    54    1
     4    53    56    1
     5    43    42    1
     6    88    89    1
     7    82    83    2
     8    82    81    1
     9    69    70    1
    10    69    72    1
    11    54    55    2
    12    56    57    1
    13    71    70    2
    14    90    89    1
    15    90    91    2
    16    70    80   am
    17    59    57   am
    18    89    92    1
    19    79    78    1
    20    42    40   ar
    21    42    41   ar
    22    78    77   ar
    23    78    76   ar
    24    80    81    1
    25    77    75   ar
    26    85    87    1
    27    85    84    1
    28    76    74   ar
    29    75    73   ar
    30    57    58    2
    31    74    73   ar
    32    40    38   ar
    33    73    72    1
    34    81    84    1
    35    62    63    2
    36    62    61    1
    37    60    61    1
    38    41    39   ar
    39    84    86    1
    40    92    93    1
    41    61    64    1
    42    38    37   ar
    43    93    94   ar
    44    93    95   ar
    45    94    96   ar
    46    39    37   ar
    47    66    64    1
    48    37    36    1
    49    96    98   ar
    50    95    97   ar
    51    64    65    1
    52    98    97   ar
    53    26    24   am
    54    65    67    1
    55    36    33    1
    56    24    23    1
    57    24    25    2
    58    23    22    1
    59    35    34    2
    60    34    33    1
    61    33    32    1
    62    47    46    2
    63    50    48    1
    64    46    45    1
    65    22    19    1
    66    19    20    1
    67    19    18    1
    68    21    20    2
    69    48    45    1
    70    48    49    1
    71    32    29   am
    72    45    44    1
    73    10     9    2
    74    18     9   am
    75    14    16   ar
    76    14    12   ar
    77     9     8    1
    78    11    12    1
    79    11     8    1
    80    51    49    1
    81    30    29    2
    82    29    28    1
    83    16    17   ar
    84     5     6    1
    85     5     2    1
    86    12    13   ar
    87     8     7    1
    88     1     2    1
    89    17    15   ar
    90    28    27    1
    91    28    31    1
    92     4     3    2
    93     2     3    1
    94    13    15   ar
