@<TRIPOS>MOLECULE
tmp/5ueoB00.pdb
 171 171 0 0 0
SMALL
GASTEIGER

@<TRIPOS>ATOM
      1  N          1.2870  -39.8170    5.7100 N.3    26  TRP26      -0.1228
      2  CA         0.9980  -41.2300    5.4540 C.3    26  TRP26       0.1722
      3  C         -0.3280  -41.7650    6.0740 C.2    26  TRP26       0.2437
      4  O         -0.9880  -42.5490    5.3770 O.2    26  TRP26      -0.2733
      5  CB         2.1890  -42.1440    5.7920 C.3    26  TRP26       0.0563
      6  CG         2.4430  -42.3580    7.2610 C.ar   26  TRP26       0.0003
      7  CD1        3.3400  -41.6970    8.0440 C.ar   26  TRP26       0.0946
      8  CD2        1.7880  -43.3100    8.1120 C.ar   26  TRP26       0.0152
      9  NE1        3.2780  -42.1700    9.3400 N.ar   26  TRP26      -0.2442
     10  CE2        2.3530  -43.1780    9.4020 C.ar   26  TRP26       0.0810
     11  CE3        0.7810  -44.2730    7.9050 C.ar   26  TRP26       0.0012
     12  CZ2        1.9400  -43.9640   10.4850 C.ar   26  TRP26       0.0191
     13  CZ3        0.3600  -45.0460    8.9860 C.ar   26  TRP26       0.0001
     14  CH2        0.9290  -44.8750   10.2630 C.ar   26  TRP26       0.0015
     15  N         -0.8130  -41.3500    7.2900 N.am   27  PRO27      -0.2718
     16  CA        -2.0810  -41.9130    7.7850 C.3    27  PRO27       0.1535
     17  C         -3.2880  -41.4610    6.9640 C.2    27  PRO27       0.2599
     18  O         -4.3660  -42.0130    7.1310 O.2    27  PRO27      -0.2715
     19  CB        -2.1730  -41.3680    9.2230 C.3    27  PRO27       0.0310
     20  CG        -0.7970  -41.0010    9.5740 C.3    27  PRO27       0.0237
     21  CD        -0.2220  -40.4550    8.3030 C.3    27  PRO27       0.0939
     22  N         -3.1110  -40.4480    6.1030 N.am   28  PHE28      -0.1960
     23  CA        -4.2040  -39.8640    5.2920 C.3    28  PHE28       0.1771
     24  C         -4.2250  -40.3500    3.8450 C.2    28  PHE28       0.2620
     25  O         -5.1300  -39.9850    3.0970 O.2    28  PHE28      -0.2715
     26  CB        -4.1220  -38.3210    5.3390 C.3    28  PHE28       0.0574
     27  CG        -4.1320  -37.8550    6.7800 C.ar   28  PHE28      -0.0200
     28  CD1       -5.3200  -37.8160    7.5040 C.ar   28  PHE28      -0.0042
     29  CD2       -2.9420  -37.5520    7.4360 C.ar   28  PHE28      -0.0042
     30  CE1       -5.3240  -37.4490    8.8450 C.ar   28  PHE28      -0.0003
     31  CE2       -2.9480  -37.1850    8.7800 C.ar   28  PHE28      -0.0003
     32  CZ        -4.1340  -37.1640    9.4810 C.ar   28  PHE28      -0.0000
     33  N         -3.2410  -41.1890    3.4640 N.am   29  TYR29      -0.1960
     34  CA        -3.1210  -41.7090    2.0950 C.3    29  TYR29       0.1771
     35  C         -4.2980  -42.5710    1.6280 C.2    29  TYR29       0.2619
     36  O         -4.5470  -42.6190    0.4290 O.2    29  TYR29      -0.2715
     37  CB        -1.8180  -42.5270    1.9410 C.3    29  TYR29       0.0574
     38  CG        -0.5080  -41.7640    1.9050 C.ar   29  TYR29      -0.0198
     39  CD1       -0.4820  -40.3710    1.8720 C.ar   29  TYR29      -0.0009
     40  CD2        0.7120  -42.4390    1.8400 C.ar   29  TYR29      -0.0009
     41  CE1        0.7230  -39.6690    1.8260 C.ar   29  TYR29       0.0417
     42  CE2        1.9210  -41.7470    1.8150 C.ar   29  TYR29       0.0417
     43  CZ         1.9230  -40.3650    1.7900 C.ar   29  TYR29       0.1957
     44  OH         3.1120  -39.6920    1.7310 O.3    29  TYR29      -0.2866
     45  N         -4.9550  -43.3110    2.5420 N.am   30  LYS30      -0.1964
     46  CA        -6.0340  -44.2490    2.2420 C.3    30  LYS30       0.1713
     47  C         -7.1370  -44.1480    3.3030 C.2    30  LYS30       0.2458
     48  O         -6.8930  -43.5640    4.3630 O.2    30  LYS30      -0.2730
     49  CB        -5.4840  -45.7150    2.2280 C.3    30  LYS30       0.0311
     50  CG        -4.2680  -46.0030    1.3190 C.3    30  LYS30       0.0038
     51  CD        -4.5430  -46.3950   -0.1900 C.3    30  LYS30       0.0206
     52  CE        -5.5340  -47.5120   -0.4110 C.3    30  LYS30       0.1093
     53  NZ        -5.9950  -47.5490   -1.8250 N.3    30  LYS30      -0.1314
     54  N         -8.3610  -44.7120    3.0700 N.am   31  PRO31      -0.2716
     55  CA        -9.4050  -44.6320    4.1000 C.3    31  PRO31       0.1536
     56  C         -8.9500  -45.2110    5.4290 C.2    31  PRO31       0.2598
     57  O         -8.1300  -46.1290    5.4540 O.2    31  PRO31      -0.2715
     58  CB       -10.5450  -45.4870    3.5290 C.3    31  PRO31       0.0310
     59  CG       -10.3290  -45.4880    2.0590 C.3    31  PRO31       0.0237
     60  CD        -8.8450  -45.4400    1.8670 C.3    31  PRO31       0.0939
     61  N         -9.4520  -44.6400    6.5270 N.am   32  VAL32      -0.1964
     62  CA        -9.1600  -45.1090    7.8900 C.3    32  VAL32       0.1727
     63  C         -9.6640  -46.5610    7.9310 C.2    32  VAL32       0.2616
     64  O        -10.8190  -46.8070    7.5800 O.2    32  VAL32      -0.2715
     65  CB        -9.8900  -44.2420    8.9570 C.3    32  VAL32       0.0290
     66  CG1       -9.7670  -44.8620   10.3600 C.3    32  VAL32       0.0023
     67  CG2       -9.3810  -42.7970    8.9370 C.3    32  VAL32       0.0023
     68  N         -8.7790  -47.5050    8.2790 N.am   33  ASP33      -0.1971
     69  CA        -9.1170  -48.9310    8.3660 C.3    33  ASP33       0.1709
     70  C         -9.6850  -49.1900    9.7640 C.2    33  ASP33       0.2293
     71  O         -8.9560  -49.5950   10.6790 O.2    33  ASP33      -0.2864
     72  CB        -7.8710  -49.7830    8.0710 C.3    33  ASP33       0.1436
     73  CG        -8.1630  -51.2640    7.8560 C.2    33  ASP33       0.3671
     74  OD1       -9.2090  -51.7490    8.3570 O.co2  33  ASP33      -0.2456
     75  OD2       -7.3330  -51.9430    7.2230 O.co2  33  ASP33      -0.2456
     76  N         -7.6970  -50.9800   12.9960 N.3    37  LEU37      -0.1245
     77  CA        -7.3810  -50.0520   14.0770 C.3    37  LEU37       0.1561
     78  C         -8.2610  -50.2470   15.3220 C.2    37  LEU37       0.2260
     79  O         -7.9810  -49.6460   16.3580 O.2    37  LEU37      -0.2867
     80  CB        -7.4690  -48.5900   13.5700 C.3    37  LEU37       0.0270
     81  CG        -6.4600  -48.1900   12.4920 C.3    37  LEU37       0.0019
     82  CD1       -6.8520  -46.8720   11.8280 C.3    37  LEU37       0.0001
     83  CD2       -5.0720  -48.1150   13.0550 C.3    37  LEU37       0.0001
     84  N        -11.4270  -49.2000   15.7710 N.3    39  LEU39      -0.1245
     85  CA       -12.1780  -47.9770   16.0550 C.3    39  LEU39       0.1561
     86  C        -13.6480  -48.3050   15.8450 C.2    39  LEU39       0.2260
     87  O        -14.2470  -47.9230   14.8400 O.2    39  LEU39      -0.2867
     88  CB       -11.7060  -46.8030   15.1430 C.3    39  LEU39       0.0270
     89  CG       -10.1960  -46.4960   15.0810 C.3    39  LEU39       0.0019
     90  CD1       -9.9040  -45.4200   14.0660 C.3    39  LEU39       0.0001
     91  CD2       -9.6310  -46.0900   16.4620 C.3    39  LEU39       0.0001
     92  N        -16.0870  -45.3620   15.1260 N.3    42  TYR42      -0.1241
     93  CA       -15.6910  -44.4170   14.0710 C.3    42  TYR42       0.1605
     94  C        -16.8330  -44.0440   13.1080 C.2    42  TYR42       0.2264
     95  O        -17.0710  -42.8590   12.9060 O.2    42  TYR42      -0.2867
     96  CB       -14.4590  -44.9190   13.3060 C.3    42  TYR42       0.0534
     97  CG       -13.8440  -43.8540   12.4240 C.ar   42  TYR42      -0.0201
     98  CD1      -12.9110  -42.9550   12.9320 C.ar   42  TYR42      -0.0009
     99  CD2      -14.2510  -43.6980   11.1000 C.ar   42  TYR42      -0.0009
    100  CE1      -12.3790  -41.9440   12.1370 C.ar   42  TYR42       0.0417
    101  CE2      -13.7290  -42.6910   10.2980 C.ar   42  TYR42       0.0417
    102  CZ       -12.7870  -41.8240   10.8160 C.ar   42  TYR42       0.1957
    103  OH       -12.2850  -40.8350   10.0160 O.3    42  TYR42      -0.2866
    104  N        -11.6700  -34.3380    5.3560 N.3    77  MET77      -0.1245
    105  CA       -10.6850  -35.3350    5.8110 C.3    77  MET77       0.1570
    106  C        -10.0510  -34.8620    7.1340 C.2    77  MET77       0.2261
    107  O        -10.0040  -35.6250    8.1010 O.2    77  MET77      -0.2867
    108  CB        -9.5920  -35.5050    4.7410 C.3    77  MET77       0.0387
    109  CG        -8.4630  -36.4120    5.1630 C.3    77  MET77       0.0595
    110  SD        -7.3040  -36.6080    3.7860 S.3    77  MET77      -0.1393
    111  CE        -6.3850  -35.1100    3.8900 C.3    77  MET77       0.0692
    112  N        -10.7650  -36.0360   11.3970 N.3    81  CYS81      -0.1235
    113  CA        -9.6470  -36.3500   12.2840 C.3    81  CYS81       0.1677
    114  C         -9.7310  -35.5070   13.5680 C.2    81  CYS81       0.2270
    115  O         -9.6580  -36.0570   14.6650 O.2    81  CYS81      -0.2867
    116  CB        -8.3200  -36.1430   11.5560 C.3    81  CYS81       0.0956
    117  SG        -6.8880  -36.6980   12.5130 S.3    81  CYS81      -0.0801
    118  N        -13.1160  -36.7710   15.6120 N.3    84  TYR84      -0.1227
    119  CA       -13.0600  -38.0980   16.1960 C.3    84  TYR84       0.1736
    120  C        -12.1040  -38.2360   17.3830 C.2    84  TYR84       0.2595
    121  O        -12.4560  -38.8690   18.3850 O.2    84  TYR84      -0.2718
    122  CB       -12.7470  -39.1580   15.1270 C.3    84  TYR84       0.0548
    123  CG       -12.7490  -40.5590   15.7020 C.ar   84  TYR84      -0.0200
    124  CD1      -13.9460  -41.1980   16.0350 C.ar   84  TYR84      -0.0009
    125  CD2      -11.5600  -41.2210   15.9690 C.ar   84  TYR84      -0.0009
    126  CE1      -13.9510  -42.4680   16.6130 C.ar   84  TYR84       0.0417
    127  CE2      -11.5540  -42.4690   16.5790 C.ar   84  TYR84       0.0417
    128  CZ       -12.7530  -43.0930   16.8830 C.ar   84  TYR84       0.1957
    129  OH       -12.7510  -44.3440   17.4370 O.3    84  TYR84      -0.2866
    130  N        -10.8750  -37.7460   17.2140 N.am   85  ASN85      -0.1974
    131  CA        -9.7810  -37.9280   18.1600 C.3    85  ASN85       0.1688
    132  C         -9.6910  -36.9020   19.2430 C.2    85  ASN85       0.2292
    133  O         -9.9620  -35.7230   18.9890 O.2    85  ASN85      -0.2864
    134  CB        -8.4510  -37.9560   17.4020 C.3    85  ASN85       0.1181
    135  CG        -8.4270  -39.0010   16.3320 C.2    85  ASN85       0.2629
    136  OD1       -8.4130  -40.1940   16.6100 O.2    85  ASN85      -0.2716
    137  ND2       -8.5220  -38.5720   15.0830 N.am   85  ASN85      -0.0877
    138  N         -4.0220  -36.2850   20.5170 N.3    89  HIS89      -0.1226
    139  CA        -3.6500  -37.4460   19.6990 C.3    89  HIS89       0.1752
    140  C         -2.5530  -37.0860   18.6920 C.2    89  HIS89       0.2596
    141  O         -2.6410  -36.0390   18.0550 O.2    89  HIS89      -0.2718
    142  CB        -4.8970  -38.0350   18.9880 C.3    89  HIS89       0.0759
    143  CG        -4.7520  -39.4610   18.5880 C.ar   89  HIS89       0.0818
    144  ND1       -3.8300  -39.8540   17.6360 N.ar   89  HIS89      -0.2268
    145  CD2       -5.4580  -40.5430   18.9890 C.ar   89  HIS89       0.1154
    146  CE1       -3.9750  -41.1620   17.5180 C.ar   89  HIS89       0.1986
    147  NE2       -4.9470  -41.6230   18.3070 N.ar   89  HIS89      -0.2212
    148  N         -1.5380  -37.9610   18.5240 N.am   90  GLU90      -0.1965
    149  CA        -0.4690  -37.7170   17.5450 C.3    90  GLU90       0.1733
    150  C         -0.9990  -37.6040   16.0970 C.2    90  GLU90       0.2616
    151  O         -0.4370  -36.8390   15.3040 O.2    90  GLU90      -0.2715
    152  CB         0.6020  -38.8200   17.5920 C.3    90  GLU90       0.0429
    153  CG         1.8490  -38.5510   16.7280 C.3    90  GLU90       0.1163
    154  CD         2.5010  -37.1680   16.6830 C.2    90  GLU90       0.3649
    155  OE1        2.3770  -36.3960   17.6600 O.co2  90  GLU90      -0.2457
    156  OE2        3.1740  -36.8710   15.6720 O.co2  90  GLU90      -0.2457
    157  N         -2.0580  -38.3440   15.7520 N.am   91  VAL91      -0.1977
    158  CA        -2.5760  -38.2700   14.3740 C.3    91  VAL91       0.1596
    159  C         -3.1800  -36.8720   14.0840 C.2    91  VAL91       0.2287
    160  O         -3.1270  -36.4170   12.9500 O.2    91  VAL91      -0.2864
    161  CB        -3.5230  -39.4510   14.0160 C.3    91  VAL91       0.0276
    162  CG1       -4.9500  -39.2440   14.5450 C.3    91  VAL91       0.0022
    163  CG2       -3.5010  -39.7190   12.5030 C.3    91  VAL91       0.0022
    164  N         -0.2840  -34.6720   13.2010 N.3    94  MET94      -0.1245
    165  CA         0.1020  -34.9640   11.8060 C.3    94  MET94       0.1570
    166  C         -0.8900  -34.3030   10.8300 C.2    94  MET94       0.2261
    167  O         -0.4540  -33.7180    9.8360 O.2    94  MET94      -0.2867
    168  CB         0.1750  -36.4750   11.5840 C.3    94  MET94       0.0387
    169  CG         1.3070  -37.1200   12.3730 C.3    94  MET94       0.0595
    170  SD         1.1040  -38.9020   12.5140 S.3    94  MET94      -0.1393
    171  CE         1.9580  -39.3780   11.1170 C.3    94  MET94       0.0692
@<TRIPOS>BOND
     1    53    52    1
     2    52    51    1
     3    51    50    1
     4    36    35    2
     5    50    49    1
     6    35    34    1
     7    35    45   am
     8    44    43    1
     9    43    42   ar
    10    43    41   ar
    11    42    40   ar
    12    41    39   ar
    13    40    38   ar
    14    60    59    1
    15    60    54    1
    16    39    38   ar
    17    38    37    1
    18    37    34    1
    19    59    58    1
    20    34    33    1
    21    49    46    1
    22    46    45    1
    23    46    47    1
    24    54    47   am
    25    54    55    1
    26    25    24    2
    27    47    48    2
    28    33    24   am
    29    58    55    1
    30   110   111    1
    31   110   109    1
    32    24    23    1
    33    55    56    1
    34   108   109    1
    35   108   105    1
    36    23    26    1
    37    23    22    1
    38    26    27    1
    39   104   105    1
    40     4     3    2
    41    56    57    2
    42    56    61   am
    43     2     1    1
    44     2     5    1
    45     2     3    1
    46     5     6    1
    47   105   106    1
    48     3    15   am
    49    22    17   am
    50    61    62    1
    51    27    29   ar
    52    27    28   ar
    53    17    18    2
    54    17    16    1
    55   106   107    2
    56    75    73   ar
    57     6     7   ar
    58     6     8   ar
    59    15    16    1
    60    15    21    1
    61    29    31   ar
    62    28    30   ar
    63    64    63    2
    64    16    19    1
    65    73    72    1
    66    73    74   ar
    67    62    63    1
    68    62    65    1
    69    11     8   ar
    70    11    13   ar
    71    63    68   am
    72     7     9   ar
    73    72    69    1
    74     8    10   ar
    75    68    69    1
    76    21    20    1
    77    69    70    1
    78    31    32   ar
    79    30    32   ar
    80    67    65    1
    81    65    66    1
    82    13    14   ar
    83    19    20    1
    84     9    10   ar
    85    10    12   ar
    86    70    71    2
    87   167   166    2
    88   103   102    1
    89    14    12   ar
    90   101   102   ar
    91   101    99   ar
    92   102   100   ar
    93   166   165    1
    94    99    97   ar
    95   171   170    1
    96   112   113    1
    97   116   113    1
    98   116   117    1
    99   168   165    1
   100   168   169    1
   101   165   164    1
   102    82    81    1
   103   100    98   ar
   104   113   114    1
   105   169   170    1
   106    97    98   ar
   107    97    96    1
   108    81    83    1
   109    81    80    1
   110   163   161    1
   111    95    94    2
   112   160   159    2
   113    76    77    1
   114    94    93    1
   115    96    93    1
   116   114   115    2
   117    80    77    1
   118   161   158    1
   119   161   162    1
   120    90    89    1
   121    93    92    1
   122    77    78    1
   123   159   158    1
   124   158   157    1
   125    87    86    2
   126    89    88    1
   127    89    91    1
   128   137   135   am
   129   122   123    1
   130   122   119    1
   131    88    85    1
   132   151   150    2
   133    78    79    2
   134   118   119    1
   135   156   154   ar
   136   123   125   ar
   137   123   124   ar
   138   157   150   am
   139    84    85    1
   140    86    85    1
   141   125   127   ar
   142   124   126   ar
   143   150   149    1
   144   119   120    1
   145   135   136    2
   146   135   134    1
   147   127   128   ar
   148   126   128   ar
   149   154   153    1
   150   154   155   ar
   151   153   152    1
   152   128   129    1
   153   130   120   am
   154   130   131    1
   155   120   121    2
   156   134   131    1
   157   146   144   ar
   158   146   147   ar
   159   149   152    1
   160   149   148    1
   161   144   143   ar
   162   141   140    2
   163   131   132    1
   164   147   145   ar
   165   148   140   am
   166   143   142    1
   167   143   145   ar
   168   140   139    1
   169   142   139    1
   170   133   132    2
   171   139   138    1
