@<TRIPOS>MOLECULE
tmp/5uepA00.pdb
 118 116 0 0 0
SMALL
GASTEIGER

@<TRIPOS>ATOM
      1  N        -15.8020    2.0580    3.1900 N.3    26  TRP26      -0.1228
      2  CA       -16.9700    2.8980    2.8660 C.3    26  TRP26       0.1722
      3  C        -16.6440    4.2500    2.1510 C.2    26  TRP26       0.2437
      4  O        -17.4170    4.6020    1.2650 O.2    26  TRP26      -0.2733
      5  CB       -17.9000    3.1200    4.0770 C.3    26  TRP26       0.0563
      6  CG       -17.3420    3.9850    5.1620 C.ar   26  TRP26       0.0003
      7  CD1      -16.6800    3.5760    6.2820 C.ar   26  TRP26       0.0946
      8  CD2      -17.3550    5.4170    5.2030 C.ar   26  TRP26       0.0152
      9  NE1      -16.2900    4.6630    7.0230 N.ar   26  TRP26      -0.2442
     10  CE2      -16.6890    5.8080    6.3830 C.ar   26  TRP26       0.0810
     11  CE3      -17.8640    6.4140    4.3480 C.ar   26  TRP26       0.0012
     12  CZ2      -16.5380    7.1540    6.7480 C.ar   26  TRP26       0.0191
     13  CZ3      -17.6940    7.7450    4.6980 C.ar   26  TRP26       0.0001
     14  CH2      -17.0320    8.1050    5.8790 C.ar   26  TRP26       0.0015
     15  N        -15.5440    4.9980    2.4110 N.am   27  PRO27      -0.2718
     16  CA       -15.3290    6.2440    1.6600 C.3    27  PRO27       0.1535
     17  C        -15.0670    6.0300    0.1700 C.2    27  PRO27       0.2598
     18  O        -15.1000    6.9880   -0.5880 O.2    27  PRO27      -0.2715
     19  CB       -14.0630    6.8090    2.2910 C.3    27  PRO27       0.0310
     20  CG       -14.0300    6.2260    3.6910 C.3    27  PRO27       0.0237
     21  CD       -14.4920    4.8250    3.4400 C.3    27  PRO27       0.0939
     22  N        -14.7520    4.7900   -0.2160 N.am   28  PHE28      -0.1974
     23  CA       -14.3890    4.4250   -1.5990 C.3    28  PHE28       0.1639
     24  C        -15.5130    3.7850   -2.3740 C.2    28  PHE28       0.2290
     25  O        -15.3610    3.5430   -3.5840 O.2    28  PHE28      -0.2864
     26  CB       -13.1590    3.4830   -1.5620 C.3    28  PHE28       0.0560
     27  CG       -12.0450    4.1390   -0.7830 C.ar   28  PHE28      -0.0200
     28  CD1      -11.3190    5.1850   -1.3350 C.ar   28  PHE28      -0.0042
     29  CD2      -11.8550    3.8420    0.5690 C.ar   28  PHE28      -0.0042
     30  CE1      -10.3800    5.8900   -0.5680 C.ar   28  PHE28      -0.0003
     31  CE2      -10.9050    4.5330    1.3240 C.ar   28  PHE28      -0.0003
     32  CZ       -10.1970    5.5690    0.7590 C.ar   28  PHE28      -0.0000
     33  N        -16.6640   10.4990   -5.0340 N.3    32  VAL32      -0.1231
     34  CA       -16.4860   11.5380   -4.0190 C.3    32  VAL32       0.1692
     35  C        -17.5630   12.6120   -4.3290 C.2    32  VAL32       0.2592
     36  O        -17.7440   12.9770   -5.4920 O.2    32  VAL32      -0.2718
     37  CB       -15.0490   12.1290   -4.0590 C.3    32  VAL32       0.0266
     38  CG1      -14.9400   13.4020   -3.2080 C.3    32  VAL32       0.0020
     39  CG2      -13.9940   11.0860   -3.6310 C.3    32  VAL32       0.0020
     40  N        -18.3010   13.0430   -3.3040 N.am   33  ASP33      -0.1974
     41  CA       -19.3140   14.0980   -3.4670 C.3    33  ASP33       0.1709
     42  C        -18.5690   15.4480   -3.4430 C.2    33  ASP33       0.2293
     43  O        -18.2730   15.9660   -2.3780 O.2    33  ASP33      -0.2864
     44  CB       -20.3720   14.0180   -2.3480 C.3    33  ASP33       0.1436
     45  CG       -21.4390   15.1130   -2.4430 C.2    33  ASP33       0.3671
     46  OD1      -21.5210   15.7860   -3.5130 O.co2  33  ASP33      -0.2456
     47  OD2      -22.1560   15.3240   -1.4470 O.co2  33  ASP33      -0.2456
     48  N        -14.7240   20.2520   -0.1060 N.3    39  LEU39      -0.1245
     49  CA       -14.3300   19.6280   -1.3850 C.3    39  LEU39       0.1561
     50  C        -14.4720   20.5230   -2.6130 C.2    39  LEU39       0.2260
     51  O        -14.5090   20.0190   -3.7440 O.2    39  LEU39      -0.2867
     52  CB       -15.0690   18.3000   -1.5870 C.3    39  LEU39       0.0270
     53  CG       -14.6200   17.2220   -0.6170 C.3    39  LEU39       0.0019
     54  CD1      -15.7240   16.3780   -0.2400 C.3    39  LEU39       0.0001
     55  CD2      -13.5290   16.3890   -1.2130 C.3    39  LEU39       0.0001
     56  N        -11.6390   19.8100   -5.1120 N.3    42  TYR42      -0.1241
     57  CA       -11.4010   18.4210   -5.5150 C.3    42  TYR42       0.1605
     58  C        -11.1780   18.2580   -7.0200 C.2    42  TYR42       0.2264
     59  O        -10.1990   17.6450   -7.4250 O.2    42  TYR42      -0.2867
     60  CB       -12.5440   17.5200   -5.0370 C.3    42  TYR42       0.0534
     61  CG       -12.1660   16.0590   -5.1240 C.ar   42  TYR42      -0.0201
     62  CD1      -11.3800   15.4640   -4.1420 C.ar   42  TYR42      -0.0009
     63  CD2      -12.5480   15.2860   -6.2130 C.ar   42  TYR42      -0.0009
     64  CE1      -10.9810   14.1280   -4.2440 C.ar   42  TYR42       0.0417
     65  CE2      -12.1650   13.9480   -6.3220 C.ar   42  TYR42       0.0417
     66  CZ       -11.3770   13.3780   -5.3360 C.ar   42  TYR42       0.1957
     67  OH       -10.9820   12.0640   -5.4560 O.3    42  TYR42      -0.2866
     68  N         -7.8770    5.1390   -7.9070 N.3    77  MET77      -0.1245
     69  CA        -8.7370    5.4740   -6.7810 C.3    77  MET77       0.1570
     70  C         -7.9050    5.7460   -5.5050 C.2    77  MET77       0.2261
     71  O         -8.1050    6.7730   -4.8600 O.2    77  MET77      -0.2867
     72  CB        -9.7700    4.3700   -6.5750 C.3    77  MET77       0.0387
     73  CG       -10.5340    4.4670   -5.2420 C.3    77  MET77       0.0595
     74  SD       -11.6700    3.0870   -5.1150 S.3    77  MET77      -0.1393
     75  CE       -10.5600    1.7870   -4.4580 C.3    77  MET77       0.0692
     76  N         -6.8650    9.6480   -3.6210 N.3    81  CYS81      -0.1235
     77  CA        -6.9690    9.8840   -2.1820 C.3    81  CYS81       0.1677
     78  C         -5.6420   10.4100   -1.5810 C.2    81  CYS81       0.2270
     79  O         -5.6560   11.3820   -0.7950 O.2    81  CYS81      -0.2867
     80  CB        -7.4510    8.6140   -1.4910 C.3    81  CYS81       0.0956
     81  SG        -7.7300    8.8040    0.2740 S.3    81  CYS81      -0.0801
     82  N         -4.8640   14.1000   -2.9780 N.3    84  TYR84      -0.1227
     83  CA        -5.7560   15.1710   -2.5270 C.3    84  TYR84       0.1736
     84  C         -5.6210   15.5410   -1.0660 C.2    84  TYR84       0.2595
     85  O         -5.6200   16.7300   -0.7320 O.2    84  TYR84      -0.2718
     86  CB        -7.2230   14.8190   -2.8610 C.3    84  TYR84       0.0548
     87  CG        -8.2010   15.8850   -2.4180 C.ar   84  TYR84      -0.0200
     88  CD1       -8.2240   17.1370   -3.0340 C.ar   84  TYR84      -0.0009
     89  CD2       -9.0230   15.6860   -1.3140 C.ar   84  TYR84      -0.0009
     90  CE1       -9.0780   18.1440   -2.5870 C.ar   84  TYR84       0.0417
     91  CE2       -9.8780   16.6900   -0.8570 C.ar   84  TYR84       0.0417
     92  CZ        -9.8900   17.9210   -1.4890 C.ar   84  TYR84       0.1957
     93  OH       -10.7380   18.9110   -1.0360 O.3    84  TYR84      -0.2866
     94  N         -5.5700   14.5440   -0.2010 N.am   85  ASN85      -0.1974
     95  CA        -5.6380   14.7090    1.2400 C.3    85  ASN85       0.1688
     96  C         -4.3200   14.9490    1.9460 C.2    85  ASN85       0.2292
     97  O         -3.3030   14.4610    1.4670 O.2    85  ASN85      -0.2864
     98  CB        -6.3290   13.4880    1.8400 C.3    85  ASN85       0.1181
     99  CG        -7.7470   13.3500    1.3810 C.2    85  ASN85       0.2629
    100  OD1       -8.6330   14.0870    1.8250 O.2    85  ASN85      -0.2716
    101  ND2       -7.9960   12.4100    0.4640 N.am   85  ASN85      -0.0877
    102  N         -4.6400   12.6580    7.3500 N.3    89  HIS89      -0.1241
    103  CA        -6.0920   12.5640    7.2670 C.3    89  HIS89       0.1621
    104  C         -6.5420   11.1190    7.5110 C.2    89  HIS89       0.2264
    105  O         -5.8790   10.1850    7.0500 O.2    89  HIS89      -0.2867
    106  CB        -6.5830   13.0580    5.8980 C.3    89  HIS89       0.0745
    107  CG        -8.0160   13.4860    5.8730 C.ar   89  HIS89       0.0817
    108  ND1       -9.0550   12.5730    6.0560 N.ar   89  HIS89      -0.2268
    109  CD2       -8.5460   14.7110    5.6390 C.ar   89  HIS89       0.1154
    110  CE1      -10.1720   13.2710    5.9410 C.ar   89  HIS89       0.1986
    111  NE2       -9.9170   14.5640    5.6810 N.ar   89  HIS89      -0.2212
    112  N         -8.9380    9.4750    6.2100 N.3    91  VAL91      -0.1245
    113  CA        -9.2730    8.7730    4.9610 C.3    91  VAL91       0.1561
    114  C         -8.0210    8.1610    4.3080 C.2    91  VAL91       0.2260
    115  O         -8.1200    7.1080    3.6780 O.2    91  VAL91      -0.2867
    116  CB       -10.1120    9.6420    3.9840 C.3    91  VAL91       0.0252
    117  CG1       -9.2590   10.6710    3.2460 C.3    91  VAL91       0.0019
    118  CG2      -10.8840    8.7690    3.0020 C.3    91  VAL91       0.0019
@<TRIPOS>BOND
     1    68    69    1
     2    59    58    2
     3    58    57    1
     4    69    72    1
     5    69    70    1
     6    72    73    1
     7    65    63   ar
     8    65    66   ar
     9    63    61   ar
    10    57    56    1
    11    57    60    1
    12    70    71    2
    13    36    35    2
    14    67    66    1
    15    66    64   ar
    16    73    74    1
    17    61    60    1
    18    61    62   ar
    19    74    75    1
    20    33    34    1
    21    35    34    1
    22    35    40   am
    23    64    62   ar
    24    37    34    1
    25    37    39    1
    26    37    38    1
    27    51    50    2
    28    76    77    1
    29    25    24    2
    30    46    45   ar
    31    41    42    1
    32    41    40    1
    33    41    44    1
    34    42    43    2
    35    88    90   ar
    36    88    87   ar
    37    82    83    1
    38    86    83    1
    39    86    87    1
    40    50    49    1
    41    90    92   ar
    42    83    84    1
    43    45    44    1
    44    45    47   ar
    45    87    89   ar
    46    24    23    1
    47    77    78    1
    48    77    80    1
    49    23    26    1
    50    23    22    1
    51    52    49    1
    52    52    53    1
    53    78    79    2
    54    26    27    1
    55    80    81    1
    56    92    93    1
    57    92    91   ar
    58    49    48    1
    59    28    27   ar
    60    28    30   ar
    61    89    91   ar
    62    55    53    1
    63    84    85    2
    64    84    94   am
    65    27    29   ar
    66    53    54    1
    67    18    17    2
    68    30    32   ar
    69    22    17   am
    70    94    95    1
    71    17    16    1
    72   101    99   am
    73    29    31   ar
    74    32    31   ar
    75    95    98    1
    76    95    96    1
    77     4     3    2
    78    99   100    2
    79    99    98    1
    80    97    96    2
    81    16    19    1
    82    16    15    1
    83     3    15   am
    84     3     2    1
    85    19    20    1
    86    15    21    1
    87     2     1    1
    88     2     5    1
    89   118   116    1
    90   117   116    1
    91    21    20    1
    92   115   114    2
    93   116   113    1
    94     5     6    1
    95   114   113    1
    96    11    13   ar
    97    11     8   ar
    98    13    14   ar
    99   113   112    1
   100     6     8   ar
   101     6     7   ar
   102     8    10   ar
   103   109   111   ar
   104   109   107   ar
   105   111   110   ar
   106   107   106    1
   107   107   108   ar
   108    14    12   ar
   109   106   103    1
   110   110   108   ar
   111     7     9   ar
   112    10    12   ar
   113    10     9   ar
   114   105   104    2
   115   103   102    1
   116   103   104    1
