@<TRIPOS>MOLECULE
tmp/5ueqA00.pdb
 171 171 0 0 0
SMALL
GASTEIGER

@<TRIPOS>ATOM
      1  N         16.0040    1.2010   22.4700 N.3    24  TRP24      -0.1228
      2  CA        17.3530    0.6650   22.1620 C.3    24  TRP24       0.1722
      3  C         17.3720   -0.7710   21.5030 C.2    24  TRP24       0.2437
      4  O         18.2390   -0.9700   20.6520 O.2    24  TRP24      -0.2733
      5  CB        18.3220    0.7420   23.3670 C.3    24  TRP24       0.0563
      6  CG        18.0700   -0.2440   24.4640 C.ar   24  TRP24       0.0003
      7  CD1       17.3660   -0.0300   25.6120 C.ar   24  TRP24       0.0946
      8  CD2       18.5260   -1.6080   24.5170 C.ar   24  TRP24       0.0152
      9  NE1       17.3380   -1.1830   26.3720 N.ar   24  TRP24      -0.2442
     10  CE2       18.0300   -2.1690   25.7140 C.ar   24  TRP24       0.0810
     11  CE3       19.2660   -2.4280   23.6380 C.ar   24  TRP24       0.0012
     12  CZ2       18.2620   -3.5070   26.0660 C.ar   24  TRP24       0.0191
     13  CZ3       19.5030   -3.7520   23.9930 C.ar   24  TRP24       0.0001
     14  CH2       19.0030   -4.2800   25.1880 C.ar   24  TRP24       0.0015
     15  N         16.4780   -1.7600   21.8240 N.am   25  PRO25      -0.2718
     16  CA        16.5670   -3.0750   21.1480 C.3    25  PRO25       0.1535
     17  C         16.1840   -3.0260   19.6640 C.2    25  PRO25       0.2599
     18  O         16.3600   -4.0030   18.9480 O.2    25  PRO25      -0.2715
     19  CB        15.5610   -3.9500   21.9280 C.3    25  PRO25       0.0310
     20  CG        15.3660   -3.2330   23.2480 C.3    25  PRO25       0.0237
     21  CD        15.4070   -1.7780   22.8450 C.3    25  PRO25       0.0939
     22  N         15.6770   -1.8710   19.2050 N.am   26  PHE26      -0.1960
     23  CA        15.1900   -1.6710   17.8350 C.3    26  PHE26       0.1771
     24  C         16.1070   -0.7670   17.0110 C.2    26  PHE26       0.2620
     25  O         15.8070   -0.4950   15.8490 O.2    26  PHE26      -0.2715
     26  CB        13.7680   -1.0410   17.9010 C.3    26  PHE26       0.0574
     27  CG        12.8370   -1.8850   18.7190 C.ar   26  PHE26      -0.0200
     28  CD1       12.2620   -3.0310   18.1820 C.ar   26  PHE26      -0.0042
     29  CD2       12.5580   -1.5580   20.0480 C.ar   26  PHE26      -0.0042
     30  CE1       11.4240   -3.8390   18.9540 C.ar   26  PHE26      -0.0003
     31  CE2       11.7410   -2.3860   20.8280 C.ar   26  PHE26      -0.0003
     32  CZ        11.1920   -3.5220   20.2780 C.ar   26  PHE26      -0.0000
     33  N         17.1920   -0.2660   17.6150 N.am   27  TYR27      -0.1960
     34  CA        18.0700    0.6840   16.9490 C.3    27  TYR27       0.1771
     35  C         18.7730    0.1500   15.7240 C.2    27  TYR27       0.2619
     36  O         19.0570    0.9290   14.8160 O.2    27  TYR27      -0.2715
     37  CB        19.1340    1.2010   17.9110 C.3    27  TYR27       0.0574
     38  CG        18.7120    2.2410   18.9180 C.ar   27  TYR27      -0.0198
     39  CD1       17.4250    2.7810   18.9060 C.ar   27  TYR27      -0.0009
     40  CD2       19.6090    2.7120   19.8690 C.ar   27  TYR27      -0.0009
     41  CE1       17.0500    3.7720   19.8160 C.ar   27  TYR27       0.0417
     42  CE2       19.2420    3.6860   20.7870 C.ar   27  TYR27       0.0417
     43  CZ        17.9640    4.2100   20.7630 C.ar   27  TYR27       0.1957
     44  OH        17.6510    5.1790   21.6790 O.3    27  TYR27      -0.2866
     45  N         19.1200   -1.1350   15.7340 N.am   28  LYS28      -0.1964
     46  CA        19.9000   -1.8180   14.6890 C.3    28  LYS28       0.1713
     47  C         19.2870   -3.2030   14.4270 C.2    28  LYS28       0.2458
     48  O         18.4980   -3.6760   15.2580 O.2    28  LYS28      -0.2730
     49  CB        21.3390   -2.0750   15.2010 C.3    28  LYS28       0.0311
     50  CG        22.2020   -0.8690   15.5290 C.3    28  LYS28       0.0038
     51  CD        23.7010   -1.2620   15.6780 C.3    28  LYS28       0.0206
     52  CE        24.0210   -2.4600   16.5710 C.3    28  LYS28       0.1093
     53  NZ        24.3320   -2.0830   17.9780 N.3    28  LYS28      -0.1314
     54  N         19.6840   -3.9090   13.3380 N.am   29  PRO29      -0.2716
     55  CA        19.1170   -5.2400   13.0900 C.3    29  PRO29       0.1536
     56  C         19.3310   -6.1890   14.2700 C.2    29  PRO29       0.2598
     57  O         20.3460   -6.0890   14.9540 O.2    29  PRO29      -0.2715
     58  CB        19.9100   -5.7380   11.8720 C.3    29  PRO29       0.0310
     59  CG        20.3440   -4.5090   11.1650 C.3    29  PRO29       0.0237
     60  CD        20.5900   -3.4940   12.2380 C.3    29  PRO29       0.0939
     61  N         18.3640   -7.0860   14.5360 N.am   30  VAL30      -0.1964
     62  CA        18.5060   -8.0820   15.6110 C.3    30  VAL30       0.1727
     63  C         19.7690   -8.9070   15.2690 C.2    30  VAL30       0.2616
     64  O         19.8610   -9.4270   14.1520 O.2    30  VAL30      -0.2715
     65  CB        17.2650   -9.0020   15.6760 C.3    30  VAL30       0.0290
     66  CG1       17.4810  -10.1750   16.6340 C.3    30  VAL30       0.0023
     67  CG2       16.0050   -8.2280   16.0340 C.3    30  VAL30       0.0023
     68  N         20.7480   -8.9680   16.1940 N.am   31  ASP31      -0.1971
     69  CA        22.0090   -9.6940   15.9620 C.3    31  ASP31       0.1709
     70  C         21.7640  -11.1500   16.3500 C.2    31  ASP31       0.2293
     71  O         21.9770  -11.5390   17.4940 O.2    31  ASP31      -0.2864
     72  CB        23.1440   -9.0560   16.7830 C.3    31  ASP31       0.1436
     73  CG        24.5440   -9.5510   16.4550 C.2    31  ASP31       0.3671
     74  OD1       24.6820  -10.7120   16.0110 O.co2  31  ASP31      -0.2456
     75  OD2       25.5050   -8.7980   16.6910 O.co2  31  ASP31      -0.2456
     76  N         22.9350  -13.1370   19.8620 N.3    35  LEU35      -0.1245
     77  CA        21.8230  -13.4530   20.7630 C.3    35  LEU35       0.1561
     78  C         21.4040  -14.9340   20.7680 C.2    35  LEU35       0.2260
     79  O         20.5690  -15.3230   21.5870 O.2    35  LEU35      -0.2867
     80  CB        20.6080  -12.5490   20.4650 C.3    35  LEU35       0.0270
     81  CG        20.8330  -11.0290   20.6690 C.3    35  LEU35       0.0019
     82  CD1       19.7760  -10.1970   19.9110 C.3    35  LEU35       0.0001
     83  CD2       20.8700  -10.6660   22.1320 C.3    35  LEU35       0.0001
     84  N         19.6420  -16.4560   18.4960 N.3    37  LEU37      -0.1245
     85  CA        18.2640  -16.5940   18.0110 C.3    37  LEU37       0.1561
     86  C         18.2980  -17.2810   16.6390 C.2    37  LEU37       0.2260
     87  O         17.8710  -16.7140   15.6340 O.2    37  LEU37      -0.2867
     88  CB        17.5880  -15.2040   17.9450 C.3    37  LEU37       0.0270
     89  CG        17.6090  -14.4160   19.2520 C.3    37  LEU37       0.0019
     90  CD1       16.9840  -13.0500   19.0760 C.3    37  LEU37       0.0001
     91  CD2       16.9420  -15.2000   20.3920 C.3    37  LEU37       0.0001
     92  N         15.1810  -17.2750   14.3970 N.3    40  TYR40      -0.1241
     93  CA        14.6040  -15.9850   14.0000 C.3    40  TYR40       0.1605
     94  C         14.2670  -15.8770   12.5180 C.2    40  TYR40       0.2264
     95  O         13.1650  -15.4520   12.1910 O.2    40  TYR40      -0.2867
     96  CB        15.5000  -14.8220   14.4440 C.3    40  TYR40       0.0534
     97  CG        14.8240  -13.4660   14.3820 C.ar   40  TYR40      -0.0201
     98  CD1       14.0320  -13.0100   15.4360 C.ar   40  TYR40      -0.0009
     99  CD2       15.0450  -12.6070   13.3100 C.ar   40  TYR40      -0.0009
    100  CE1       13.4310  -11.7530   15.3940 C.ar   40  TYR40       0.0417
    101  CE2       14.4450  -11.3480   13.2560 C.ar   40  TYR40       0.0417
    102  CZ        13.6290  -10.9340   14.2940 C.ar   40  TYR40       0.1957
    103  OH        13.0430   -9.6920   14.2530 O.3    40  TYR40      -0.2866
    104  N          8.5920   -3.6550   11.6880 N.3    75  MET75      -0.1245
    105  CA         9.5060   -3.8090   12.8310 C.3    75  MET75       0.1570
    106  C          8.7650   -4.2460   14.1130 C.2    75  MET75       0.2261
    107  O          9.1830   -5.2130   14.7720 O.2    75  MET75      -0.2867
    108  CB        10.2740   -2.5000   13.0400 C.3    75  MET75       0.0387
    109  CG        11.1980   -2.5250   14.2240 C.3    75  MET75       0.0595
    110  SD        12.0380   -0.9290   14.3730 S.3    75  MET75      -0.1393
    111  CE        10.7390    0.0870   15.1010 C.3    75  MET75       0.0692
    112  N          8.4660   -8.2290   16.0950 N.3    79  CYS79      -0.1235
    113  CA         8.6220   -8.3950   17.5280 C.3    79  CYS79       0.1677
    114  C          7.4080   -9.1050   18.1190 C.2    79  CYS79       0.2270
    115  O          7.5810  -10.0300   18.9060 O.2    79  CYS79      -0.2867
    116  CB         8.8480   -7.0360   18.1750 C.3    79  CYS79       0.0956
    117  SG         9.3560   -7.1400   19.9000 S.3    79  CYS79      -0.0801
    118  N          7.5080  -12.9880   16.7650 N.3    82  TYR82      -0.1227
    119  CA         8.5960  -13.8520   17.2140 C.3    82  TYR82       0.1736
    120  C          8.5550  -14.2460   18.6860 C.2    82  TYR82       0.2595
    121  O          8.8200  -15.4100   19.0200 O.2    82  TYR82      -0.2718
    122  CB         9.9540  -13.2090   16.8660 C.3    82  TYR82       0.0548
    123  CG        11.1370  -14.0460   17.3090 C.ar   82  TYR82      -0.0200
    124  CD1       11.4530  -15.2450   16.6650 C.ar   82  TYR82      -0.0009
    125  CD2       11.8840  -13.6880   18.4270 C.ar   82  TYR82      -0.0009
    126  CE1       12.5070  -16.0500   17.1120 C.ar   82  TYR82       0.0417
    127  CE2       12.9200  -14.4950   18.8950 C.ar   82  TYR82       0.0417
    128  CZ        13.2370  -15.6630   18.2280 C.ar   82  TYR82       0.1957
    129  OH        14.2880  -16.4040   18.7060 O.3    82  TYR82      -0.2866
    130  N          8.3360  -13.2640   19.5550 N.am   83  ASN83      -0.1974
    131  CA         8.4050  -13.4550   20.9950 C.3    83  ASN83       0.1688
    132  C          7.1000  -13.8740   21.6420 C.2    83  ASN83       0.2292
    133  O          6.0310  -13.4890   21.1480 O.2    83  ASN83      -0.2864
    134  CB         8.8920  -12.1540   21.6380 C.3    83  ASN83       0.1181
    135  CG        10.1780  -11.6610   21.0390 C.2    83  ASN83       0.2629
    136  OD1       11.2640  -12.2170   21.2910 O.2    83  ASN83      -0.2716
    137  ND2       10.0680  -10.6190   20.2110 N.am   83  ASN83      -0.0877
    138  N          6.8980  -11.3770   26.9050 N.3    87  HIS87      -0.1226
    139  CA         8.3150  -11.0230   26.8350 C.3    87  HIS87       0.1752
    140  C          8.5410   -9.5160   27.0890 C.2    87  HIS87       0.2599
    141  O          7.7640   -8.6680   26.6320 O.2    87  HIS87      -0.2717
    142  CB         8.9090  -11.4340   25.4810 C.3    87  HIS87       0.0759
    143  CG        10.4040  -11.5760   25.4590 C.ar   87  HIS87       0.0818
    144  ND1       11.2370  -10.4830   25.5790 N.ar   87  HIS87      -0.2268
    145  CD2       11.1620  -12.6810   25.2570 C.ar   87  HIS87       0.1154
    146  CE1       12.4710  -10.9520   25.4840 C.ar   87  HIS87       0.1986
    147  NE2       12.4750  -12.2690   25.2880 N.ar   87  HIS87      -0.2212
    148  N          9.6290   -9.2010   27.8090 N.am   88  GLU88      -0.1920
    149  CA        10.0530   -7.8430   28.1260 C.3    88  GLU88       0.1949
    150  C         10.1990   -7.0180   26.8340 C.2    88  GLU88       0.2658
    151  O          9.8290   -5.8310   26.8150 O.2    88  GLU88      -0.2711
    152  CB        11.4090   -7.9100   28.8590 C.2    88  GLU88       0.0111
    153  CG        11.9080   -6.5920   29.4210 C.2    88  GLU88       0.0838
    154  CD        13.3360   -6.5640   29.9410 C.2    88  GLU88       0.3877
    155  OE1       13.9690   -7.6400   30.0490 O.co2  88  GLU88      -0.2406
    156  OE2       13.8210   -5.4500   30.2420 O.co2  88  GLU88      -0.2406
    157  N         10.7310   -7.6340   25.7570 N.am   89  VAL89      -0.1974
    158  CA        10.9680   -6.8790   24.5190 C.3    89  VAL89       0.1596
    159  C          9.6340   -6.4700   23.8400 C.2    89  VAL89       0.2287
    160  O          9.5780   -5.4270   23.1770 O.2    89  VAL89      -0.2864
    161  CB        11.9800   -7.5650   23.5620 C.3    89  VAL89       0.0276
    162  CG1       11.3440   -8.7190   22.7840 C.3    89  VAL89       0.0022
    163  CG2       12.6080   -6.5450   22.6120 C.3    89  VAL89       0.0022
    164  N          8.4160   -3.3280   25.4760 N.3    92  MET92      -0.1245
    165  CA         9.2310   -2.2400   24.9340 C.3    92  MET92       0.1570
    166  C          8.7540   -1.8220   23.5530 C.2    92  MET92       0.2261
    167  O          8.6260   -0.6150   23.2820 O.2    92  MET92      -0.2867
    168  CB        10.7050   -2.6530   24.9090 C.3    92  MET92       0.0387
    169  CG        11.2580   -2.8520   26.2970 C.3    92  MET92       0.0595
    170  SD        12.8830   -3.6400   26.3120 S.3    92  MET92      -0.1393
    171  CE        13.8360   -2.3760   26.2220 C.3    92  MET92       0.0692
@<TRIPOS>BOND
     1    59    58    1
     2    59    60    1
     3   104   105    1
     4    58    55    1
     5    95    94    2
     6    60    54    1
     7    94    93    1
     8   105   108    1
     9   105   106    1
    10   108   109    1
    11    55    54    1
    12    55    56    1
    13   101    99   ar
    14   101   102   ar
    15    99    97   ar
    16    54    47   am
    17    93    92    1
    18    93    96    1
    19   106   107    2
    20    64    63    2
    21   109   110    1
    22   103   102    1
    23    56    61   am
    24    56    57    2
    25   102   100   ar
    26   110   111    1
    27    97    96    1
    28    97    98   ar
    29    47    46    1
    30    47    48    2
    31    61    62    1
    32    46    49    1
    33    46    45    1
    34    36    35    2
    35    49    50    1
    36    63    62    1
    37    63    68   am
    38   100    98   ar
    39    50    51    1
    40    62    65    1
    41    87    86    2
    42    65    67    1
    43    65    66    1
    44    51    52    1
    45    35    45   am
    46    35    34    1
    47    25    24    2
    48    69    68    1
    49    69    70    1
    50    69    72    1
    51    74    73   ar
    52   112   113    1
    53    70    71    2
    54    73    75   ar
    55    73    72    1
    56    52    53    1
    57    86    85    1
    58   124   126   ar
    59   124   123   ar
    60   118   119    1
    61   122   119    1
    62   122   123    1
    63    34    33    1
    64    34    37    1
    65    24    33   am
    66    24    23    1
    67   126   128   ar
    68   119   120    1
    69   123   125   ar
    70   113   114    1
    71   113   116    1
    72    23    26    1
    73    23    22    1
    74    26    27    1
    75    37    38    1
    76    88    85    1
    77    88    89    1
    78    85    84    1
    79   114   115    2
    80   116   117    1
    81    28    27   ar
    82    28    30   ar
    83   128   129    1
    84   128   127   ar
    85   125   127   ar
    86   120   121    2
    87   120   130   am
    88    27    29   ar
    89    39    38   ar
    90    39    41   ar
    91    38    40   ar
    92    18    17    2
    93    30    32   ar
    94    90    89    1
    95    22    17   am
    96    89    91    1
    97   130   131    1
    98    17    16    1
    99    41    43   ar
   100    76    77    1
   101    40    42   ar
   102    82    81    1
   103    29    31   ar
   104   137   135   am
   105    32    31   ar
   106    80    81    1
   107    80    77    1
   108     4     3    2
   109    81    83    1
   110    43    42   ar
   111    43    44    1
   112    77    78    1
   113    78    79    2
   114   131   134    1
   115   131   132    1
   116   135   136    2
   117   135   134    1
   118   133   132    2
   119    16    15    1
   120    16    19    1
   121     3    15   am
   122     3     2    1
   123    15    21    1
   124    19    20    1
   125     2     1    1
   126     2     5    1
   127   163   161    1
   128   162   161    1
   129    21    20    1
   130   160   159    2
   131   167   166    2
   132     5     6    1
   133   166   165    1
   134   161   158    1
   135    11    13   ar
   136    11     8   ar
   137   159   158    1
   138    13    14   ar
   139     6     8   ar
   140     6     7   ar
   141     8    10   ar
   142   158   157    1
   143   168   165    1
   144   168   169    1
   145   165   164    1
   146    14    12   ar
   147   145   147   ar
   148   145   143   ar
   149   147   146   ar
   150   143   142    1
   151   143   144   ar
   152   142   139    1
   153   146   144   ar
   154     7     9   ar
   155    10    12   ar
   156    10     9   ar
   157   157   150   am
   158   171   170    1
   159   169   170    1
   160   141   140    2
   161   151   150    2
   162   150   149    1
   163   139   138    1
   164   139   140    1
   165   140   148   am
   166   148   149    1
   167   149   152    1
   168   152   153    2
   169   153   154    1
   170   154   155   ar
   171   154   156   ar
