@<TRIPOS>MOLECULE
tmp/5uesA00.pdb
 151 150 0 0 0
SMALL
GASTEIGER

@<TRIPOS>ATOM
      1  N        -15.7870    2.2630    3.3020 N.3    26  TRP26      -0.1228
      2  CA       -16.9590    3.0850    2.9730 C.3    26  TRP26       0.1722
      3  C        -16.6360    4.4320    2.2840 C.2    26  TRP26       0.2437
      4  O        -17.4130    4.8000    1.4090 O.2    26  TRP26      -0.2733
      5  CB       -17.9010    3.2790    4.1750 C.3    26  TRP26       0.0563
      6  CG       -17.3320    4.0970    5.2810 C.ar   26  TRP26       0.0003
      7  CD1      -16.6300    3.6430    6.3610 C.ar   26  TRP26       0.0946
      8  CD2      -17.3520    5.5260    5.3850 C.ar   26  TRP26       0.0152
      9  NE1      -16.2390    4.7010    7.1460 N.ar   26  TRP26      -0.2442
     10  CE2      -16.6550    5.8690    6.5640 C.ar   26  TRP26       0.0810
     11  CE3      -17.8770    6.5560    4.5820 C.ar   26  TRP26       0.0012
     12  CZ2      -16.4750    7.1970    6.9680 C.ar   26  TRP26       0.0191
     13  CZ3      -17.7270    7.8690    5.0010 C.ar   26  TRP26       0.0001
     14  CH2      -17.0400    8.1800    6.1800 C.ar   26  TRP26       0.0015
     15  N        -15.5330    5.1810    2.5650 N.am   27  PRO27      -0.2718
     16  CA       -15.3010    6.4370    1.8160 C.3    27  PRO27       0.1535
     17  C        -15.0780    6.2340    0.3150 C.2    27  PRO27       0.2598
     18  O        -15.0910    7.2190   -0.4320 O.2    27  PRO27      -0.2715
     19  CB       -14.0080    6.9730    2.4360 C.3    27  PRO27       0.0310
     20  CG       -13.9980    6.3950    3.8330 C.3    27  PRO27       0.0237
     21  CD       -14.4970    4.9980    3.6070 C.3    27  PRO27       0.0939
     22  N        -14.7910    4.9880   -0.0980 N.am   28  PHE28      -0.1974
     23  CA       -14.4370    4.6170   -1.4650 C.3    28  PHE28       0.1639
     24  C        -15.5670    3.9860   -2.2690 C.2    28  PHE28       0.2290
     25  O        -15.3680    3.6760   -3.4430 O.2    28  PHE28      -0.2864
     26  CB       -13.1910    3.6740   -1.4190 C.3    28  PHE28       0.0560
     27  CG       -12.0770    4.3020   -0.6030 C.ar   28  PHE28      -0.0200
     28  CD1      -11.3530    5.3860   -1.1030 C.ar   28  PHE28      -0.0042
     29  CD2      -11.8730    3.9350    0.7240 C.ar   28  PHE28      -0.0042
     30  CE1      -10.4180    6.0610   -0.3020 C.ar   28  PHE28      -0.0003
     31  CE2      -10.9290    4.6100    1.5210 C.ar   28  PHE28      -0.0003
     32  CZ       -10.2270    5.6750    1.0080 C.ar   28  PHE28      -0.0000
     33  N        -18.5810    5.0980   -3.3840 N.3    30  LYS30      -0.1231
     34  CA       -19.2170    5.9010   -4.4290 C.3    30  LYS30       0.1678
     35  C        -18.3350    7.0740   -4.8170 C.2    30  LYS30       0.2434
     36  O        -17.4380    7.4450   -4.0500 O.2    30  LYS30      -0.2733
     37  CB       -20.5790    6.4480   -3.9050 C.3    30  LYS30       0.0284
     38  CG       -21.6010    5.3990   -3.4500 C.3    30  LYS30       0.0035
     39  CD       -22.2880    4.6900   -4.6080 C.3    30  LYS30       0.0206
     40  CE       -23.6810    5.2130   -4.8680 C.3    30  LYS30       0.1093
     41  NZ       -24.3030    4.5460   -6.0440 N.3    30  LYS30      -0.1314
     42  N        -18.5870    7.7390   -5.9720 N.am   31  PRO31      -0.2718
     43  CA       -17.7860    8.9240   -6.3060 C.3    31  PRO31       0.1535
     44  C        -17.7800    9.9750   -5.1930 C.2    31  PRO31       0.2598
     45  O        -18.7780   10.1350   -4.4870 O.2    31  PRO31      -0.2715
     46  CB       -18.5000    9.5040   -7.5420 C.3    31  PRO31       0.0310
     47  CG       -19.2610    8.3760   -8.1130 C.3    31  PRO31       0.0237
     48  CD       -19.6340    7.4730   -6.9860 C.3    31  PRO31       0.0939
     49  N        -16.6500   10.6540   -5.0180 N.am   32  VAL32      -0.1964
     50  CA       -16.5070   11.7430   -4.0300 C.3    32  VAL32       0.1727
     51  C        -17.5150   12.8420   -4.4510 C.2    32  VAL32       0.2616
     52  O        -17.5480   13.2150   -5.6260 O.2    32  VAL32      -0.2715
     53  CB       -15.0460   12.2890   -3.9980 C.3    32  VAL32       0.0290
     54  CG1      -14.9340   13.5770   -3.1600 C.3    32  VAL32       0.0023
     55  CG2      -14.0590   11.2270   -3.4950 C.3    32  VAL32       0.0023
     56  N        -18.3540   13.3020   -3.5040 N.am   33  ASP33      -0.1971
     57  CA       -19.3180   14.3790   -3.7460 C.3    33  ASP33       0.1709
     58  C        -18.5390   15.7090   -3.7210 C.2    33  ASP33       0.2293
     59  O        -18.2670   16.2570   -2.6470 O.2    33  ASP33      -0.2864
     60  CB       -20.4270   14.3530   -2.6770 C.3    33  ASP33       0.1436
     61  CG       -21.5710   15.3420   -2.9060 C.2    33  ASP33       0.3671
     62  OD1      -21.5030   16.1190   -3.8870 O.co2  33  ASP33      -0.2456
     63  OD2      -22.5220   15.3410   -2.1010 O.co2  33  ASP33      -0.2456
     64  N        -14.6680   20.1890   -0.1170 N.3    39  LEU39      -0.1245
     65  CA       -14.2440   19.5800   -1.3700 C.3    39  LEU39       0.1561
     66  C        -14.3790   20.4940   -2.5940 C.2    39  LEU39       0.2260
     67  O        -14.3940   19.9970   -3.7170 O.2    39  LEU39      -0.2867
     68  CB       -14.9910   18.2480   -1.5750 C.3    39  LEU39       0.0270
     69  CG       -14.6220   17.1660   -0.5630 C.3    39  LEU39       0.0019
     70  CD1      -15.7610   16.2450   -0.3210 C.3    39  LEU39       0.0001
     71  CD2      -13.4210   16.3890   -1.0360 C.3    39  LEU39       0.0001
     72  N        -11.5660   19.8740   -5.0470 N.3    42  TYR42      -0.1241
     73  CA       -11.3160   18.4890   -5.4640 C.3    42  TYR42       0.1605
     74  C        -11.0820   18.3220   -6.9550 C.2    42  TYR42       0.2264
     75  O        -10.0900   17.7000   -7.3230 O.2    42  TYR42      -0.2867
     76  CB       -12.4220   17.5500   -4.9770 C.3    42  TYR42       0.0534
     77  CG       -12.0020   16.0990   -5.0360 C.ar   42  TYR42      -0.0201
     78  CD1      -11.2730   15.5230   -3.9990 C.ar   42  TYR42      -0.0009
     79  CD2      -12.3910   15.2860   -6.0930 C.ar   42  TYR42      -0.0009
     80  CE1      -10.8700   14.1860   -4.0560 C.ar   42  TYR42       0.0417
     81  CE2      -12.0370   13.9360   -6.1390 C.ar   42  TYR42       0.0417
     82  CZ       -11.2770   13.3940   -5.1200 C.ar   42  TYR42       0.1957
     83  OH       -10.9130   12.0730   -5.1980 O.3    42  TYR42      -0.2866
     84  N         -7.8250    5.2040   -7.7250 N.3    77  MET77      -0.1245
     85  CA        -8.6860    5.5470   -6.6120 C.3    77  MET77       0.1570
     86  C         -7.8640    5.8520   -5.3390 C.2    77  MET77       0.2261
     87  O         -8.0500    6.9060   -4.6990 O.2    77  MET77      -0.2867
     88  CB        -9.6990    4.4300   -6.4030 C.3    77  MET77       0.0387
     89  CG       -10.4640    4.5450   -5.1180 C.3    77  MET77       0.0595
     90  SD       -11.6460    3.2060   -4.9920 S.3    77  MET77      -0.1393
     91  CE       -10.5670    1.8610   -4.2900 C.3    77  MET77       0.0692
     92  N         -6.7370    9.7120   -3.4310 N.3    81  CYS81      -0.1235
     93  CA        -6.8590    9.9640   -2.0130 C.3    81  CYS81       0.1677
     94  C         -5.5180   10.4500   -1.4180 C.2    81  CYS81       0.2270
     95  O         -5.5020   11.4010   -0.6290 O.2    81  CYS81      -0.2867
     96  CB        -7.3510    8.6950   -1.3240 C.3    81  CYS81       0.0956
     97  SG        -7.6840    8.9070    0.4330 S.3    81  CYS81      -0.0801
     98  N         -4.7900   14.1790   -2.8720 N.3    84  TYR84      -0.1227
     99  CA        -5.6700   15.2570   -2.4260 C.3    84  TYR84       0.1736
    100  C         -5.5590   15.6120   -0.9470 C.2    84  TYR84       0.2595
    101  O         -5.5590   16.7960   -0.6150 O.2    84  TYR84      -0.2718
    102  CB        -7.1220   14.9300   -2.8120 C.3    84  TYR84       0.0548
    103  CG        -8.1000   15.9750   -2.3260 C.ar   84  TYR84      -0.0200
    104  CD1       -8.1480   17.2400   -2.9130 C.ar   84  TYR84      -0.0009
    105  CD2       -8.9380   15.7210   -1.2480 C.ar   84  TYR84      -0.0009
    106  CE1       -9.0010   18.2280   -2.4220 C.ar   84  TYR84       0.0417
    107  CE2       -9.7940   16.6990   -0.7540 C.ar   84  TYR84       0.0417
    108  CZ        -9.8240   17.9500   -1.3460 C.ar   84  TYR84       0.1957
    109  OH       -10.6760   18.9160   -0.8700 O.3    84  TYR84      -0.2866
    110  N         -5.4900   14.6190   -0.0630 N.am   85  ASN85      -0.1974
    111  CA        -5.5430   14.8230    1.3810 C.3    85  ASN85       0.1688
    112  C         -4.2130   15.0520    2.0820 C.2    85  ASN85       0.2292
    113  O         -3.1860   14.6000    1.5780 O.2    85  ASN85      -0.2864
    114  CB        -6.2640   13.6450    2.0230 C.3    85  ASN85       0.1181
    115  CG        -7.6430   13.4910    1.4710 C.2    85  ASN85       0.2629
    116  OD1       -8.5460   14.2780    1.7720 O.2    85  ASN85      -0.2716
    117  ND2       -7.7940   12.5610    0.5350 N.am   85  ASN85      -0.0877
    118  N         -4.3410   12.6310    7.4140 N.3    89  HIS89      -0.1226
    119  CA        -5.7980   12.5650    7.3760 C.3    89  HIS89       0.1752
    120  C         -6.2840   11.1270    7.6160 C.2    89  HIS89       0.2596
    121  O         -5.6700   10.1770    7.1160 O.2    89  HIS89      -0.2718
    122  CB        -6.3110   13.1190    6.0360 C.3    89  HIS89       0.0759
    123  CG        -7.7590   13.5090    6.0240 C.ar   89  HIS89       0.0818
    124  ND1       -8.7620   12.5810    6.2550 N.ar   89  HIS89      -0.2268
    125  CD2       -8.3280   14.7080    5.7430 C.ar   89  HIS89       0.1154
    126  CE1       -9.9010   13.2420    6.1290 C.ar   89  HIS89       0.1986
    127  NE2       -9.6920   14.5260    5.8160 N.ar   89  HIS89      -0.2212
    128  N         -7.3690   10.9730    8.4060 N.am   90  GLU90      -0.1965
    129  CA        -7.9980    9.6890    8.7310 C.3    90  GLU90       0.1733
    130  C         -8.3660    8.9120    7.4480 C.2    90  GLU90       0.2616
    131  O         -8.2280    7.6890    7.4260 O.2    90  GLU90      -0.2715
    132  CB        -9.2630    9.9280    9.5630 C.3    90  GLU90       0.0429
    133  CG        -9.8710    8.7010   10.2260 C.3    90  GLU90       0.1163
    134  CD       -11.1930    8.9670   10.9280 C.2    90  GLU90       0.3649
    135  OE1      -11.4960   10.1500   11.2110 O.co2  90  GLU90      -0.2457
    136  OE2      -11.9340    7.9890   11.1820 O.co2  90  GLU90      -0.2457
    137  N         -8.8060    9.6350    6.3820 N.am   91  VAL91      -0.1977
    138  CA        -9.2150    8.9760    5.1320 C.3    91  VAL91       0.1596
    139  C         -8.0180    8.3240    4.4300 C.2    91  VAL91       0.2287
    140  O         -8.2020    7.2890    3.7860 O.2    91  VAL91      -0.2864
    141  CB       -10.0570    9.8840    4.1790 C.3    91  VAL91       0.0276
    142  CG1       -9.1730   10.8600    3.4130 C.3    91  VAL91       0.0022
    143  CG2      -10.8850    9.0250    3.2090 C.3    91  VAL91       0.0022
    144  N         -7.4560    5.0460    6.1070 N.3    94  MET94      -0.1245
    145  CA        -8.4790    4.1190    5.6040 C.3    94  MET94       0.1570
    146  C         -8.0810    3.6060    4.2250 C.2    94  MET94       0.2261
    147  O         -8.1700    2.4020    3.9960 O.2    94  MET94      -0.2867
    148  CB        -9.8490    4.7860    5.5790 C.3    94  MET94       0.0387
    149  CG       -10.3570    5.1070    6.9950 C.3    94  MET94       0.0595
    150  SD       -11.8100    6.1790    6.9800 S.3    94  MET94      -0.1393
    151  CE       -12.9660    5.0730    7.0200 C.3    94  MET94       0.0692
@<TRIPOS>BOND
     1    47    46    1
     2    47    48    1
     3    84    85    1
     4    46    43    1
     5    75    74    2
     6    48    42    1
     7    74    73    1
     8    85    88    1
     9    85    86    1
    10    88    89    1
    11    43    42    1
    12    43    44    1
    13    81    79   ar
    14    81    82   ar
    15    79    77   ar
    16    41    40    1
    17    42    35   am
    18    52    51    2
    19    73    72    1
    20    73    76    1
    21    86    87    2
    22    83    82    1
    23    44    49   am
    24    44    45    2
    25    82    80   ar
    26    89    90    1
    27    77    76    1
    28    77    78   ar
    29    49    50    1
    30    90    91    1
    31    40    39    1
    32    35    34    1
    33    35    36    2
    34    39    38    1
    35    51    50    1
    36    51    56   am
    37    34    37    1
    38    34    33    1
    39    80    78   ar
    40    50    53    1
    41    53    55    1
    42    53    54    1
    43    37    38    1
    44    62    61   ar
    45    57    58    1
    46    57    56    1
    47    57    60    1
    48    58    59    2
    49    67    66    2
    50    25    24    2
    51    92    93    1
    52   104   106   ar
    53   104   103   ar
    54    61    60    1
    55    61    63   ar
    56    98    99    1
    57   102    99    1
    58   102   103    1
    59    66    65    1
    60    99   100    1
    61   106   108   ar
    62   103   105   ar
    63    24    23    1
    64    93    94    1
    65    93    96    1
    66    68    65    1
    67    68    69    1
    68    23    26    1
    69    23    22    1
    70    26    27    1
    71    94    95    2
    72    65    64    1
    73   108   109    1
    74   108   107   ar
    75    96    97    1
    76   105   107   ar
    77    28    27   ar
    78    28    30   ar
    79    71    69    1
    80   100   101    2
    81   100   110   am
    82    27    29   ar
    83    69    70    1
    84    18    17    2
    85    30    32   ar
    86    22    17   am
    87   110   111    1
    88    17    16    1
    89   117   115   am
    90    29    31   ar
    91    32    31   ar
    92   111   114    1
    93   111   112    1
    94     4     3    2
    95   115   116    2
    96   115   114    1
    97   113   112    2
    98    16    19    1
    99    16    15    1
   100     3    15   am
   101     3     2    1
   102    19    20    1
   103    15    21    1
   104     2     1    1
   105     2     5    1
   106   143   141    1
   107   142   141    1
   108    21    20    1
   109   140   139    2
   110   147   146    2
   111     5     6    1
   112   141   138    1
   113   146   145    1
   114   139   138    1
   115    11    13   ar
   116    11     8   ar
   117    13    14   ar
   118   138   137    1
   119     6     8   ar
   120     6     7   ar
   121     8    10   ar
   122   148   145    1
   123   148   149    1
   124   145   144    1
   125   125   127   ar
   126   125   123   ar
   127   127   126   ar
   128   123   122    1
   129   123   124   ar
   130   122   119    1
   131   126   124   ar
   132    14    12   ar
   133     7     9   ar
   134   137   130   am
   135    10    12   ar
   136    10     9   ar
   137   150   149    1
   138   150   151    1
   139   121   120    2
   140   119   118    1
   141   119   120    1
   142   131   130    2
   143   130   129    1
   144   120   128   am
   145   128   129    1
   146   129   132    1
   147   132   133    1
   148   133   134    1
   149   134   136   ar
   150   134   135   ar
