@<TRIPOS>MOLECULE
tmp/5uetA00.pdb
 134 133 0 0 0
SMALL
GASTEIGER

@<TRIPOS>ATOM
      1  N         15.8940    2.3270   -3.0950 N.3    26  TRP26      -0.1228
      2  CA        17.0470    3.1940   -2.8060 C.3    26  TRP26       0.1722
      3  C         16.7070    4.5230   -2.0740 C.2    26  TRP26       0.2437
      4  O         17.5320    4.9090   -1.2440 O.2    26  TRP26      -0.2733
      5  CB        17.9170    3.4680   -4.0530 C.3    26  TRP26       0.0563
      6  CG        17.2790    4.3130   -5.1150 C.ar   26  TRP26       0.0003
      7  CD1       16.6220    3.8730   -6.2250 C.ar   26  TRP26       0.0946
      8  CD2       17.2840    5.7470   -5.1940 C.ar   26  TRP26       0.0152
      9  NE1       16.2040    4.9400   -6.9830 N.ar   26  TRP26      -0.2442
     10  CE2       16.5760    6.1040   -6.3620 C.ar   26  TRP26       0.0810
     11  CE3       17.7900    6.7700   -4.3700 C.ar   26  TRP26       0.0012
     12  CZ2       16.3710    7.4380   -6.7360 C.ar   26  TRP26       0.0191
     13  CZ3       17.5770    8.0900   -4.7360 C.ar   26  TRP26       0.0001
     14  CH2       16.8800    8.4140   -5.9070 C.ar   26  TRP26       0.0015
     15  N         15.5650    5.2430   -2.2910 N.am   27  PRO27      -0.2718
     16  CA        15.3490    6.4830   -1.5190 C.3    27  PRO27       0.1535
     17  C         15.0480    6.2420   -0.0370 C.2    27  PRO27       0.2598
     18  O         15.1020    7.1840    0.7520 O.2    27  PRO27      -0.2715
     19  CB        14.1560    7.1490   -2.2250 C.3    27  PRO27       0.0310
     20  CG        13.9470    6.3860   -3.4950 C.3    27  PRO27       0.0237
     21  CD        14.4360    5.0120   -3.2170 C.3    27  PRO27       0.0939
     22  N         14.7580    4.9820    0.3420 N.am   28  PHE28      -0.1974
     23  CA        14.4000    4.5980    1.7100 C.3    28  PHE28       0.1639
     24  C         15.5240    3.8770    2.4650 C.2    28  PHE28       0.2290
     25  O         15.3570    3.5780    3.6490 O.2    28  PHE28      -0.2864
     26  CB        13.0930    3.7770    1.7090 C.3    28  PHE28       0.0560
     27  CG        12.0210    4.4140    0.8550 C.ar   28  PHE28      -0.0200
     28  CD1       11.2820    5.4930    1.3280 C.ar   28  PHE28      -0.0042
     29  CD2       11.8040    3.9860   -0.4500 C.ar   28  PHE28      -0.0042
     30  CE1       10.3290    6.1150    0.5180 C.ar   28  PHE28      -0.0003
     31  CE2       10.8530    4.6110   -1.2570 C.ar   28  PHE28      -0.0003
     32  CZ        10.1320    5.6790   -0.7710 C.ar   28  PHE28      -0.0000
     33  N         18.7290    4.9660    3.5000 N.3    30  LYS30      -0.1231
     34  CA        19.3380    5.7790    4.5560 C.3    30  LYS30       0.1678
     35  C         18.4400    6.9710    4.9430 C.2    30  LYS30       0.2434
     36  O         17.5120    7.2640    4.1840 O.2    30  LYS30      -0.2733
     37  CB        20.7270    6.2680    4.0870 C.3    30  LYS30       0.0284
     38  CG        21.7220    5.1410    3.8430 C.3    30  LYS30       0.0035
     39  CD        23.0910    5.4540    4.4200 C.3    30  LYS30       0.0206
     40  CE        23.8820    4.1990    4.7050 C.3    30  LYS30       0.1093
     41  NZ        23.3590    3.4640    5.8890 N.3    30  LYS30      -0.1314
     42  N         18.6670    7.6750    6.0920 N.am   31  PRO31      -0.2718
     43  CA        17.8000    8.8250    6.4260 C.3    31  PRO31       0.1535
     44  C         17.8310    9.9270    5.3700 C.2    31  PRO31       0.2598
     45  O         18.8540   10.1110    4.7060 O.2    31  PRO31      -0.2715
     46  CB        18.3680    9.3370    7.7570 C.3    31  PRO31       0.0310
     47  CG        19.1880    8.2270    8.2970 C.3    31  PRO31       0.0237
     48  CD        19.7120    7.4790    7.1200 C.3    31  PRO31       0.0939
     49  N         16.7020   10.6440    5.2080 N.am   32  VAL32      -0.1964
     50  CA        16.5640   11.7430    4.2460 C.3    32  VAL32       0.1727
     51  C         17.5550   12.8550    4.6210 C.2    32  VAL32       0.2616
     52  O         17.5170   13.3570    5.7480 O.2    32  VAL32      -0.2715
     53  CB        15.1010   12.2710    4.1450 C.3    32  VAL32       0.0290
     54  CG1       14.9880   13.4260    3.1490 C.3    32  VAL32       0.0023
     55  CG2       14.1270   11.1540    3.7780 C.3    32  VAL32       0.0023
     56  N         18.4660   13.1940    3.6880 N.am   33  ASP33      -0.1971
     57  CA        19.4650   14.2460    3.8780 C.3    33  ASP33       0.1709
     58  C         18.7640   15.5990    3.7140 C.2    33  ASP33       0.2293
     59  O         18.5270   16.0530    2.5910 O.2    33  ASP33      -0.2864
     60  CB        20.6430   14.0730    2.8900 C.3    33  ASP33       0.1436
     61  CG        21.8340   15.0060    3.0820 C.2    33  ASP33       0.3671
     62  OD1       21.8580   15.7520    4.0900 O.co2  33  ASP33      -0.2456
     63  OD2       22.7550   14.9710    2.2380 O.co2  33  ASP33      -0.2456
     64  N         15.0520   20.0370    0.1910 N.3    39  LEU39      -0.1245
     65  CA        14.6400   19.3760    1.4340 C.3    39  LEU39       0.1561
     66  C         14.8420   20.2370    2.7030 C.2    39  LEU39       0.2260
     67  O         14.9600   19.6970    3.8080 O.2    39  LEU39      -0.2867
     68  CB        15.3390   18.0040    1.5570 C.3    39  LEU39       0.0270
     69  CG        14.9800   16.9770    0.4760 C.3    39  LEU39       0.0019
     70  CD1       16.1340   16.0450    0.1980 C.3    39  LEU39       0.0001
     71  CD2       13.7230   16.2030    0.8350 C.3    39  LEU39       0.0001
     72  N         11.7890   19.7600    5.1420 N.3    42  TYR42      -0.1241
     73  CA        11.5140   18.3770    5.5510 C.3    42  TYR42       0.1605
     74  C         11.2930   18.2100    7.0590 C.2    42  TYR42       0.2264
     75  O         10.3730   17.4930    7.4490 O.2    42  TYR42      -0.2867
     76  CB        12.5910   17.4050    5.0360 C.3    42  TYR42       0.0534
     77  CG        12.1760   15.9510    5.1270 C.ar   42  TYR42      -0.0201
     78  CD1       11.3630   15.3760    4.1540 C.ar   42  TYR42      -0.0009
     79  CD2       12.5870   15.1520    6.1890 C.ar   42  TYR42      -0.0009
     80  CE1       10.9620   14.0440    4.2410 C.ar   42  TYR42       0.0417
     81  CE2       12.1940   13.8180    6.2860 C.ar   42  TYR42       0.0417
     82  CZ        11.3800   13.2690    5.3090 C.ar   42  TYR42       0.1957
     83  OH        10.9880   11.9570    5.3970 O.3    42  TYR42      -0.2866
     84  N          7.7990    5.2660    7.8370 N.3    77  MET77      -0.1245
     85  CA         8.7070    5.5740    6.7310 C.3    77  MET77       0.1570
     86  C          7.9070    5.8650    5.4450 C.2    77  MET77       0.2261
     87  O          8.1770    6.8640    4.7760 O.2    77  MET77      -0.2867
     88  CB         9.6870    4.4010    6.5370 C.3    77  MET77       0.0387
     89  CG        10.6120    4.5390    5.3440 C.3    77  MET77       0.0595
     90  SD        11.6580    3.0810    5.1410 S.3    77  MET77      -0.1393
     91  CE        10.5090    1.9440    4.3990 C.3    77  MET77       0.0692
     92  N          6.7240    9.7560    3.4690 N.3    81  CYS81      -0.1235
     93  CA         6.8670    9.9810    2.0310 C.3    81  CYS81       0.1677
     94  C          5.5570   10.5030    1.4290 C.2    81  CYS81       0.2270
     95  O          5.5870   11.4460    0.6370 O.2    81  CYS81      -0.2867
     96  CB         7.3450    8.7100    1.3330 C.3    81  CYS81       0.0956
     97  SG         7.7600    8.9330   -0.4150 S.3    81  CYS81      -0.0801
     98  N          4.8850   14.3730    3.0010 N.3    84  TYR84      -0.1227
     99  CA         5.7960   15.4240    2.5490 C.3    84  TYR84       0.1736
    100  C          5.7320   15.7400    1.0470 C.2    84  TYR84       0.2595
    101  O          5.6580   16.9130    0.6800 O.2    84  TYR84      -0.2718
    102  CB         7.2440   15.1010    2.9780 C.3    84  TYR84       0.0548
    103  CG         8.2720   16.0870    2.4660 C.ar   84  TYR84      -0.0200
    104  CD1        8.3960   17.3530    3.0320 C.ar   84  TYR84      -0.0009
    105  CD2        9.1110   15.7630    1.4040 C.ar   84  TYR84      -0.0009
    106  CE1        9.3180   18.2770    2.5440 C.ar   84  TYR84       0.0417
    107  CE2       10.0430   16.6750    0.9130 C.ar   84  TYR84       0.0417
    108  CZ        10.1440   17.9320    1.4880 C.ar   84  TYR84       0.1957
    109  OH        11.0640   18.8360    1.0160 O.3    84  TYR84      -0.2866
    110  N          5.8200   14.7110    0.1970 N.am   85  ASN85      -0.1974
    111  CA         5.8910   14.8380   -1.2600 C.3    85  ASN85       0.1688
    112  C          4.5510   15.0540   -1.9690 C.2    85  ASN85       0.2292
    113  O          3.5280   14.6460   -1.4250 O.2    85  ASN85      -0.2864
    114  CB         6.5990   13.6170   -1.8390 C.3    85  ASN85       0.1181
    115  CG         7.9770   13.4280   -1.2770 C.2    85  ASN85       0.2629
    116  OD1        8.9400   14.0730   -1.6990 O.2    85  ASN85      -0.2716
    117  ND2        8.0910   12.5430   -0.3020 N.am   85  ASN85      -0.0877
    118  N          4.6440   12.8630   -7.4660 N.3    89  HIS89      -0.1241
    119  CA         6.1020   12.7020   -7.3820 C.3    89  HIS89       0.1621
    120  C          6.5030   11.2410   -7.5780 C.2    89  HIS89       0.2264
    121  O          5.7850   10.3460   -7.1290 O.2    89  HIS89      -0.2867
    122  CB         6.6300   13.2070   -6.0310 C.3    89  HIS89       0.0745
    123  CG         8.0880   13.5540   -6.0350 C.ar   89  HIS89       0.0817
    124  ND1        9.0660   12.5870   -6.2060 N.ar   89  HIS89      -0.2268
    125  CD2        8.6890   14.7540   -5.8610 C.ar   89  HIS89       0.1154
    126  CE1       10.2210   13.2280   -6.1440 C.ar   89  HIS89       0.1986
    127  NE2       10.0450   14.5330   -5.9370 N.ar   89  HIS89      -0.2212
    128  N          8.8940    9.5020   -6.1630 N.3    91  VAL91      -0.1245
    129  CA         9.2410    8.8490   -4.8960 C.3    91  VAL91       0.1561
    130  C          7.9910    8.2180   -4.2270 C.2    91  VAL91       0.2260
    131  O          8.1220    7.1970   -3.5510 O.2    91  VAL91      -0.2867
    132  CB        10.0610    9.7800   -3.9520 C.3    91  VAL91       0.0252
    133  CG1        9.1910   10.8430   -3.2860 C.3    91  VAL91       0.0019
    134  CG2       10.8460    8.9830   -2.9140 C.3    91  VAL91       0.0019
@<TRIPOS>BOND
     1   120   119    1
     2   120   121    2
     3   118   119    1
     4   119   122    1
     5     9    10   ar
     6     9     7   ar
     7    12    10   ar
     8    12    14   ar
     9    10     8   ar
    10     7     6   ar
    11   124   126   ar
    12   124   123   ar
    13   128   129    1
    14   126   127   ar
    15   123   122    1
    16   123   125   ar
    17   127   125   ar
    18    14    13   ar
    19     8     6   ar
    20     8    11   ar
    21     6     5    1
    22   129   130    1
    23   129   132    1
    24    13    11   ar
    25   130   131    2
    26     5     2    1
    27   132   133    1
    28   132   134    1
    29    20    21    1
    30    20    19    1
    31    21    15    1
    32     1     2    1
    33     2     3    1
    34    15     3   am
    35    15    16    1
    36    19    16    1
    37     3     4    2
    38   112   113    2
    39   112   111    1
    40   114   115    1
    41   114   111    1
    42   116   115    2
    43    16    17    1
    44   115   117   am
    45   111   110    1
    46    31    32   ar
    47    31    29   ar
    48    32    30   ar
    49    29    27   ar
    50    97    96    1
    51    17    22   am
    52    17    18    2
    53    64    65    1
    54   110   100   am
    55    70    69    1
    56    22    23    1
    57    69    71    1
    58    69    68    1
    59    30    28   ar
    60    95    94    2
    61   101   100    2
    62    27    28   ar
    63    27    26    1
    64   107   105   ar
    65   107   108   ar
    66   109   108    1
    67   100    99    1
    68    96    93    1
    69   105   103   ar
    70    94    93    1
    71    65    68    1
    72    65    66    1
    73   108   106   ar
    74    26    23    1
    75    23    24    1
    76    93    92    1
    77    63    61   ar
    78    24    25    2
    79   103   102    1
    80   103   104   ar
    81   106   104   ar
    82    99   102    1
    83    99    98    1
    84    59    58    2
    85    66    67    2
    86    60    61    1
    87    60    57    1
    88    61    62   ar
    89    54    53    1
    90    33    34    1
    91    56    57    1
    92    56    51   am
    93    58    57    1
    94    55    53    1
    95    38    37    1
    96    38    39    1
    97    37    34    1
    98    53    50    1
    99    78    80   ar
   100    78    77   ar
   101    36    35    2
   102    80    82   ar
   103    50    51    1
   104    50    49    1
   105    91    90    1
   106    39    40    1
   107    34    35    1
   108    51    52    2
   109    40    41    1
   110    45    44    2
   111    87    86    2
   112    35    42   am
   113    76    77    1
   114    76    73    1
   115    77    79   ar
   116    90    89    1
   117    72    73    1
   118    49    44   am
   119    82    83    1
   120    82    81   ar
   121    89    88    1
   122    44    43    1
   123    86    85    1
   124    73    74    1
   125    42    43    1
   126    42    48    1
   127    79    81   ar
   128    43    46    1
   129    88    85    1
   130    85    84    1
   131    74    75    2
   132    48    47    1
   133    46    47    1
