@<TRIPOS>MOLECULE
tmp/5uevA00.pdb
 124 123 0 0 0
SMALL
GASTEIGER

@<TRIPOS>ATOM
      1  N         15.6100   -2.4560    3.2370 N.3    25  TRP25      -0.1228
      2  CA        16.7680   -3.3030    2.8800 C.3    25  TRP25       0.1722
      3  C         16.4090   -4.6160    2.1430 C.2    25  TRP25       0.2437
      4  O         17.1550   -4.9600    1.2250 O.2    25  TRP25      -0.2733
      5  CB        17.7210   -3.5750    4.0730 C.3    25  TRP25       0.0563
      6  CG        17.1600   -4.4170    5.1710 C.ar   25  TRP25       0.0003
      7  CD1       16.5670   -3.9780    6.3140 C.ar   25  TRP25       0.0946
      8  CD2       17.1150   -5.8440    5.2170 C.ar   25  TRP25       0.0152
      9  NE1       16.1020   -5.0420    7.0440 N.ar   25  TRP25      -0.2442
     10  CE2       16.4520   -6.2020    6.4100 C.ar   25  TRP25       0.0810
     11  CE3       17.5440   -6.8620    4.3500 C.ar   25  TRP25       0.0012
     12  CZ2       16.2500   -7.5340    6.7830 C.ar   25  TRP25       0.0191
     13  CZ3       17.2990   -8.1800    4.6990 C.ar   25  TRP25       0.0001
     14  CH2       16.6830   -8.5050    5.9100 C.ar   25  TRP25       0.0015
     15  N         15.2960   -5.3480    2.4290 N.am   26  PRO26      -0.2718
     16  CA        15.0370   -6.5750    1.6620 C.3    26  PRO26       0.1535
     17  C         14.7770   -6.3320    0.1780 C.2    26  PRO26       0.2598
     18  O         14.8400   -7.2720   -0.6000 O.2    26  PRO26      -0.2715
     19  CB        13.7800   -7.1380    2.3290 C.3    26  PRO26       0.0310
     20  CG        13.7750   -6.5520    3.6900 C.3    26  PRO26       0.0237
     21  CD        14.2610   -5.1680    3.4750 C.3    26  PRO26       0.0939
     22  N         14.5340   -5.0700   -0.2140 N.am   27  PHE27      -0.1974
     23  CA        14.1870   -4.6850   -1.6010 C.3    27  PHE27       0.1639
     24  C         15.3400   -4.0870   -2.3650 C.2    27  PHE27       0.2290
     25  O         15.1870   -3.7920   -3.5460 O.2    27  PHE27      -0.2864
     26  CB        12.9990   -3.7010   -1.5580 C.3    27  PHE27       0.0560
     27  CG        11.8900   -4.3500   -0.7780 C.ar   27  PHE27      -0.0200
     28  CD1       11.1140   -5.3540   -1.3510 C.ar   27  PHE27      -0.0042
     29  CD2       11.7040   -4.0520    0.5670 C.ar   27  PHE27      -0.0042
     30  CE1       10.1510   -6.0170   -0.6020 C.ar   27  PHE27      -0.0003
     31  CE2       10.7680   -4.7470    1.3190 C.ar   27  PHE27      -0.0003
     32  CZ        10.0000   -5.7230    0.7270 C.ar   27  PHE27      -0.0000
     33  N         18.3730   -5.3490   -3.3720 N.3    29  LYS29      -0.1231
     34  CA        19.0610   -6.1550   -4.3640 C.3    29  LYS29       0.1678
     35  C         18.2260   -7.3250   -4.7800 C.2    29  LYS29       0.2434
     36  O         17.3000   -7.6450   -4.0430 O.2    29  LYS29      -0.2733
     37  CB        20.4100   -6.6290   -3.7850 C.3    29  LYS29       0.0284
     38  CG        21.4100   -5.4980   -3.5690 C.3    29  LYS29       0.0035
     39  CD        22.6780   -5.7070   -4.3790 C.3    29  LYS29       0.0206
     40  CE        23.7160   -4.6460   -4.0960 C.3    29  LYS29       0.1093
     41  NZ        24.9170   -4.7910   -4.9660 N.3    29  LYS29      -0.1314
     42  N         18.4570   -7.9600   -5.9700 N.am   30  PRO30      -0.2718
     43  CA        17.6290   -9.1170   -6.3440 C.3    30  PRO30       0.1535
     44  C         17.5330  -10.1530   -5.2330 C.2    30  PRO30       0.2598
     45  O         18.4750  -10.2950   -4.4530 O.2    30  PRO30      -0.2715
     46  CB        18.3510   -9.6950   -7.5650 C.3    30  PRO30       0.0310
     47  CG        19.1020   -8.5610   -8.1300 C.3    30  PRO30       0.0237
     48  CD        19.5330   -7.7320   -6.9650 C.3    30  PRO30       0.0939
     49  N         16.3860  -10.8490   -5.1460 N.am   31  VAL31      -0.1964
     50  CA        16.1660  -11.9240   -4.1740 C.3    31  VAL31       0.1727
     51  C         17.2240  -13.0190   -4.4570 C.2    31  VAL31       0.2616
     52  O         17.4520  -13.3550   -5.6220 O.2    31  VAL31      -0.2715
     53  CB        14.6990  -12.4550   -4.2580 C.3    31  VAL31       0.0290
     54  CG1       14.5060  -13.7750   -3.4970 C.3    31  VAL31       0.0023
     55  CG2       13.7000  -11.3990   -3.7430 C.3    31  VAL31       0.0023
     56  N         17.9280  -13.4830   -3.4060 N.am   32  ASP32      -0.1971
     57  CA        18.9280  -14.5610   -3.5230 C.3    32  ASP32       0.1709
     58  C         18.1680  -15.8930   -3.5770 C.2    32  ASP32       0.2293
     59  O         17.8910  -16.4840   -2.5400 O.2    32  ASP32      -0.2864
     60  CB        19.9070  -14.5360   -2.3220 C.3    32  ASP32       0.1436
     61  CG        21.1310  -15.4500   -2.4410 C.2    32  ASP32       0.3671
     62  OD1       21.2630  -16.1620   -3.4850 O.co2  32  ASP32      -0.2456
     63  OD2       21.9660  -15.4440   -1.5030 O.co2  32  ASP32      -0.2456
     64  N         14.2630  -20.5820   -0.3410 N.3    38  LEU38      -0.1245
     65  CA        13.8590  -19.9170   -1.5870 C.3    38  LEU38       0.1561
     66  C         14.0650  -20.7650   -2.8570 C.2    38  LEU38       0.2260
     67  O         14.0890  -20.2100   -3.9560 O.2    38  LEU38      -0.2867
     68  CB        14.5270  -18.5220   -1.7170 C.3    38  LEU38       0.0270
     69  CG        14.4410  -17.6220   -0.4680 C.3    38  LEU38       0.0019
     70  CD1       15.1640  -16.3220   -0.6660 C.3    38  LEU38       0.0001
     71  CD2       13.0210  -17.3350   -0.0790 C.3    38  LEU38       0.0001
     72  N         11.2950  -20.0550   -5.2550 N.3    41  TYR41      -0.1241
     73  CA        11.0630  -18.6510   -5.6120 C.3    41  TYR41       0.1605
     74  C         10.8260  -18.4570   -7.1150 C.2    41  TYR41       0.2264
     75  O          9.7770  -17.9290   -7.5010 O.2    41  TYR41      -0.2867
     76  CB        12.1730  -17.7330   -5.0640 C.3    41  TYR41       0.0534
     77  CG        11.7910  -16.2670   -5.1340 C.ar   41  TYR41      -0.0201
     78  CD1       10.9650  -15.6920   -4.1680 C.ar   41  TYR41      -0.0009
     79  CD2       12.1380  -15.4940   -6.2320 C.ar   41  TYR41      -0.0009
     80  CE1       10.5640  -14.3530   -4.2630 C.ar   41  TYR41       0.0417
     81  CE2       11.7920  -14.1450   -6.3120 C.ar   41  TYR41       0.0417
     82  CZ        10.9830  -13.5860   -5.3460 C.ar   41  TYR41       0.1957
     83  OH        10.6380  -12.2720   -5.5190 O.3    41  TYR41      -0.2866
     84  N          7.7120   -5.2860   -7.8810 N.3    76  MET76      -0.1245
     85  CA         8.5830   -5.6600   -6.7970 C.3    76  MET76       0.1570
     86  C          7.7840   -5.9100   -5.5320 C.2    76  MET76       0.2261
     87  O          8.0200   -6.9110   -4.8530 O.2    76  MET76      -0.2867
     88  CB         9.6860   -4.5910   -6.6210 C.3    76  MET76       0.0387
     89  CG        10.4420   -4.6990   -5.3070 C.3    76  MET76       0.0595
     90  SD        11.5810   -3.3440   -5.1580 S.3    76  MET76      -0.1393
     91  CE        10.4390   -1.9950   -4.5340 C.3    76  MET76       0.0692
     92  N          6.6270   -9.8050   -3.5990 N.3    80  CYS80      -0.1235
     93  CA         6.7660  -10.0410   -2.1820 C.3    80  CYS80       0.1677
     94  C          5.4390  -10.5010   -1.5850 C.2    80  CYS80       0.2270
     95  O          5.4130  -11.5160   -0.8950 O.2    80  CYS80      -0.2867
     96  CB         7.3100   -8.8010   -1.4840 C.3    80  CYS80       0.0956
     97  SG         7.5940   -9.0280    0.2800 S.3    80  CYS80      -0.0801
     98  N          4.5620  -14.1980   -3.0350 N.3    83  TYR83      -0.1227
     99  CA         5.4240  -15.2940   -2.6000 C.3    83  TYR83       0.1736
    100  C          5.3370  -15.6230   -1.1210 C.2    83  TYR83       0.2595
    101  O          5.2650  -16.7950   -0.7740 O.2    83  TYR83      -0.2718
    102  CB         6.8870  -15.0540   -3.0260 C.3    83  TYR83       0.0548
    103  CG         7.8220  -16.1390   -2.5320 C.ar   83  TYR83      -0.0200
    104  CD1        7.8480  -17.3920   -3.1340 C.ar   83  TYR83      -0.0009
    105  CD2        8.6280  -15.9360   -1.4170 C.ar   83  TYR83      -0.0009
    106  CE1        8.6710  -18.4090   -2.6540 C.ar   83  TYR83       0.0417
    107  CE2        9.4510  -16.9490   -0.9250 C.ar   83  TYR83       0.0417
    108  CZ         9.4670  -18.1850   -1.5480 C.ar   83  TYR83       0.1957
    109  OH        10.2500  -19.2030   -1.0460 O.3    83  TYR83      -0.2866
    110  N          5.3810  -14.6270   -0.2510 N.am   84  ASN84      -0.1974
    111  CA         5.4450  -14.8400    1.2030 C.3    84  ASN84       0.1688
    112  C          4.1290  -15.0810    1.9500 C.2    84  ASN84       0.2292
    113  O          3.0910  -14.6580    1.4720 O.2    84  ASN84      -0.2864
    114  CB         6.1470  -13.6650    1.8260 C.3    84  ASN84       0.1181
    115  CG         7.5380  -13.5600    1.3330 C.2    84  ASN84       0.2629
    116  OD1        8.4190  -14.2720    1.7890 O.2    84  ASN84      -0.2716
    117  ND2        7.7490  -12.7440    0.3110 N.am   84  ASN84      -0.0877
    118  N          8.6120   -9.7000    6.1720 N.3    90  VAL90      -0.1245
    119  CA         8.9740   -9.0430    4.9090 C.3    90  VAL90       0.1561
    120  C          7.7600   -8.3920    4.2370 C.2    90  VAL90       0.2260
    121  O          7.9090   -7.3730    3.5580 O.2    90  VAL90      -0.2867
    122  CB         9.7490   -9.9840    3.9550 C.3    90  VAL90       0.0252
    123  CG1        8.7910  -10.9200    3.2220 C.3    90  VAL90       0.0019
    124  CG2       10.5950   -9.1740    2.9650 C.3    90  VAL90       0.0019
@<TRIPOS>BOND
     1    47    46    1
     2    47    48    1
     3    84    85    1
     4    46    43    1
     5    75    74    2
     6    74    73    1
     7    48    42    1
     8    85    88    1
     9    85    86    1
    10    88    89    1
    11    43    42    1
    12    43    44    1
    13    81    79   ar
    14    81    82   ar
    15    79    77   ar
    16    42    35   am
    17    52    51    2
    18    73    72    1
    19    73    76    1
    20    86    87    2
    21    83    82    1
    22    82    80   ar
    23    89    90    1
    24    44    49   am
    25    44    45    2
    26    90    91    1
    27    49    50    1
    28    77    76    1
    29    77    78   ar
    30    41    40    1
    31    35    34    1
    32    35    36    2
    33    51    50    1
    34    51    56   am
    35    39    40    1
    36    39    38    1
    37    34    37    1
    38    34    33    1
    39    80    78   ar
    40    53    50    1
    41    53    55    1
    42    53    54    1
    43    67    66    2
    44    37    38    1
    45    92    93    1
    46    58    57    1
    47    58    59    2
    48    25    24    2
    49    57    56    1
    50    57    60    1
    51    62    61   ar
    52   104   106   ar
    53   104   103   ar
    54    98    99    1
    55   102    99    1
    56   102   103    1
    57    66    65    1
    58   106   108   ar
    59    99   100    1
    60   103   105   ar
    61    61    60    1
    62    61    63   ar
    63    24    23    1
    64    93    94    1
    65    93    96    1
    66    68    65    1
    67    68    69    1
    68    23    26    1
    69    23    22    1
    70    65    64    1
    71    94    95    2
    72    26    27    1
    73   108   109    1
    74   108   107   ar
    75    96    97    1
    76   105   107   ar
    77    28    27   ar
    78    28    30   ar
    79   100   101    2
    80   100   110   am
    81    27    29   ar
    82    70    69    1
    83    30    32   ar
    84    18    17    2
    85    69    71    1
    86   110   111    1
    87    22    17   am
    88    17    16    1
    89   117   115   am
    90    29    31   ar
    91    32    31   ar
    92   111   114    1
    93   111   112    1
    94     4     3    2
    95   115   116    2
    96   115   114    1
    97   113   112    2
    98    16    19    1
    99    16    15    1
   100     3    15   am
   101     3     2    1
   102    19    20    1
   103    15    21    1
   104     2     1    1
   105     2     5    1
   106   124   122    1
   107   123   122    1
   108    21    20    1
   109   121   120    2
   110   122   119    1
   111     5     6    1
   112   120   119    1
   113    11    13   ar
   114    11     8   ar
   115    13    14   ar
   116   119   118    1
   117     6     8   ar
   118     6     7   ar
   119     8    10   ar
   120    14    12   ar
   121     7     9   ar
   122    10    12   ar
   123    10     9   ar
