@<TRIPOS>MOLECULE
tmp/5uewB00.pdb
 166 163 0 0 0
SMALL
GASTEIGER

@<TRIPOS>ATOM
      1  N         -9.6310  -17.4870  -13.4910 N.3    27  TRP27      -0.1228
      2  CA        -9.9600  -17.0560  -12.1300 C.3    27  TRP27       0.1722
      3  C        -10.6310  -15.6480  -12.0190 C.2    27  TRP27       0.2437
      4  O        -11.4920  -15.5210  -11.1520 O.2    27  TRP27      -0.2733
      5  CB        -8.7790  -17.1860  -11.1610 C.3    27  TRP27       0.0563
      6  CG        -7.6860  -16.2100  -11.4090 C.ar   27  TRP27       0.0003
      7  CD1       -6.6280  -16.3610  -12.2570 C.ar   27  TRP27       0.0946
      8  CD2       -7.6200  -14.8660  -10.9190 C.ar   27  TRP27       0.0152
      9  NE1       -5.8880  -15.2010  -12.2970 N.ar   27  TRP27      -0.2442
     10  CE2       -6.4630  -14.2770  -11.4680 C.ar   27  TRP27       0.0810
     11  CE3       -8.3820  -14.1250   -9.9940 C.ar   27  TRP27       0.0012
     12  CZ2       -6.1120  -12.9490  -11.2130 C.ar   27  TRP27       0.0191
     13  CZ3       -7.9950  -12.8290   -9.7040 C.ar   27  TRP27       0.0001
     14  CH2       -6.8540  -12.2720  -10.2790 C.ar   27  TRP27       0.0015
     15  N        -10.3480  -14.5980  -12.8360 N.am   28  PRO28      -0.2718
     16  CA       -11.1060  -13.3330  -12.6680 C.3    28  PRO28       0.1535
     17  C        -12.6030  -13.4570  -13.0030 C.2    28  PRO28       0.2598
     18  O        -13.3550  -12.5460  -12.6700 O.2    28  PRO28      -0.2715
     19  CB       -10.4360  -12.3720  -13.6530 C.3    28  PRO28       0.0310
     20  CG        -9.1360  -13.0090  -14.0130 C.3    28  PRO28       0.0237
     21  CD        -9.3910  -14.4830  -13.9530 C.3    28  PRO28       0.0939
     22  N        -13.0270  -14.5850  -13.6310 N.am   29  PHE29      -0.1974
     23  CA       -14.4040  -14.8650  -14.0760 C.3    29  PHE29       0.1639
     24  C        -15.1640  -15.8310  -13.1830 C.2    29  PHE29       0.2290
     25  O        -16.3140  -16.1430  -13.4690 O.2    29  PHE29      -0.2864
     26  CB       -14.3950  -15.3940  -15.5250 C.3    29  PHE29       0.0560
     27  CG       -13.6320  -14.4790  -16.4490 C.ar   29  PHE29      -0.0200
     28  CD1      -14.1870  -13.2750  -16.8700 C.ar   29  PHE29      -0.0042
     29  CD2      -12.3090  -14.7540  -16.7860 C.ar   29  PHE29      -0.0042
     30  CE1      -13.4650  -12.4020  -17.6810 C.ar   29  PHE29      -0.0003
     31  CE2      -11.5780  -13.8790  -17.5970 C.ar   29  PHE29      -0.0003
     32  CZ       -12.1470  -12.6940  -18.0130 C.ar   29  PHE29      -0.0000
     33  N        -16.2820  -15.4280  -10.1070 N.3    31  LYS31      -0.1231
     34  CA       -17.2480  -14.7960   -9.2200 C.3    31  LYS31       0.1678
     35  C        -17.6630  -13.4740   -9.8220 C.2    31  LYS31       0.2434
     36  O        -16.9380  -12.9820  -10.6840 O.2    31  LYS31      -0.2733
     37  CB       -16.6270  -14.5840   -7.8110 C.3    31  LYS31       0.0284
     38  CG       -16.4470  -15.8580   -6.9790 C.3    31  LYS31       0.0035
     39  CD       -17.7730  -16.5740   -6.6630 C.3    31  LYS31       0.0206
     40  CE       -17.6560  -17.6300   -5.5920 C.3    31  LYS31       0.1093
     41  NZ       -17.4750  -17.0290   -4.2440 N.3    31  LYS31      -0.1314
     42  N        -18.8070  -12.8800   -9.4140 N.am   32  PRO32      -0.2718
     43  CA       -19.1980  -11.5880   -9.9980 C.3    32  PRO32       0.1535
     44  C        -18.1610  -10.5050   -9.7480 C.2    32  PRO32       0.2598
     45  O        -17.5580  -10.4630   -8.6660 O.2    32  PRO32      -0.2715
     46  CB       -20.5230  -11.2580   -9.2900 C.3    32  PRO32       0.0310
     47  CG       -20.9960  -12.5260   -8.7300 C.3    32  PRO32       0.0237
     48  CD       -19.7820  -13.3110   -8.3900 C.3    32  PRO32       0.0939
     49  N        -17.9860   -9.6080  -10.7250 N.am   33  VAL33      -0.1964
     50  CA       -17.0600   -8.4760  -10.5950 C.3    33  VAL33       0.1727
     51  C        -17.4790   -7.6750   -9.3480 C.2    33  VAL33       0.2616
     52  O        -18.6490   -7.3050   -9.2090 O.2    33  VAL33      -0.2715
     53  CB       -17.0680   -7.5900  -11.8530 C.3    33  VAL33       0.0290
     54  CG1      -16.4020   -6.2360  -11.5970 C.3    33  VAL33       0.0023
     55  CG2      -16.4080   -8.3150  -13.0180 C.3    33  VAL33       0.0023
     56  N        -16.5210   -7.4400   -8.4410 N.am   34  ASP34      -0.1971
     57  CA       -16.7780   -6.6540   -7.2440 C.3    34  ASP34       0.1709
     58  C        -16.2110   -5.2620   -7.5320 C.2    34  ASP34       0.2293
     59  O        -15.0360   -4.9940   -7.2750 O.2    34  ASP34      -0.2864
     60  CB       -16.1150   -7.3080   -6.0220 C.3    34  ASP34       0.1436
     61  CG       -16.4960   -6.6830   -4.6940 C.2    34  ASP34       0.3671
     62  OD1      -16.7800   -5.4550   -4.6660 O.co2  34  ASP34      -0.2456
     63  OD2      -16.3760   -7.3750   -3.6690 O.co2  34  ASP34      -0.2456
     64  N        -12.5480   -3.4820   -6.3070 N.3    38  LEU38      -0.1245
     65  CA       -11.5800   -3.2270   -7.3750 C.3    38  LEU38       0.1561
     66  C        -11.4180   -1.7400   -7.7260 C.2    38  LEU38       0.2260
     67  O        -10.5260   -1.4110   -8.5120 O.2    38  LEU38      -0.2867
     68  CB       -12.0230   -4.0020   -8.6440 C.3    38  LEU38       0.0270
     69  CG       -12.0060   -5.5490   -8.6220 C.3    38  LEU38       0.0019
     70  CD1      -12.9830   -6.0880   -9.6620 C.3    38  LEU38       0.0001
     71  CD2      -10.6250   -6.1000   -8.9600 C.3    38  LEU38       0.0001
     72  N        -13.5470   -0.0950   -9.5470 N.3    40  LEU40      -0.1245
     73  CA       -13.9660   -0.0510  -10.9590 C.3    40  LEU40       0.1561
     74  C        -15.0160    1.0080  -11.0990 C.2    40  LEU40       0.2260
     75  O        -16.2060    0.7900  -10.8340 O.2    40  LEU40      -0.2867
     76  CB       -14.4450   -1.4110  -11.4570 C.3    40  LEU40       0.0270
     77  CG       -13.4290   -2.5730  -11.4450 C.3    40  LEU40       0.0019
     78  CD1      -13.9230   -3.6930  -12.3200 C.3    40  LEU40       0.0001
     79  CD2      -11.9940   -2.1360  -11.8590 C.3    40  LEU40       0.0001
     80  N        -18.6110    0.9610  -13.0990 N.3    43  TYR43      -0.1241
     81  CA       -18.7780   -0.3590  -13.7120 C.3    43  TYR43       0.1605
     82  C        -20.2660   -0.6850  -13.9930 C.2    43  TYR43       0.2264
     83  O        -20.6430   -1.0130  -15.1120 O.2    43  TYR43      -0.2867
     84  CB       -18.1210   -1.4500  -12.8490 C.3    43  TYR43       0.0534
     85  CG       -18.2340   -2.8190  -13.4770 C.ar   43  TYR43      -0.0201
     86  CD1      -17.3040   -3.2520  -14.4150 C.ar   43  TYR43      -0.0009
     87  CD2      -19.2760   -3.6820  -13.1380 C.ar   43  TYR43      -0.0009
     88  CE1      -17.4170   -4.4960  -15.0260 C.ar   43  TYR43       0.0417
     89  CE2      -19.3870   -4.9450  -13.7240 C.ar   43  TYR43       0.0417
     90  CZ       -18.4540   -5.3420  -14.6780 C.ar   43  TYR43       0.1957
     91  OH       -18.5020   -6.5690  -15.2860 O.3    43  TYR43      -0.2866
     92  N        -22.3770  -10.6990  -15.5560 N.3    51  MET51      -0.1245
     93  CA       -22.4060  -12.1530  -15.6950 C.3    51  MET51       0.1570
     94  C        -21.0390  -12.7160  -15.3320 C.2    51  MET51       0.2261
     95  O        -20.0470  -12.0270  -15.4870 O.2    51  MET51      -0.2867
     96  CB       -22.7960  -12.5420  -17.1550 C.3    51  MET51       0.0387
     97  CG       -23.1350  -14.0460  -17.3660 C.3    51  MET51       0.0595
     98  SD       -24.1920  -14.8410  -16.1350 S.3    51  MET51      -0.1393
     99  CE       -25.6990  -13.9080  -16.3280 C.3    51  MET51       0.0692
    100  N        -20.6090  -12.4620  -20.5090 N.3    78  MET78      -0.1245
    101  CA       -19.5200  -12.3480  -19.5770 C.3    78  MET78       0.1570
    102  C        -18.2550  -11.8300  -20.2770 C.2    78  MET78       0.2261
    103  O        -17.6180  -10.8830  -19.7890 O.2    78  MET78      -0.2867
    104  CB       -19.2920  -13.7210  -18.8970 C.3    78  MET78       0.0387
    105  CG       -18.1180  -13.7160  -17.9480 C.3    78  MET78       0.0595
    106  SD       -17.8040  -15.3760  -17.3380 S.3    78  MET78      -0.1393
    107  CE       -16.7480  -16.0210  -18.6200 C.3    78  MET78       0.0692
    108  N        -16.4850   -7.7640  -20.2000 N.3    82  CYS82      -0.1235
    109  CA       -15.0520   -7.5770  -19.9720 C.3    82  CYS82       0.1677
    110  C        -14.4220   -6.7440  -21.1090 C.2    82  CYS82       0.2270
    111  O        -13.7040   -5.7880  -20.8330 O.2    82  CYS82      -0.2867
    112  CB       -14.3650   -8.9350  -19.8290 C.3    82  CYS82       0.0956
    113  SG       -12.6000   -8.8060  -19.4660 S.3    82  CYS82      -0.0801
    114  N        -15.9050   -2.9250  -20.8270 N.3    85  TYR85      -0.1227
    115  CA       -15.4930   -2.0810  -19.7180 C.3    85  TYR85       0.1736
    116  C        -13.9890   -1.7480  -19.6720 C.2    85  TYR85       0.2595
    117  O        -13.5960   -0.5960  -19.4230 O.2    85  TYR85      -0.2718
    118  CB       -15.9540   -2.6970  -18.3820 C.3    85  TYR85       0.0548
    119  CG       -15.5940   -1.8030  -17.2180 C.ar   85  TYR85      -0.0200
    120  CD1      -16.3300   -0.6510  -16.9460 C.ar   85  TYR85      -0.0009
    121  CD2      -14.4200   -2.0120  -16.4910 C.ar   85  TYR85      -0.0009
    122  CE1      -15.9330    0.2460  -15.9440 C.ar   85  TYR85       0.0417
    123  CE2      -14.0440   -1.1490  -15.4550 C.ar   85  TYR85       0.0417
    124  CZ       -14.7910   -0.0100  -15.2020 C.ar   85  TYR85       0.1957
    125  OH       -14.4260    0.8520  -14.1900 O.3    85  TYR85      -0.2866
    126  N        -13.1530   -2.7730  -19.8060 N.am   86  ASN86      -0.1974
    127  CA       -11.7070   -2.6460  -19.6140 C.3    86  ASN86       0.1688
    128  C        -10.9260   -2.0550  -20.7820 C.2    86  ASN86       0.2292
    129  O        -11.3040   -2.2740  -21.9330 O.2    86  ASN86      -0.2864
    130  CB       -11.1260   -4.0000  -19.2330 C.3    86  ASN86       0.1181
    131  CG       -11.7470   -4.5340  -17.9850 C.2    86  ASN86       0.2629
    132  OD1      -11.4820   -4.0520  -16.8750 O.2    86  ASN86      -0.2716
    133  ND2      -12.6520   -5.4940  -18.1460 N.am   86  ASN86      -0.0877
    134  N         -5.4720   -4.1280  -20.9510 N.3    90  HIS90      -0.1226
    135  CA        -5.5430   -4.6480  -19.5800 C.3    90  HIS90       0.1752
    136  C         -5.3100   -6.1760  -19.6590 C.2    90  HIS90       0.2596
    137  O         -5.7100   -6.8030  -20.6410 O.2    90  HIS90      -0.2718
    138  CB        -6.9130   -4.3590  -18.9460 C.3    90  HIS90       0.0759
    139  CG        -6.9280   -4.5560  -17.4650 C.ar   90  HIS90       0.0818
    140  ND1       -6.8670   -5.8110  -16.9090 N.ar   90  HIS90      -0.2268
    141  CD2       -6.9840   -3.6400  -16.4720 C.ar   90  HIS90       0.1154
    142  CE1       -6.9000   -5.6330  -15.6010 C.ar   90  HIS90       0.1986
    143  NE2       -6.9670   -4.3390  -15.2880 N.ar   90  HIS90      -0.2212
    144  N         -4.6550   -6.7540  -18.6320 N.am   91  ASP91      -0.1960
    145  CA        -4.3680   -8.1800  -18.5570 C.3    91  ASP91       0.1840
    146  C         -5.6310   -9.0280  -18.5750 C.2    91  ASP91       0.2621
    147  O         -5.5960  -10.1290  -19.1060 O.2    91  ASP91      -0.2715
    148  CB        -3.5710   -8.5160  -17.2860 C.3    91  ASP91       0.1450
    149  CG        -2.1060   -8.1340  -17.3270 C.2    91  ASP91       0.3671
    150  OD1       -1.6030   -7.8090  -18.4360 O.co2  91  ASP91      -0.2456
    151  OD2       -1.4610   -8.1500  -16.2530 O.co2  91  ASP91      -0.2456
    152  N         -6.7250   -8.5340  -17.9860 N.am   92  VAL92      -0.1977
    153  CA        -7.9930   -9.2870  -17.9290 C.3    92  VAL92       0.1596
    154  C         -8.5940   -9.4720  -19.3320 C.2    92  VAL92       0.2287
    155  O         -9.2540  -10.4830  -19.5650 O.2    92  VAL92      -0.2864
    156  CB        -8.9890   -8.7190  -16.8870 C.3    92  VAL92       0.0276
    157  CG1       -9.6410   -7.4100  -17.3370 C.3    92  VAL92       0.0022
    158  CG2      -10.0280   -9.7640  -16.4840 C.3    92  VAL92       0.0022
    159  N         -6.7850  -12.4550  -20.7600 N.3    95  MET95      -0.1245
    160  CA        -7.3000  -13.6660  -20.1130 C.3    95  MET95       0.1570
    161  C         -8.6750  -14.0460  -20.6860 C.2    95  MET95       0.2261
    162  O         -8.9400  -15.2270  -20.8820 O.2    95  MET95      -0.2867
    163  CB        -7.3980  -13.4580  -18.5750 C.3    95  MET95       0.0387
    164  CG        -6.0710  -13.1690  -17.9250 C.3    95  MET95       0.0595
    165  SD        -6.2410  -12.8920  -16.1390 S.3    95  MET95      -0.1393
    166  CE        -4.7190  -12.1890  -15.7960 C.3    95  MET95       0.0692
@<TRIPOS>BOND
     1   129   128    2
     2   110   111    2
     3   110   109    1
     4   134   135    1
     5   162   161    2
     6   114   115    1
     7   128   127    1
     8   159   160    1
     9   161   160    1
    10   137   136    2
    11   100   101    1
    12   102   103    2
    13   102   101    1
    14   108   109    1
    15   160   163    1
    16   109   112    1
    17   112   113    1
    18   126   116   am
    19   126   127    1
    20   115   116    1
    21   115   118    1
    22   116   117    2
    23   136   135    1
    24   136   144   am
    25   127   130    1
    26   135   138    1
    27   101   104    1
    28   155   154    2
    29   154   153    1
    30   130   131    1
    31   147   146    2
    32   138   139    1
    33   104   105    1
    34   144   145    1
    35   107   106    1
    36   163   164    1
    37   146   145    1
    38   146   152   am
    39   145   148    1
    40   150   149   ar
    41   118   119    1
    42   133   131   am
    43    32    30   ar
    44    32    31   ar
    45   152   153    1
    46   131   132    2
    47   105   106    1
    48   153   156    1
    49   164   165    1
    50    30    28   ar
    51    31    29   ar
    52   139   140   ar
    53   139   141   ar
    54    97    96    1
    55    97    98    1
    56   157   156    1
    57   149   148    1
    58   149   151   ar
    59   119   120   ar
    60   119   121   ar
    61    96    93    1
    62   120   122   ar
    63   140   142   ar
    64   156   158    1
    65    28    27   ar
    66    29    27   ar
    67   121   123   ar
    68   141   143   ar
    69    27    26    1
    70    99    98    1
    71   165   166    1
    72   122   124   ar
    73    93    92    1
    74    93    94    1
    75   142   143   ar
    76    26    23    1
    77    95    94    2
    78   123   124   ar
    79    91    90    1
    80   124   125    1
    81    83    82    2
    82    88    90   ar
    83    88    86   ar
    84    90    89   ar
    85    86    85   ar
    86    23    22    1
    87    23    24    1
    88    20    21    1
    89    20    19    1
    90    82    81    1
    91    21    15    1
    92    89    87   ar
    93    81    80    1
    94    81    84    1
    95    19    16    1
    96    22    17   am
    97     1     2    1
    98    85    87   ar
    99    85    84    1
   100    25    24    2
   101    55    53    1
   102    17    18    2
   103    17    16    1
   104    15    16    1
   105    15     3   am
   106    78    77    1
   107     9     7   ar
   108     9    10   ar
   109     7     6   ar
   110     2     3    1
   111     2     5    1
   112     3     4    2
   113    79    77    1
   114    53    54    1
   115    53    50    1
   116    10    12   ar
   117    10     8   ar
   118    76    77    1
   119    76    73    1
   120     6     5    1
   121     6     8   ar
   122    12    14   ar
   123    74    73    1
   124    74    75    2
   125    73    72    1
   126     8    11   ar
   127    49    50    1
   128    49    44   am
   129    36    35    2
   130    50    51    1
   131    14    13   ar
   132    33    34    1
   133    43    44    1
   134    43    42    1
   135    43    46    1
   136    11    13   ar
   137    35    42   am
   138    35    34    1
   139    44    45    2
   140    70    69    1
   141    42    48    1
   142    51    52    2
   143    51    56   am
   144    46    47    1
   145    34    37    1
   146    71    69    1
   147    47    48    1
   148    68    69    1
   149    68    65    1
   150    67    66    2
   151    56    57    1
   152    37    38    1
   153    66    65    1
   154    58    59    2
   155    58    57    1
   156    65    64    1
   157    57    60    1
   158    38    39    1
   159    39    40    1
   160    60    61    1
   161    40    41    1
   162    61    62   ar
   163    61    63   ar
