@<TRIPOS>MOLECULE
tmp/5ueyA00.pdb
 159 157 0 0 0
SMALL
GASTEIGER

@<TRIPOS>ATOM
      1  N         11.2590    2.7160   20.4330 N.3    25  TRP25      -0.1228
      2  CA        10.0930    3.5670   20.1630 C.3    25  TRP25       0.1722
      3  C         10.4070    4.9080   19.4420 C.2    25  TRP25       0.2437
      4  O          9.5830    5.2750   18.6010 O.2    25  TRP25      -0.2733
      5  CB         9.2310    3.8090   21.4170 C.3    25  TRP25       0.0563
      6  CG         9.8690    4.6140   22.5100 C.ar   25  TRP25       0.0003
      7  CD1       10.5630    4.1350   23.5800 C.ar   25  TRP25       0.0946
      8  CD2        9.7970    6.0360   22.6810 C.ar   25  TRP25       0.0152
      9  NE1       10.9520    5.1710   24.3950 N.ar   25  TRP25      -0.2442
     10  CE2       10.5070    6.3510   23.8610 C.ar   25  TRP25       0.0810
     11  CE3        9.2260    7.0810   21.9350 C.ar   25  TRP25       0.0012
     12  CZ2       10.6560    7.6670   24.3160 C.ar   25  TRP25       0.0191
     13  CZ3        9.3760    8.3840   22.3850 C.ar   25  TRP25       0.0001
     14  CH2       10.0780    8.6660   23.5660 C.ar   25  TRP25       0.0015
     15  N         11.5400    5.6410   19.6570 N.am   26  PRO26      -0.2718
     16  CA        11.7460    6.8850   18.8900 C.3    26  PRO26       0.1535
     17  C         12.1680    6.6530   17.4310 C.2    26  PRO26       0.2598
     18  O         12.3830    7.6170   16.6960 O.2    26  PRO26      -0.2715
     19  CB        12.8290    7.6300   19.6910 C.3    26  PRO26       0.0310
     20  CG        13.0770    6.8110   20.9270 C.3    26  PRO26       0.0237
     21  CD        12.6640    5.4240   20.5890 C.3    26  PRO26       0.0939
     22  N         12.2530    5.3780   17.0040 N.am   27  PHE27      -0.1974
     23  CA        12.6620    4.9850   15.6530 C.3    27  PHE27       0.1639
     24  C         11.5410    4.3100   14.8440 C.2    27  PHE27       0.2290
     25  O         11.7510    3.9990   13.6690 O.2    27  PHE27      -0.2864
     26  CB        13.9240    4.0980   15.7130 C.3    27  PHE27       0.0560
     27  CG        15.0770    4.7250   16.4630 C.ar   27  PHE27      -0.0200
     28  CD1       15.9710    5.5700   15.8160 C.ar   27  PHE27      -0.0042
     29  CD2       15.2600    4.4820   17.8190 C.ar   27  PHE27      -0.0042
     30  CE1       17.0280    6.1600   16.5140 C.ar   27  PHE27      -0.0003
     31  CE2       16.3110    5.0800   18.5170 C.ar   27  PHE27      -0.0003
     32  CZ        17.1820    5.9210   17.8610 C.ar   27  PHE27      -0.0000
     33  N          8.2090    5.5320   13.9060 N.3    29  LYS29      -0.1231
     34  CA         7.6400    6.4610   12.9250 C.3    29  LYS29       0.1678
     35  C          8.6740    7.5300   12.5060 C.2    29  LYS29       0.2434
     36  O          9.6490    7.7180   13.2400 O.2    29  LYS29      -0.2733
     37  CB         6.3850    7.1320   13.5200 C.3    29  LYS29       0.0284
     38  CG         5.2100    6.1690   13.6790 C.3    29  LYS29       0.0035
     39  CD         4.1320    6.7580   14.5430 C.3    29  LYS29       0.0206
     40  CE         4.6110    6.9350   15.9690 C.3    29  LYS29       0.1093
     41  NZ         4.9430    5.6450   16.6150 N.3    29  LYS29      -0.1314
     42  N          8.4940    8.2560   11.3630 N.am   30  PRO30      -0.2718
     43  CA         9.4840    9.2870   10.9870 C.3    30  PRO30       0.1535
     44  C          9.5990   10.4250   11.9980 C.2    30  PRO30       0.2598
     45  O          8.6460   10.6980   12.7310 O.2    30  PRO30      -0.2715
     46  CB         8.9860    9.7950    9.6270 C.3    30  PRO30       0.0310
     47  CG         8.0310    8.7620    9.1410 C.3    30  PRO30       0.0237
     48  CD         7.4100    8.1750   10.3620 C.3    30  PRO30       0.0939
     49  N         10.7770   11.0750   12.0400 N.am   31  VAL31      -0.1964
     50  CA        11.0850   12.1790   12.9550 C.3    31  VAL31       0.1727
     51  C         10.1520   13.3760   12.7060 C.2    31  VAL31       0.2616
     52  O         10.1920   13.9800   11.6310 O.2    31  VAL31      -0.2715
     53  CB        12.5950   12.5600   12.9380 C.3    31  VAL31       0.0290
     54  CG1       12.8810   13.7600   13.8390 C.3    31  VAL31       0.0023
     55  CG2       13.4660   11.3730   13.3420 C.3    31  VAL31       0.0023
     56  N          9.2900   13.6790   13.6970 N.am   32  ASP32      -0.1971
     57  CA         8.3290   14.7800   13.6330 C.3    32  ASP32       0.1709
     58  C          9.0290   16.1090   13.9240 C.2    32  ASP32       0.2293
     59  O          9.4050   16.3810   15.0680 O.2    32  ASP32      -0.2864
     60  CB         7.1460   14.5400   14.5910 C.3    32  ASP32       0.1436
     61  CG         5.8020   14.9670   14.0330 C.2    32  ASP32       0.3671
     62  OD1        5.6530   16.1600   13.6840 O.co2  32  ASP32      -0.2456
     63  OD2        4.8890   14.1160   13.9710 O.co2  32  ASP32      -0.2456
     64  N          7.8920   18.2560   17.7300 N.3    36  LEU36      -0.1245
     65  CA         9.0210   18.3560   18.6630 C.3    36  LEU36       0.1561
     66  C          9.7390   19.7140   18.6080 C.2    36  LEU36       0.2260
     67  O         10.4900   20.0470   19.5290 O.2    36  LEU36      -0.2867
     68  CB        10.0140   17.2010   18.4470 C.3    36  LEU36       0.0270
     69  CG         9.6570   15.8810   19.1270 C.3    36  LEU36       0.0019
     70  CD1        8.9190   14.9550   18.1750 C.3    36  LEU36       0.0001
     71  CD2       10.8970   15.1920   19.6510 C.3    36  LEU36       0.0001
     72  N         11.8490   20.8090   15.9760 N.3    38  LEU38      -0.1245
     73  CA        13.1950   20.6240   15.4290 C.3    38  LEU38       0.1561
     74  C         13.2670   21.3340   14.0680 C.2    38  LEU38       0.2260
     75  O         13.1570   20.7020   13.0140 O.2    38  LEU38      -0.2867
     76  CB        13.5530   19.1200   15.3190 C.3    38  LEU38       0.0270
     77  CG        13.2650   18.2330   16.5430 C.3    38  LEU38       0.0019
     78  CD1       13.0500   16.7990   16.1320 C.3    38  LEU38       0.0001
     79  CD2       14.3710   18.3290   17.5850 C.3    38  LEU38       0.0001
     80  N         16.3200   20.3170   11.6780 N.3    41  TYR41      -0.1241
     81  CA        16.4660   18.8890   11.3740 C.3    41  TYR41       0.1605
     82  C         16.5950   18.6100    9.8730 C.2    41  TYR41       0.2264
     83  O         17.4880   17.8590    9.4800 O.2    41  TYR41      -0.2867
     84  CB        15.3470   18.0490   12.0200 C.3    41  TYR41       0.0534
     85  CG        15.5640   16.5540   11.9060 C.ar   41  TYR41      -0.0201
     86  CD1       16.4230   15.8840   12.7740 C.ar   41  TYR41      -0.0009
     87  CD2       14.9040   15.8060   10.9360 C.ar   41  TYR41      -0.0009
     88  CE1       16.6330   14.5100   12.6670 C.ar   41  TYR41       0.0417
     89  CE2       15.1070   14.4310   10.8190 C.ar   41  TYR41       0.0417
     90  CZ        15.9720   13.7870   11.6880 C.ar   41  TYR41       0.1957
     91  OH        16.1740   12.4330   11.5760 O.3    41  TYR41      -0.2866
     92  N         19.5320    5.4430    9.4820 N.3    76  MET76      -0.1245
     93  CA        18.6190    5.7820   10.5780 C.3    76  MET76       0.1570
     94  C         19.4120    6.0920   11.8600 C.2    76  MET76       0.2261
     95  O         19.1030    7.0700   12.5420 O.2    76  MET76      -0.2867
     96  CB        17.6180    4.6300   10.7980 C.3    76  MET76       0.0387
     97  CG        16.6030    4.8740   11.9000 C.3    76  MET76       0.0595
     98  SD        15.4750    3.4760   12.1460 S.3    76  MET76      -0.1393
     99  CE        16.5620    2.3040   12.9560 C.3    76  MET76       0.0692
    100  N         20.7340   10.0290   13.7020 N.3    80  CYS80      -0.1235
    101  CA        20.5560   10.2500   15.1370 C.3    80  CYS80       0.1677
    102  C         21.8500   10.7460   15.7920 C.2    80  CYS80       0.2270
    103  O         21.7930   11.6140   16.6650 O.2    80  CYS80      -0.2867
    104  CB        20.0300    8.9880   15.8150 C.3    80  CYS80       0.0956
    105  SG        19.5660    9.2140   17.5510 S.3    80  CYS80      -0.0801
    106  N         22.7430   14.7170   14.1480 N.3    83  TYR83      -0.1227
    107  CA        21.8900   15.8090   14.6150 C.3    83  TYR83       0.1736
    108  C         21.9620   16.0560   16.1280 C.2    83  TYR83       0.2595
    109  O         22.3380   17.1530   16.5470 O.2    83  TYR83      -0.2718
    110  CB        20.4300   15.6010   14.1520 C.3    83  TYR83       0.0548
    111  CG        19.4830   16.6950   14.6000 C.ar   83  TYR83      -0.0200
    112  CD1       19.4710   17.9360   13.9700 C.ar   83  TYR83      -0.0009
    113  CD2       18.5960   16.4890   15.6530 C.ar   83  TYR83      -0.0009
    114  CE1       18.6160   18.9530   14.3890 C.ar   83  TYR83       0.0417
    115  CE2       17.7320   17.4970   16.0790 C.ar   83  TYR83       0.0417
    116  CZ        17.7420   18.7260   15.4400 C.ar   83  TYR83       0.1957
    117  OH        16.8920   19.7250   15.8460 O.3    83  TYR83      -0.2866
    118  N         21.5650   15.0550   16.9300 N.am   84  ASN84      -0.1974
    119  CA        21.4890   15.1200   18.3910 C.3    84  ASN84       0.1688
    120  C         22.8460   15.2480   19.0990 C.2    84  ASN84       0.2292
    121  O         23.8400   14.7380   18.5760 O.2    84  ASN84      -0.2864
    122  CB        20.7140   13.9190   18.9280 C.3    84  ASN84       0.1181
    123  CG        19.3330   13.8000   18.3450 C.2    84  ASN84       0.2629
    124  OD1       18.3860   14.4550   18.7880 O.2    84  ASN84      -0.2716
    125  ND2       19.1940   12.9590   17.3350 N.am   84  ASN84      -0.0877
    126  N         22.7550   13.1300   24.6070 N.3    88  HIS88      -0.1226
    127  CA        21.2930   13.0040   24.5490 C.3    88  HIS88       0.1752
    128  C         20.8140   11.5690   24.8000 C.2    88  HIS88       0.2596
    129  O         21.5310   10.6160   24.4900 O.2    88  HIS88      -0.2718
    130  CB        20.7490   13.5220   23.2070 C.3    88  HIS88       0.0759
    131  CG        19.3190   13.9690   23.2670 C.ar   88  HIS88       0.0818
    132  ND1       18.2780   13.0600   23.3550 N.ar   88  HIS88      -0.2268
    133  CD2       18.8030   15.2200   23.2410 C.ar   88  HIS88       0.1154
    134  CE1       17.1710   13.7830   23.3890 C.ar   88  HIS88       0.1986
    135  NE2       17.4360   15.0870   23.3210 N.ar   88  HIS88      -0.2212
    136  N         19.5900   11.4280   25.3530 N.am   89  GLU89      -0.1965
    137  CA        18.9400   10.1490   25.6660 C.3    89  GLU89       0.1733
    138  C         18.7020    9.2800   24.4270 C.2    89  GLU89       0.2616
    139  O         18.8810    8.0650   24.5030 O.2    89  GLU89      -0.2715
    140  CB        17.6050   10.3820   26.3940 C.3    89  GLU89       0.0429
    141  CG        17.7470   10.7330   27.8640 C.3    89  GLU89       0.1163
    142  CD        16.4340   11.0600   28.5480 C.2    89  GLU89       0.3649
    143  OE1       16.2000   12.2550   28.8400 O.co2  89  GLU89      -0.2457
    144  OE2       15.6330   10.1260   28.7810 O.co2  89  GLU89      -0.2457
    145  N         18.3010    9.9020   23.2970 N.am   90  VAL90      -0.1977
    146  CA        18.0040    9.2230   22.0300 C.3    90  VAL90       0.1596
    147  C         19.2730    8.5910   21.3890 C.2    90  VAL90       0.2287
    148  O         19.1510    7.5930   20.6780 O.2    90  VAL90      -0.2864
    149  CB        17.2110   10.1460   21.0550 C.3    90  VAL90       0.0276
    150  CG1       18.0950   11.2140   20.4150 C.3    90  VAL90       0.0022
    151  CG2       16.4590    9.3420   19.9960 C.3    90  VAL90       0.0022
    152  N         19.8690    5.3390   23.2090 N.3    93  MET93      -0.1245
    153  CA        18.8020    4.4460   22.7470 C.3    93  MET93       0.1570
    154  C         19.1380    3.8950   21.3620 C.2    93  MET93       0.2261
    155  O         18.8200    2.7400   21.0730 O.2    93  MET93      -0.2867
    156  CB        17.4560    5.1820   22.7090 C.3    93  MET93       0.0387
    157  CG        16.8600    5.4140   24.0730 C.3    93  MET93       0.0595
    158  SD        15.6670    6.7660   24.0610 S.3    93  MET93      -0.1393
    159  CE        14.2380    5.9100   24.5880 C.3    93  MET93       0.0692
@<TRIPOS>BOND
     1    47    46    1
     2    47    48    1
     3    83    82    2
     4    92    93    1
     5    46    43    1
     6    82    81    1
     7    48    42    1
     8    93    96    1
     9    93    94    1
    10    96    97    1
    11    89    87   ar
    12    89    90   ar
    13    87    85   ar
    14    43    42    1
    15    43    44    1
    16    42    35   am
    17    81    80    1
    18    81    84    1
    19    91    90    1
    20    52    51    2
    21    90    88   ar
    22    94    95    2
    23    97    98    1
    24    85    84    1
    25    85    86   ar
    26    44    49   am
    27    44    45    2
    28    49    50    1
    29    98    99    1
    30    35    34    1
    31    35    36    2
    32    88    86   ar
    33    51    50    1
    34    51    56   am
    35    34    37    1
    36    34    33    1
    37    53    50    1
    38    53    55    1
    39    53    54    1
    40    75    74    2
    41    37    38    1
    42    57    56    1
    43    57    58    1
    44    57    60    1
    45    25    24    2
    46    38    39    1
    47    62    61   ar
    48   100   101    1
    49    58    59    2
    50   112   114   ar
    51   112   111   ar
    52    63    61   ar
    53    61    60    1
    54    74    73    1
    55   106   107    1
    56   110   111    1
    57   110   107    1
    58   114   116   ar
    59    39    40    1
    60   111   113   ar
    61   107   108    1
    62    24    23    1
    63   101   102    1
    64   101   104    1
    65    76    73    1
    66    76    77    1
    67    73    72    1
    68   116   117    1
    69   116   115   ar
    70   113   115   ar
    71    23    26    1
    72    23    22    1
    73    26    27    1
    74   102   103    2
    75   104   105    1
    76    28    27   ar
    77    28    30   ar
    78    40    41    1
    79   108   109    2
    80   108   118   am
    81    78    77    1
    82    27    29   ar
    83    30    32   ar
    84    77    79    1
    85    18    17    2
    86   118   119    1
    87    22    17   am
    88   125   123   am
    89    17    16    1
    90    64    65    1
    91    29    31   ar
    92    32    31   ar
    93    70    69    1
    94   123   124    2
    95   123   122    1
    96   119   122    1
    97   119   120    1
    98    68    65    1
    99    68    69    1
   100   121   120    2
   101     4     3    2
   102    66    65    1
   103    66    67    2
   104    16    15    1
   105    16    19    1
   106    69    71    1
   107     3    15   am
   108     3     2    1
   109    15    21    1
   110    19    20    1
   111   151   149    1
   112     2     1    1
   113     2     5    1
   114   150   149    1
   115    21    20    1
   116   148   147    2
   117   149   146    1
   118   155   154    2
   119   154   153    1
   120   147   146    1
   121     5     6    1
   122    11    13   ar
   123    11     8   ar
   124   146   145    1
   125    13    14   ar
   126     6     8   ar
   127     6     7   ar
   128     8    10   ar
   129   156   153    1
   130   156   157    1
   131   153   152    1
   132   130   131    1
   133   130   127    1
   134   133   131   ar
   135   133   135   ar
   136   131   132   ar
   137   145   138   am
   138   135   134   ar
   139   132   134   ar
   140    14    12   ar
   141     7     9   ar
   142    10    12   ar
   143    10     9   ar
   144   158   157    1
   145   158   159    1
   146   138   139    2
   147   138   137    1
   148   129   128    2
   149   127   126    1
   150   127   128    1
   151   128   136   am
   152   136   137    1
   153   137   140    1
   154   140   141    1
   155   141   142    1
   156   142   144   ar
   157   142   143   ar
