@<TRIPOS>MOLECULE
tmp/5uezA00.pdb
 136 134 0 0 0
SMALL
GASTEIGER

@<TRIPOS>ATOM
      1  N         15.8630    2.3120   -2.9680 N.3    26  TRP26      -0.1228
      2  CA        17.0060    3.1390   -2.5970 C.3    26  TRP26       0.1722
      3  C         16.6770    4.4640   -1.8670 C.2    26  TRP26       0.2437
      4  O         17.4680    4.8130   -0.9780 O.2    26  TRP26      -0.2733
      5  CB        17.9480    3.3920   -3.7810 C.3    26  TRP26       0.0563
      6  CG        17.3740    4.2310   -4.8740 C.ar   26  TRP26       0.0003
      7  CD1       16.7770    3.7950   -6.0210 C.ar   26  TRP26       0.0946
      8  CD2       17.3530    5.6590   -4.9270 C.ar   26  TRP26       0.0152
      9  NE1       16.3510    4.8670   -6.7660 N.ar   26  TRP26      -0.2442
     10  CE2       16.6810    6.0250   -6.1110 C.ar   26  TRP26       0.0810
     11  CE3       17.8230    6.6720   -4.0690 C.ar   26  TRP26       0.0012
     12  CZ2       16.5120    7.3610   -6.4880 C.ar   26  TRP26       0.0191
     13  CZ3       17.6150    7.9960   -4.4240 C.ar   26  TRP26       0.0001
     14  CH2       16.9700    8.3270   -5.6250 C.ar   26  TRP26       0.0015
     15  N         15.5580    5.1960   -2.1150 N.am   27  PRO27      -0.2718
     16  CA        15.3350    6.4490   -1.3670 C.3    27  PRO27       0.1535
     17  C         15.1070    6.2240    0.1230 C.2    27  PRO27       0.2598
     18  O         15.1730    7.1760    0.9220 O.2    27  PRO27      -0.2715
     19  CB        14.0610    7.0190   -2.0030 C.3    27  PRO27       0.0310
     20  CG        14.0530    6.4110   -3.4110 C.3    27  PRO27       0.0237
     21  CD        14.5240    5.0180   -3.1670 C.3    27  PRO27       0.0939
     22  N         14.8080    4.9630    0.4780 N.am   28  PHE28      -0.1974
     23  CA        14.4400    4.6120    1.8450 C.3    28  PHE28       0.1639
     24  C         15.5480    3.9580    2.6180 C.2    28  PHE28       0.2290
     25  O         15.3560    3.6880    3.7970 O.2    28  PHE28      -0.2864
     26  CB        13.1820    3.6940    1.8090 C.3    28  PHE28       0.0560
     27  CG        12.0830    4.3350    0.9910 C.ar   28  PHE28      -0.0200
     28  CD1       11.3770    5.4190    1.4860 C.ar   28  PHE28      -0.0042
     29  CD2       11.8890    3.9760   -0.3390 C.ar   28  PHE28      -0.0042
     30  CE1       10.4390    6.0920    0.6800 C.ar   28  PHE28      -0.0003
     31  CE2       10.9430    4.6290   -1.1300 C.ar   28  PHE28      -0.0003
     32  CZ        10.2570    5.7100   -0.6260 C.ar   28  PHE28      -0.0000
     33  N         16.5960   10.6170    5.0720 N.3    32  VAL32      -0.1231
     34  CA        16.4410   11.6180    4.0190 C.3    32  VAL32       0.1692
     35  C         17.5310   12.6850    4.2570 C.2    32  VAL32       0.2592
     36  O         17.6830   13.1590    5.3860 O.2    32  VAL32      -0.2718
     37  CB        15.0270   12.2350    4.0390 C.3    32  VAL32       0.0266
     38  CG1       14.9300   13.4750    3.1310 C.3    32  VAL32       0.0020
     39  CG2       13.9740   11.1970    3.6440 C.3    32  VAL32       0.0020
     40  N         18.2870   13.0070    3.1970 N.am   33  ASP33      -0.1974
     41  CA        19.3530   14.0140    3.2270 C.3    33  ASP33       0.1709
     42  C         18.6680   15.3910    3.2100 C.2    33  ASP33       0.2293
     43  O         18.4030   15.9320    2.1380 O.2    33  ASP33      -0.2864
     44  CB        20.2850   13.8150    2.0130 C.3    33  ASP33       0.1436
     45  CG        21.4320   14.8200    1.9160 C.2    33  ASP33       0.3671
     46  OD1       21.6600   15.5670    2.9050 O.co2  33  ASP33      -0.2456
     47  OD2       22.0970   14.8570    0.8530 O.co2  33  ASP33      -0.2456
     48  N         19.8950   18.3960    1.1280 N.3    36  ALA36      -0.1245
     49  CA        19.8200   18.3550   -0.3330 C.3    36  ALA36       0.1562
     50  C         18.8490   19.4140   -0.8650 C.2    36  ALA36       0.2260
     51  O         17.8790   19.7690   -0.1880 O.2    36  ALA36      -0.2867
     52  CB        19.4050   16.9700   -0.8040 C.3    36  ALA36       0.0290
     53  N         15.9090   21.1920   -2.4030 N.3    38  GLY38      -0.1210
     54  CA        14.4840   20.8700   -2.4580 C.3    38  GLY38       0.1956
     55  C         13.9600   20.3230   -1.1450 C.2    38  GLY38       0.2611
     56  O         12.7450   20.2760   -0.9490 O.2    38  GLY38      -0.2717
     57  N         14.8630   19.9480   -0.2000 N.am   39  LEU39      -0.1979
     58  CA        14.4390   19.3310    1.0660 C.3    39  LEU39       0.1596
     59  C         14.5770   20.2400    2.2760 C.2    39  LEU39       0.2287
     60  O         14.5320   19.7700    3.4110 O.2    39  LEU39      -0.2864
     61  CB        15.1850   17.9940    1.2830 C.3    39  LEU39       0.0297
     62  CG        14.7850   16.8820    0.3050 C.3    39  LEU39       0.0022
     63  CD1       15.8680   15.8870    0.1360 C.3    39  LEU39       0.0001
     64  CD2       13.5150   16.2010    0.7670 C.3    39  LEU39       0.0001
     65  N         11.7890   19.7250    4.8740 N.3    42  TYR42      -0.1241
     66  CA        11.4660   18.3600    5.3210 C.3    42  TYR42       0.1605
     67  C         11.2020   18.2400    6.8150 C.2    42  TYR42       0.2264
     68  O         10.1790   17.6800    7.2050 O.2    42  TYR42      -0.2867
     69  CB        12.5430   17.3760    4.8750 C.3    42  TYR42       0.0534
     70  CG        12.0840   15.9450    5.0190 C.ar   42  TYR42      -0.0201
     71  CD1       11.3320   15.3330    4.0220 C.ar   42  TYR42      -0.0009
     72  CD2       12.4410   15.1890    6.1340 C.ar   42  TYR42      -0.0009
     73  CE1       10.8960   14.0130    4.1580 C.ar   42  TYR42       0.0417
     74  CE2       12.0260   13.8680    6.2700 C.ar   42  TYR42       0.0417
     75  CZ        11.2520   13.2900    5.2820 C.ar   42  TYR42       0.1957
     76  OH        10.8420   11.9910    5.4440 O.3    42  TYR42      -0.2866
     77  N          6.6920    9.7000    3.5890 N.3    81  CYS81      -0.1235
     78  CA         6.8380    9.9170    2.1620 C.3    81  CYS81       0.1677
     79  C          5.5070   10.4120    1.5530 C.2    81  CYS81       0.2270
     80  O          5.4840   11.3780    0.7770 O.2    81  CYS81      -0.2867
     81  CB         7.3210    8.6270    1.5030 C.3    81  CYS81       0.0956
     82  SG         7.6990    8.8240   -0.2530 S.3    81  CYS81      -0.0801
     83  N          4.8190   14.1130    2.9380 N.3    84  TYR84      -0.1227
     84  CA         5.7060   15.1810    2.4870 C.3    84  TYR84       0.1736
     85  C          5.6000   15.5510    1.0230 C.2    84  TYR84       0.2595
     86  O          5.6760   16.7310    0.6820 O.2    84  TYR84      -0.2718
     87  CB         7.1550   14.8240    2.8330 C.3    84  TYR84       0.0548
     88  CG         8.1460   15.8480    2.3200 C.ar   84  TYR84      -0.0200
     89  CD1        8.2500   17.1030    2.9130 C.ar   84  TYR84      -0.0009
     90  CD2        8.9530   15.5730    1.2220 C.ar   84  TYR84      -0.0009
     91  CE1        9.1240   18.0700    2.4100 C.ar   84  TYR84       0.0417
     92  CE2        9.8360   16.5290    0.7130 C.ar   84  TYR84       0.0417
     93  CZ         9.9210   17.7720    1.3150 C.ar   84  TYR84       0.1957
     94  OH        10.7830   18.7270    0.8020 O.3    84  TYR84      -0.2866
     95  N          5.5020   14.5680    0.1550 N.am   85  ASN85      -0.1974
     96  CA         5.5780   14.7900   -1.2820 C.3    85  ASN85       0.1688
     97  C          4.2470   15.0100   -1.9570 C.2    85  ASN85       0.2292
     98  O          3.2500   14.4380   -1.5120 O.2    85  ASN85      -0.2864
     99  CB         6.2460   13.5610   -1.9040 C.3    85  ASN85       0.1181
    100  CG         7.6440   13.3900   -1.3980 C.2    85  ASN85       0.2629
    101  OD1        8.5590   14.1180   -1.7920 O.2    85  ASN85      -0.2716
    102  ND2        7.8480   12.4330   -0.4840 N.am   85  ASN85      -0.0877
    103  N          4.4550   12.5310   -7.3250 N.3    89  HIS89      -0.1226
    104  CA         5.9140   12.4710   -7.3000 C.3    89  HIS89       0.1752
    105  C          6.4250   11.0490   -7.5450 C.2    89  HIS89       0.2596
    106  O          5.8230   10.0680   -7.0750 O.2    89  HIS89      -0.2718
    107  CB         6.4530   13.0350   -5.9690 C.3    89  HIS89       0.0759
    108  CG         7.8950   13.4290   -6.0290 C.ar   89  HIS89       0.0818
    109  ND1        8.8940   12.4800   -6.1340 N.ar   89  HIS89      -0.2268
    110  CD2        8.4580   14.6610   -5.9920 C.ar   89  HIS89       0.1154
    111  CE1       10.0330   13.1550   -6.1580 C.ar   89  HIS89       0.1986
    112  NE2        9.8180   14.4770   -6.0800 N.ar   89  HIS89      -0.2212
    113  N          7.5190   10.9270   -8.3110 N.am   90  GLU90      -0.1965
    114  CA         8.1660    9.6380   -8.5990 C.3    90  GLU90       0.1733
    115  C          8.4600    8.8720   -7.2800 C.2    90  GLU90       0.2616
    116  O          8.3170    7.6590   -7.2560 O.2    90  GLU90      -0.2715
    117  CB         9.5040    9.9040   -9.2910 C.3    90  GLU90       0.0429
    118  CG        10.2210    8.6970   -9.8610 C.3    90  GLU90       0.1163
    119  CD        11.5540    9.0210  -10.5110 C.2    90  GLU90       0.3649
    120  OE1       11.7510   10.1860  -10.9300 O.co2  90  GLU90      -0.2457
    121  OE2       12.4030    8.1050  -10.6020 O.co2  90  GLU90      -0.2457
    122  N          8.8800    9.5770   -6.2080 N.am   91  VAL91      -0.1977
    123  CA         9.2340    8.9070   -4.9420 C.3    91  VAL91       0.1596
    124  C          8.0110    8.2460   -4.2580 C.2    91  VAL91       0.2287
    125  O          8.1650    7.2270   -3.5790 O.2    91  VAL91      -0.2864
    126  CB        10.0170    9.8510   -3.9840 C.3    91  VAL91       0.0276
    127  CG1        9.0870   10.7770   -3.2130 C.3    91  VAL91       0.0022
    128  CG2       10.9100    9.0400   -3.0300 C.3    91  VAL91       0.0022
    129  N          7.5460    4.9380   -5.8790 N.3    94  MET94      -0.1245
    130  CA         8.5770    4.0160   -5.3860 C.3    94  MET94       0.1570
    131  C          8.1800    3.5270   -3.9840 C.2    94  MET94       0.2261
    132  O          8.3190    2.3510   -3.7020 O.2    94  MET94      -0.2867
    133  CB         9.9370    4.7120   -5.3430 C.3    94  MET94       0.0387
    134  CG        10.4290    5.0490   -6.7410 C.3    94  MET94       0.0595
    135  SD        11.7860    6.2430   -6.6790 S.3    94  MET94      -0.1393
    136  CE        13.0030    5.2710   -6.5230 C.3    94  MET94       0.0692
@<TRIPOS>BOND
     1   120   119   ar
     2   121   119   ar
     3   119   118    1
     4   118   117    1
     5   117   114    1
     6   114   113    1
     7   114   115    1
     8   113   105   am
     9   105   104    1
    10   105   106    2
    11   103   104    1
    12   104   107    1
    13   115   116    2
    14   115   122   am
    15     9    10   ar
    16     9     7   ar
    17   134   135    1
    18   134   133    1
    19   135   136    1
    20    12    10   ar
    21    12    14   ar
    22   122   123    1
    23   111   109   ar
    24   111   112   ar
    25   109   108   ar
    26    10     8   ar
    27   112   110   ar
    28   108   110   ar
    29   108   107    1
    30     7     6   ar
    31   129   130    1
    32    14    13   ar
    33   130   133    1
    34   130   131    1
    35   123   124    1
    36   123   126    1
    37     8     6   ar
    38     8    11   ar
    39     6     5    1
    40    13    11   ar
    41   124   125    2
    42   131   132    2
    43   126   127    1
    44   126   128    1
    45     5     2    1
    46    20    21    1
    47    20    19    1
    48    21    15    1
    49     1     2    1
    50     2     3    1
    51    54    53    1
    52    54    55    1
    53    15     3   am
    54    15    16    1
    55    19    16    1
    56    97    98    2
    57    97    96    1
    58    99   100    1
    59    99    96    1
    60     3     4    2
    61   101   100    2
    62   100   102   am
    63    16    17    1
    64    96    95    1
    65    55    56    2
    66    55    57   am
    67    31    32   ar
    68    31    29   ar
    69    50    49    1
    70    50    51    2
    71    52    49    1
    72    32    30   ar
    73    29    27   ar
    74    49    48    1
    75    82    81    1
    76    57    58    1
    77    17    22   am
    78    17    18    2
    79    63    62    1
    80    95    85   am
    81    62    64    1
    82    62    61    1
    83    22    23    1
    84    30    28   ar
    85    86    85    2
    86    92    90   ar
    87    92    93   ar
    88    80    79    2
    89    94    93    1
    90    47    45   ar
    91    27    28   ar
    92    27    26    1
    93    85    84    1
    94    58    61    1
    95    58    59    1
    96    90    88   ar
    97    93    91   ar
    98    81    78    1
    99    79    78    1
   100    26    23    1
   101    23    24    1
   102    45    44    1
   103    45    46   ar
   104    44    41    1
   105    43    42    2
   106    78    77    1
   107    59    60    2
   108    88    87    1
   109    88    89   ar
   110    91    89   ar
   111    84    87    1
   112    84    83    1
   113    24    25    2
   114    38    37    1
   115    40    41    1
   116    40    35   am
   117    42    41    1
   118    39    37    1
   119    34    37    1
   120    34    35    1
   121    34    33    1
   122    71    73   ar
   123    71    70   ar
   124    73    75   ar
   125    35    36    2
   126    65    66    1
   127    69    70    1
   128    69    66    1
   129    70    72   ar
   130    75    76    1
   131    75    74   ar
   132    66    67    1
   133    72    74   ar
   134    67    68    2
