@<TRIPOS>MOLECULE
tmp/5uf0A00.pdb
 119 117 0 0 0
SMALL
GASTEIGER

@<TRIPOS>ATOM
      1  N        -15.8280    2.2110    2.8920 N.3    25  TRP25      -0.1228
      2  CA       -16.9980    2.9980    2.4980 C.3    25  TRP25       0.1722
      3  C        -16.7000    4.3310    1.7910 C.2    25  TRP25       0.2437
      4  O        -17.4910    4.6780    0.9050 O.2    25  TRP25      -0.2733
      5  CB       -17.9730    3.2150    3.6780 C.3    25  TRP25       0.0563
      6  CG       -17.4760    4.1150    4.7650 C.ar   25  TRP25       0.0003
      7  CD1      -16.8300    3.7400    5.9090 C.ar   25  TRP25       0.0946
      8  CD2      -17.5120    5.5490    4.7750 C.ar   25  TRP25       0.0152
      9  NE1      -16.4710    4.8550    6.6310 N.ar   25  TRP25      -0.2442
     10  CE2      -16.8780    5.9770    5.9620 C.ar   25  TRP25       0.0810
     11  CE3      -18.0320    6.5210    3.8940 C.ar   25  TRP25       0.0012
     12  CZ2      -16.7480    7.3320    6.2940 C.ar   25  TRP25       0.0191
     13  CZ3      -17.8830    7.8610    4.2140 C.ar   25  TRP25       0.0001
     14  CH2      -17.2820    8.2550    5.4190 C.ar   25  TRP25       0.0015
     15  N        -15.6190    5.0960    2.0660 N.am   26  PRO26      -0.2718
     16  CA       -15.4200    6.3530    1.3240 C.3    26  PRO26       0.1535
     17  C        -15.1520    6.1160   -0.1560 C.2    26  PRO26       0.2598
     18  O        -15.2240    7.0680   -0.9260 O.2    26  PRO26      -0.2715
     19  CB       -14.1830    6.9650    1.9820 C.3    26  PRO26       0.0310
     20  CG       -14.2010    6.3620    3.3910 C.3    26  PRO26       0.0237
     21  CD       -14.6130    4.9440    3.1400 C.3    26  PRO26       0.0939
     22  N        -14.8200    4.8600   -0.5370 N.am   27  PHE27      -0.1974
     23  CA       -14.4400    4.5160   -1.9040 C.3    27  PHE27       0.1639
     24  C        -15.5420    3.8540   -2.6810 C.2    27  PHE27       0.2290
     25  O        -15.3540    3.6030   -3.8670 O.2    27  PHE27      -0.2864
     26  CB       -13.1640    3.6300   -1.8670 C.3    27  PHE27       0.0560
     27  CG       -12.0870    4.2910   -1.0350 C.ar   27  PHE27      -0.0200
     28  CD1      -11.3800    5.3780   -1.5270 C.ar   27  PHE27      -0.0042
     29  CD2      -11.8830    3.9200    0.2920 C.ar   27  PHE27      -0.0042
     30  CE1      -10.4790    6.0840   -0.7110 C.ar   27  PHE27      -0.0003
     31  CE2      -10.9810    4.6140    1.1020 C.ar   27  PHE27      -0.0003
     32  CZ       -10.3090    5.7110    0.6060 C.ar   27  PHE27      -0.0000
     33  N        -16.5170   10.5080   -4.9090 N.3    31  VAL31      -0.1231
     34  CA       -16.3690   11.4830   -3.8180 C.3    31  VAL31       0.1692
     35  C        -17.4550   12.5700   -4.0080 C.2    31  VAL31       0.2592
     36  O        -17.6310   13.0630   -5.1230 O.2    31  VAL31      -0.2718
     37  CB       -14.9630   12.1060   -3.8260 C.3    31  VAL31       0.0266
     38  CG1      -14.8600   13.3000   -2.8530 C.3    31  VAL31       0.0020
     39  CG2      -13.8980   11.0470   -3.5150 C.3    31  VAL31       0.0020
     40  N        -18.1520   12.9090   -2.9130 N.am   32  ASP32      -0.1974
     41  CA       -19.1870   13.9450   -2.9510 C.3    32  ASP32       0.1709
     42  C        -18.4760   15.3110   -2.9740 C.2    32  ASP32       0.2293
     43  O        -18.1000   15.8400   -1.9260 O.2    32  ASP32      -0.2864
     44  CB       -20.0960   13.8210   -1.7250 C.3    32  ASP32       0.1436
     45  CG       -21.1720   14.8950   -1.6510 C.2    32  ASP32       0.3671
     46  OD1      -21.3410   15.6360   -2.6500 O.co2  32  ASP32      -0.2456
     47  OD2      -21.8410   14.9850   -0.5990 O.co2  32  ASP32      -0.2456
     48  N        -19.6710   18.3490   -0.7710 N.3    35  ALA35      -0.1245
     49  CA       -19.5460   18.3220    0.6760 C.3    35  ALA35       0.1562
     50  C        -18.6340   19.4580    1.1460 C.2    35  ALA35       0.2260
     51  O        -17.7240   19.8780    0.4150 O.2    35  ALA35      -0.2867
     52  CB       -18.9910   16.9730    1.1350 C.3    35  ALA35       0.0290
     53  N        -15.6700   21.3070    2.5520 N.3    37  GLY37      -0.1210
     54  CA       -14.2390   21.0190    2.5390 C.3    37  GLY37       0.1956
     55  C        -13.7720   20.4550    1.2080 C.2    37  GLY37       0.2611
     56  O        -12.5650   20.4090    0.9700 O.2    37  GLY37      -0.2717
     57  N        -14.7090   20.0520    0.3120 N.am   38  LEU38      -0.1979
     58  CA       -14.3760   19.4130   -0.9730 C.3    38  LEU38       0.1596
     59  C        -14.4820   20.3170   -2.1850 C.2    38  LEU38       0.2287
     60  O        -14.4670   19.8410   -3.3190 O.2    38  LEU38      -0.2864
     61  CB       -15.2340   18.1370   -1.2000 C.3    38  LEU38       0.0297
     62  CG       -14.8520   16.8400   -0.4190 C.3    38  LEU38       0.0022
     63  CD1      -13.5050   16.2690   -0.8880 C.3    38  LEU38       0.0001
     64  CD2      -14.8530   17.0320    1.0920 C.3    38  LEU38       0.0001
     65  N        -11.7340   19.7860   -4.8170 N.3    41  TYR41      -0.1241
     66  CA       -11.4250   18.4150   -5.2410 C.3    41  TYR41       0.1605
     67  C        -11.2190   18.2790   -6.7450 C.2    41  TYR41       0.2264
     68  O        -10.2120   17.7080   -7.1800 O.2    41  TYR41      -0.2867
     69  CB       -12.4860   17.4460   -4.7200 C.3    41  TYR41       0.0534
     70  CG       -12.0650   16.0000   -4.8820 C.ar   41  TYR41      -0.0201
     71  CD1      -11.3060   15.3650   -3.9080 C.ar   41  TYR41      -0.0009
     72  CD2      -12.4410   15.2680   -6.0040 C.ar   41  TYR41      -0.0009
     73  CE1      -10.8960   14.0400   -4.0640 C.ar   41  TYR41       0.0417
     74  CE2      -12.0400   13.9390   -6.1710 C.ar   41  TYR41       0.0417
     75  CZ       -11.2440   13.3450   -5.2080 C.ar   41  TYR41       0.1957
     76  OH       -10.8420   12.0300   -5.3570 O.3    41  TYR41      -0.2866
     77  N         -6.6710    9.6900   -3.5530 N.3    80  CYS80      -0.1235
     78  CA        -6.7850    9.9000   -2.1380 C.3    80  CYS80       0.1677
     79  C         -5.4700   10.3910   -1.5410 C.2    80  CYS80       0.2270
     80  O         -5.4520   11.3530   -0.7500 O.2    80  CYS80      -0.2867
     81  CB        -7.2980    8.6290   -1.4670 C.3    80  CYS80       0.0956
     82  SG        -7.6610    8.8130    0.2830 S.3    80  CYS80      -0.0801
     83  N         -4.7610   14.1220   -2.8960 N.3    83  TYR83      -0.1227
     84  CA        -5.6490   15.1870   -2.4320 C.3    83  TYR83       0.1736
     85  C         -5.5360   15.5340   -0.9640 C.2    83  TYR83       0.2595
     86  O         -5.5820   16.7160   -0.6070 O.2    83  TYR83      -0.2718
     87  CB        -7.1000   14.8370   -2.7790 C.3    83  TYR83       0.0548
     88  CG        -8.0900   15.8710   -2.2740 C.ar   83  TYR83      -0.0200
     89  CD1       -8.1410   17.1530   -2.8310 C.ar   83  TYR83      -0.0009
     90  CD2       -8.9080   15.6010   -1.1810 C.ar   83  TYR83      -0.0009
     91  CE1       -9.0300   18.1220   -2.3350 C.ar   83  TYR83       0.0417
     92  CE2       -9.7700   16.5670   -0.6550 C.ar   83  TYR83       0.0417
     93  CZ        -9.8390   17.8190   -1.2490 C.ar   83  TYR83       0.1957
     94  OH       -10.6960   18.7690   -0.7150 O.3    83  TYR83      -0.2866
     95  N         -5.4690   14.5530   -0.1040 N.am   84  ASN84      -0.1974
     96  CA        -5.5510   14.7590    1.3270 C.3    84  ASN84       0.1688
     97  C         -4.2150   14.9740    1.9980 C.2    84  ASN84       0.2292
     98  O         -3.2270   14.4050    1.5240 O.2    84  ASN84      -0.2864
     99  CB        -6.1950   13.5140    1.9250 C.3    84  ASN84       0.1181
    100  CG        -7.6150   13.3390    1.4780 C.2    84  ASN84       0.2629
    101  OD1       -8.5280   14.0890    1.8760 O.2    84  ASN84      -0.2716
    102  ND2       -7.8550   12.3780    0.5830 N.am   84  ASN84      -0.0877
    103  N         -4.4530   12.4320    7.3040 N.3    88  HIS88      -0.1241
    104  CA        -5.9090   12.3830    7.2900 C.3    88  HIS88       0.1621
    105  C         -6.4120   10.9660    7.5330 C.2    88  HIS88       0.2264
    106  O         -5.8170   10.0010    7.0280 O.2    88  HIS88      -0.2867
    107  CB        -6.4510   12.9410    5.9560 C.3    88  HIS88       0.0745
    108  CG        -7.8920   13.3470    6.0160 C.ar   88  HIS88       0.0817
    109  ND1       -8.9050   12.4120    6.1410 N.ar   88  HIS88      -0.2268
    110  CD2       -8.4460   14.5870    5.9570 C.ar   88  HIS88       0.1154
    111  CE1      -10.0390   13.0980    6.1390 C.ar   88  HIS88       0.1986
    112  NE2       -9.8090   14.4170    6.0400 N.ar   88  HIS88      -0.2212
    113  N         -8.8120    9.4960    6.1850 N.3    90  VAL90      -0.1245
    114  CA        -9.1970    8.8300    4.9310 C.3    90  VAL90       0.1561
    115  C         -7.9820    8.1850    4.2390 C.2    90  VAL90       0.2260
    116  O         -8.1380    7.1840    3.5460 O.2    90  VAL90      -0.2867
    117  CB       -10.0090    9.7640    4.0000 C.3    90  VAL90       0.0252
    118  CG1       -9.1020   10.7320    3.2770 C.3    90  VAL90       0.0019
    119  CG2      -10.8150    8.9580    2.9930 C.3    90  VAL90       0.0019
@<TRIPOS>BOND
     1    68    67    2
     2    67    66    1
     3    74    72   ar
     4    74    75   ar
     5    72    70   ar
     6    76    75    1
     7    66    65    1
     8    66    69    1
     9    75    73   ar
    10    36    35    2
    11    33    34    1
    12    70    69    1
    13    70    71   ar
    14    73    71   ar
    15    35    34    1
    16    35    40   am
    17    25    24    2
    18    37    34    1
    19    37    39    1
    20    37    38    1
    21    77    78    1
    22    60    59    2
    23    42    41    1
    24    42    43    2
    25    41    40    1
    26    41    44    1
    27    83    84    1
    28    89    91   ar
    29    89    88   ar
    30    87    84    1
    31    87    88    1
    32    24    23    1
    33    46    45   ar
    34    84    85    1
    35    91    93   ar
    36    88    90   ar
    37    59    58    1
    38    78    79    1
    39    78    81    1
    40    23    26    1
    41    23    22    1
    42    26    27    1
    43    44    45    1
    44    45    47   ar
    45    79    80    2
    46    28    27   ar
    47    28    30   ar
    48    81    82    1
    49    93    94    1
    50    93    92   ar
    51    61    58    1
    52    61    62    1
    53    90    92   ar
    54    27    29   ar
    55    58    57    1
    56    85    86    2
    57    85    95   am
    58    18    17    2
    59    63    62    1
    60    48    49    1
    61    30    32   ar
    62    22    17   am
    63    62    64    1
    64    17    16    1
    65    95    96    1
    66    29    31   ar
    67    57    55   am
    68    51    50    2
    69   102   100   am
    70    32    31   ar
    71    49    52    1
    72    49    50    1
    73     4     3    2
    74    56    55    2
    75    55    54    1
    76    16    19    1
    77    16    15    1
    78    96    99    1
    79    96    97    1
    80   100   101    2
    81   100    99    1
    82    98    97    2
    83     3    15   am
    84     3     2    1
    85    19    20    1
    86    15    21    1
    87     2     1    1
    88     2     5    1
    89    54    53    1
    90   119   117    1
    91    21    20    1
    92   118   117    1
    93   116   115    2
    94     5     6    1
    95    11    13   ar
    96    11     8   ar
    97   117   114    1
    98    13    14   ar
    99   115   114    1
   100     6     8   ar
   101     6     7   ar
   102     8    10   ar
   103   114   113    1
   104    14    12   ar
   105     7     9   ar
   106   107   108    1
   107   107   104    1
   108   110   108   ar
   109   110   112   ar
   110    10    12   ar
   111    10     9   ar
   112   108   109   ar
   113   112   111   ar
   114   111   109   ar
   115   106   105    2
   116   104   103    1
   117   104   105    1
