@<TRIPOS>MOLECULE
tmp/5uf1A01.pdb
 97 94 0 0 0
SMALL
GASTEIGER

@<TRIPOS>ATOM
      1  N        -27.6990   -1.8350  -33.5750 N.3    84  ASP84      -0.1239
      2  CA       -28.0460   -0.4990  -34.0300 C.3    84  ASP84       0.1674
      3  C        -28.2250   -0.4610  -35.5460 C.2    84  ASP84       0.2266
      4  O        -27.7030   -1.3010  -36.2830 O.2    84  ASP84      -0.2867
      5  CB       -26.9830    0.5180  -33.5930 C.3    84  ASP84       0.1410
      6  CG       -25.5800    0.0950  -33.9620 C.2    84  ASP84       0.3668
      7  OD1      -25.2020   -1.0410  -33.6110 O.co2  84  ASP84      -0.2456
      8  OD2      -24.8620    0.8930  -34.6030 O.co2  84  ASP84      -0.2456
      9  N        -26.4680    2.3210  -25.6000 N.3   130  LEU130     -0.1245
     10  CA       -26.5120    3.3050  -26.6750 C.3   130  LEU130      0.1561
     11  C        -27.8340    3.1530  -27.4150 C.2   130  LEU130      0.2260
     12  O        -28.0440    2.1690  -28.1330 O.2   130  LEU130     -0.2867
     13  CB       -25.3010    3.1200  -27.5860 C.3   130  LEU130      0.0270
     14  CG       -24.0660    3.2070  -26.6800 C.3   130  LEU130      0.0019
     15  CD1      -23.0930    2.0970  -26.9600 C.3   130  LEU130      0.0001
     16  CD2      -23.3850    4.5550  -26.7970 C.3   130  LEU130      0.0001
     17  N        -29.7170    5.9390  -29.1010 N.3   132  CYS132     -0.1221
     18  CA       -30.1180    7.1300  -29.8290 C.3   132  CYS132      0.1808
     19  C        -31.1490    6.7900  -30.8960 C.2   132  CYS132      0.2601
     20  O        -31.3820    5.6270  -31.2370 O.2   132  CYS132     -0.2717
     21  CB       -28.9260    7.7870  -30.5230 C.3   132  CYS132      0.0970
     22  SG       -28.6530    7.2120  -32.2460 S.3   132  CYS132     -0.0800
     23  N        -31.7730    7.8420  -31.4210 N.am  133  CYS133     -0.1970
     24  CA       -32.3990    7.7970  -32.7370 C.3   133  CYS133      0.1712
     25  C        -33.5130    6.7540  -32.8020 C.2   133  CYS133      0.2296
     26  O        -33.6870    6.0650  -33.8080 O.2   133  CYS133     -0.2864
     27  CB       -31.3330    7.5450  -33.8030 C.3   133  CYS133      0.0983
     28  SG       -29.7640    8.4270  -33.4660 S.3   133  CYS133     -0.0798
     29  N        -21.3320    5.0920  -20.4730 N.3   151  HIS151     -0.1241
     30  CA       -21.9300    5.7220  -21.6430 C.3   151  HIS151      0.1621
     31  C        -23.4240    5.4440  -21.6390 C.2   151  HIS151      0.2264
     32  O        -23.8410    4.2830  -21.5920 O.2   151  HIS151     -0.2867
     33  CB       -21.3020    5.2020  -22.9410 C.3   151  HIS151      0.0745
     34  CG       -19.8700    5.5940  -23.1250 C.ar  151  HIS151      0.0817
     35  ND1      -18.8750    5.2230  -22.2460 N.ar  151  HIS151     -0.2268
     36  CD2      -19.2640    6.3200  -24.0930 C.ar  151  HIS151      0.1154
     37  CE1      -17.7190    5.7070  -22.6630 C.ar  151  HIS151      0.1986
     38  NE2      -17.9280    6.3770  -23.7820 N.ar  151  HIS151     -0.2212
     39  N        -26.5940    6.8440  -24.0410 N.3   153  ALA153     -0.1245
     40  CA       -26.9930    7.6510  -25.1890 C.3   153  ALA153      0.1562
     41  C        -28.5070    7.5680  -25.3390 C.2   153  ALA153      0.2260
     42  O        -29.0470    6.5140  -25.6940 O.2   153  ALA153     -0.2867
     43  CB       -26.2890    7.1830  -26.4610 C.3   153  ALA153      0.0290
     44  N        -30.0700   10.3450  -27.0410 N.3   155  ASP155     -0.1225
     45  CA       -30.3280   11.4840  -27.9060 C.3   155  ASP155      0.1805
     46  C        -31.2870   11.1220  -29.0350 C.2   155  ASP155      0.2597
     47  O        -31.3980    9.9640  -29.4440 O.2   155  ASP155     -0.2718
     48  CB       -29.0170   12.0180  -28.4850 C.3   155  ASP155      0.1424
     49  CG       -28.1970   10.9400  -29.1710 C.2   155  ASP155      0.3668
     50  OD1      -27.6190   10.0920  -28.4580 O.co2 155  ASP155     -0.2456
     51  OD2      -28.1230   10.9410  -30.4190 O.co2 155  ASP155     -0.2456
     52  N        -31.9910   12.1430  -29.5290 N.am  156  GLN156     -0.1979
     53  CA       -32.8470   12.0330  -30.7110 C.3   156  GLN156      0.1601
     54  C        -33.9530   10.9950  -30.5150 C.2   156  GLN156      0.2287
     55  O        -34.2200   10.1620  -31.3830 O.2   156  GLN156     -0.2864
     56  CB       -32.0110   11.7250  -31.9560 C.3   156  GLN156      0.0394
     57  CG       -30.9470   12.7790  -32.2410 C.3   156  GLN156      0.0908
     58  CD       -30.0030   12.3740  -33.3560 C.2   156  GLN156      0.2608
     59  OE1      -30.3300   12.4950  -34.5350 O.2   156  GLN156     -0.2717
     60  NE2      -28.8200   11.8940  -32.9860 N.am  156  GLN156     -0.0878
     61  N        -25.7940   11.5430  -23.3730 N.3   177  TYR177     -0.1241
     62  CA       -26.3210   12.2020  -24.5600 C.3   177  TYR177      0.1605
     63  C        -27.8140   12.4350  -24.3740 C.2   177  TYR177      0.2264
     64  O        -28.5780   11.4790  -24.2010 O.2   177  TYR177     -0.2867
     65  CB       -26.0550   11.3690  -25.8150 C.3   177  TYR177      0.0534
     66  CG       -24.5890   11.1030  -26.0820 C.ar  177  TYR177     -0.0201
     67  CD1      -23.9480    9.9960  -25.5370 C.ar  177  TYR177     -0.0009
     68  CD2      -23.8480   11.9570  -26.8880 C.ar  177  TYR177     -0.0009
     69  CE1      -22.6080    9.7520  -25.7870 C.ar  177  TYR177      0.0417
     70  CE2      -22.5110   11.7210  -27.1440 C.ar  177  TYR177      0.0417
     71  CZ       -21.8960   10.6180  -26.5900 C.ar  177  TYR177      0.1957
     72  OH       -20.5650   10.3800  -26.8420 O.3   177  TYR177     -0.2866
     73  N        -29.4330   15.4250  -26.2070 N.3   179  PHE179     -0.1241
     74  CA       -29.9270   16.3580  -27.2070 C.3   179  PHE179      0.1605
     75  C        -30.9640   15.6880  -28.1080 C.2   179  PHE179      0.2264
     76  O        -31.1570   14.4710  -28.0920 O.2   179  PHE179     -0.2867
     77  CB       -28.7680   16.9130  -28.0390 C.3   179  PHE179      0.0534
     78  CG       -28.0930   15.8860  -28.9130 C.ar  179  PHE179     -0.0203
     79  CD1      -27.0260   15.1420  -28.4360 C.ar  179  PHE179     -0.0042
     80  CD2      -28.5180   15.6750  -30.2170 C.ar  179  PHE179     -0.0042
     81  CE1      -26.4010   14.2050  -29.2370 C.ar  179  PHE179     -0.0003
     82  CE2      -27.9000   14.7350  -31.0220 C.ar  179  PHE179     -0.0003
     83  CZ       -26.8410   13.9990  -30.5320 C.ar  179  PHE179     -0.0000
     84  N        -23.0210   15.4100  -30.2310 N.3   207  TRP207     -0.1241
     85  CA       -22.3390   14.5960  -31.2310 C.3   207  TRP207      0.1605
     86  C        -22.2050   15.3790  -32.5290 C.2   207  TRP207      0.2264
     87  O        -23.2120   15.7250  -33.1550 O.2   207  TRP207     -0.2867
     88  CB       -23.0920   13.2840  -31.4670 C.3   207  TRP207      0.0550
     89  CG       -22.3440   12.2830  -32.2960 C.ar  207  TRP207      0.0003
     90  CD1      -22.4460   12.0910  -33.6410 C.ar  207  TRP207      0.0946
     91  CD2      -21.3860   11.3260  -31.8250 C.ar  207  TRP207      0.0152
     92  NE1      -21.6080   11.0770  -34.0390 N.ar  207  TRP207     -0.2442
     93  CE2      -20.9470   10.5900  -32.9430 C.ar  207  TRP207      0.0810
     94  CE3      -20.8590   11.0200  -30.5660 C.ar  207  TRP207      0.0012
     95  CZ2      -20.0030    9.5700  -32.8410 C.ar  207  TRP207      0.0191
     96  CZ3      -19.9230   10.0060  -30.4660 C.ar  207  TRP207      0.0001
     97  CH2      -19.5040    9.2930  -31.5970 C.ar  207  TRP207      0.0015
@<TRIPOS>BOND
     1     4     3    2
     2     3     2    1
     3     8     6   ar
     4    59    58    2
     5    92    90   ar
     6    92    93   ar
     7     2     5    1
     8     2     1    1
     9     6     7   ar
    10     6     5    1
    11    26    25    2
    12    27    28    1
    13    27    24    1
    14    90    89   ar
    15    28    22    1
    16    58    60   am
    17    58    57    1
    18    87    86    2
    19    93    95   ar
    20    93    91   ar
    21    95    97   ar
    22    25    24    1
    23    24    23    1
    24    86    85    1
    25    89    91   ar
    26    89    88    1
    27    22    21    1
    28    57    56    1
    29    56    53    1
    30    91    94   ar
    31    97    96   ar
    32    88    85    1
    33    23    19   am
    34    55    54    2
    35    20    19    2
    36    85    84    1
    37    82    83   ar
    38    82    80   ar
    39    19    18    1
    40    53    54    1
    41    53    52    1
    42    94    96   ar
    43    83    81   ar
    44    21    18    1
    45    51    49   ar
    46    80    78   ar
    47    18    17    1
    48    52    46   am
    49    47    46    2
    50    81    79   ar
    51    49    48    1
    52    49    50   ar
    53    46    45    1
    54    78    79   ar
    55    78    77    1
    56    48    45    1
    57    12    11    2
    58    75    76    2
    59    75    74    1
    60    77    74    1
    61    45    44    1
    62    13    14    1
    63    13    10    1
    64    11    10    1
    65    74    73    1
    66    70    68   ar
    67    70    71   ar
    68    15    14    1
    69    68    66   ar
    70    72    71    1
    71    16    14    1
    72    10     9    1
    73    71    69   ar
    74    43    40    1
    75    66    65    1
    76    66    67   ar
    77    65    62    1
    78    69    67   ar
    79    42    41    2
    80    41    40    1
    81    40    39    1
    82    62    63    1
    83    62    61    1
    84    63    64    2
    85    36    38   ar
    86    36    34   ar
    87    38    37   ar
    88    34    33    1
    89    34    35   ar
    90    33    30    1
    91    37    35   ar
    92    30    31    1
    93    30    29    1
    94    31    32    2
