@<TRIPOS>MOLECULE
tmp/5uf2A00.pdb
 83 81 0 0 0
SMALL
GASTEIGER

@<TRIPOS>ATOM
      1  N        -11.3950   27.8130   -8.5350 N.3   109  ALA109     -0.1231
      2  CA       -11.6650   27.2410   -7.2140 C.3   109  ALA109      0.1694
      3  C        -12.1420   28.3060   -6.2340 C.2   109  ALA109      0.2593
      4  O        -13.0980   28.0850   -5.4790 O.2   109  ALA109     -0.2718
      5  CB       -10.4100   26.5560   -6.6680 C.3   109  ALA109      0.0304
      6  N        -11.5010   29.4780   -6.2460 N.am  110  SER110     -0.1938
      7  CA       -11.8350   30.5240   -5.2900 C.3   110  SER110      0.2055
      8  C        -13.2220   31.1100   -5.5240 C.2   110  SER110      0.2643
      9  O        -13.7560   31.7730   -4.6270 O.2   110  SER110     -0.2714
     10  CB       -10.7700   31.6280   -5.3030 C.3   110  SER110      0.2130
     11  OG       -10.9240   32.4900   -6.4290 O.3   110  SER110     -0.2179
     12  N        -13.8250   30.8690   -6.6920 N.am  111  ALA111     -0.1963
     13  CA       -15.1720   31.3340   -7.0020 C.3   111  ALA111      0.1728
     14  C        -16.2350   30.2770   -6.7230 C.2   111  ALA111      0.2617
     15  O        -17.4120   30.5050   -7.0250 O.2   111  ALA111     -0.2715
     16  CB       -15.2530   31.7860   -8.4690 C.3   111  ALA111      0.0334
     17  N        -15.8530   29.1400   -6.1400 N.am  112  SER112     -0.1936
     18  CA       -16.7210   27.9720   -6.0350 C.3   112  SER112      0.2055
     19  C        -17.1140   27.6900   -4.5900 C.2   112  SER112      0.2643
     20  O        -16.3670   27.9800   -3.6520 O.2   112  SER112     -0.2714
     21  CB       -16.0270   26.7460   -6.6240 C.3   112  SER112      0.2130
     22  OG       -15.6860   26.9890   -7.9840 O.3   112  SER112     -0.2179
     23  N        -18.2980   27.1040   -4.4130 N.am  113  GLU113     -0.1963
     24  CA       -18.8090   26.8250   -3.0750 C.3   113  GLU113      0.1733
     25  C        -18.3090   25.5090   -2.5060 C.2   113  GLU113      0.2616
     26  O        -18.3900   25.3040   -1.2900 O.2   113  GLU113     -0.2715
     27  CB       -20.3390   26.7990   -3.0990 C.3   113  GLU113      0.0429
     28  CG       -20.9510   28.1340   -3.4760 C.3   113  GLU113      0.1163
     29  CD       -22.4630   28.0900   -3.5470 C.2   113  GLU113      0.3649
     30  OE1      -23.0500   29.0130   -4.1520 O.co2 113  GLU113     -0.2457
     31  OE2      -23.0610   27.1410   -2.9990 O.co2 113  GLU113     -0.2457
     32  N        -17.8230   24.6110   -3.3560 N.am  114  LYS114     -0.1963
     33  CA       -17.3310   23.3040   -2.9450 C.3   114  LYS114      0.1728
     34  C        -16.2570   22.8870   -3.9380 C.2   114  LYS114      0.2616
     35  O        -16.3790   23.1560   -5.1360 O.2   114  LYS114     -0.2715
     36  CB       -18.4590   22.2570   -2.9360 C.3   114  LYS114      0.0311
     37  CG       -17.9830   20.8710   -2.4730 C.3   114  LYS114      0.0038
     38  CD       -18.9990   19.7510   -2.7110 C.3   114  LYS114      0.0206
     39  CE       -20.0550   19.7320   -1.6480 C.3   114  LYS114      0.1093
     40  NZ       -20.8410   18.4620   -1.6850 N.3   114  LYS114     -0.1314
     41  N        -15.2150   22.2280   -3.4350 N.am  115  PHE115     -0.1974
     42  CA       -14.1130   21.7150   -4.2460 C.3   115  PHE115      0.1639
     43  C        -14.0770   20.1970   -4.0680 C.2   115  PHE115      0.2290
     44  O        -13.8180   19.7010   -2.9620 O.2   115  PHE115     -0.2864
     45  CB       -12.8090   22.3860   -3.7740 C.3   115  PHE115      0.0560
     46  CG       -11.5780   22.1390   -4.6360 C.ar  115  PHE115     -0.0200
     47  CD1      -11.3580   20.9400   -5.2990 C.ar  115  PHE115     -0.0042
     48  CD2      -10.6040   23.1200   -4.7250 C.ar  115  PHE115     -0.0042
     49  CE1      -10.2010   20.7390   -6.0530 C.ar  115  PHE115     -0.0003
     50  CE2       -9.4510   22.9250   -5.4780 C.ar  115  PHE115     -0.0003
     51  CZ        -9.2460   21.7370   -6.1380 C.ar  115  PHE115     -0.0000
     52  N         -5.4620   27.5950    1.2390 N.3   202  ARG202     -0.1231
     53  CA        -6.6880   28.3670    1.4040 C.3   202  ARG202      0.1694
     54  C         -7.8350   27.7310    0.6250 C.2   202  ARG202      0.2592
     55  O         -8.9740   27.6870    1.1040 O.2   202  ARG202     -0.2718
     56  CB        -6.4580   29.8170    0.9750 C.3   202  ARG202      0.0321
     57  CG        -7.6710   30.7160    1.2150 C.3   202  ARG202      0.0489
     58  CD        -7.2920   32.1960    1.1640 C.3   202  ARG202      0.2205
     59  NE        -6.5330   32.6160    2.3440 N.pl3 202  ARG202     -0.0865
     60  CZ        -5.2280   32.8890    2.3690 C.cat 202  ARG202      0.5346
     61  NH1       -4.4810   32.8000    1.2750 N.pl3 202  ARG202      0.1354
     62  NH2       -4.6570   33.2590    3.5050 N.pl3 202  ARG202      0.1354
     63  N         -7.5410   27.1860   -0.5580 N.am  203  ASP203     -0.1960
     64  CA        -8.5370   26.5010   -1.3710 C.3   203  ASP203      0.1840
     65  C         -8.3350   24.9940   -1.3170 C.2   203  ASP203      0.2621
     66  O         -8.3370   24.3170   -2.3500 O.2   203  ASP203     -0.2715
     67  CB        -8.4970   27.0160   -2.8080 C.3   203  ASP203      0.1450
     68  CG        -8.6940   28.5130   -2.8810 C.2   203  ASP203      0.3671
     69  OD1       -9.8290   28.9750   -2.6440 O.co2 203  ASP203     -0.2456
     70  OD2       -7.6990   29.2270   -3.1190 O.co2 203  ASP203     -0.2456
     71  N         -8.1710   24.4640   -0.1090 N.am  204  ALA204     -0.1977
     72  CA        -8.0980   23.0250    0.0780 C.3   204  ALA204      0.1597
     73  C         -9.4060   22.3760   -0.3740 C.2   204  ALA204      0.2287
     74  O        -10.4690   23.0070   -0.3830 O.2   204  ALA204     -0.2864
     75  CB        -7.8490   22.7180    1.5520 C.3   204  ALA204      0.0319
     76  N        -12.7760   20.1410   -0.3330 N.3   206  ASP206     -0.1239
     77  CA       -13.7740   19.7690    0.6650 C.3   206  ASP206      0.1674
     78  C        -13.9350   18.2630    0.7760 C.2   206  ASP206      0.2266
     79  O        -14.2730   17.7590    1.8530 O.2   206  ASP206     -0.2867
     80  CB       -15.1260   20.3720    0.2950 C.3   206  ASP206      0.1410
     81  CG       -15.1240   21.8600    0.4000 C.2   206  ASP206      0.3668
     82  OD1      -15.1050   22.3790    1.5340 O.co2 206  ASP206     -0.2456
     83  OD2      -15.0970   22.5180   -0.6510 O.co2 206  ASP206     -0.2456
@<TRIPOS>BOND
     1     1     2    1
     2    16    13    1
     3    22    21    1
     4     2     5    1
     5     2     3    1
     6    15    14    2
     7    13    14    1
     8    13    12    1
     9    14    17   am
    10    12     8   am
    11    21    18    1
    12    11    10    1
    13     6     3   am
    14     6     7    1
    15     3     4    2
    16    17    18    1
    17    51    49   ar
    18    51    50   ar
    19    49    47   ar
    20    18    19    1
    21     8     7    1
    22     8     9    2
    23    50    48   ar
    24    10     7    1
    25    47    46   ar
    26    35    34    2
    27    48    46   ar
    28    46    45    1
    29    19    23   am
    30    19    20    2
    31    23    24    1
    32    42    43    1
    33    42    45    1
    34    42    41    1
    35    30    29   ar
    36    43    44    2
    37    34    41   am
    38    34    33    1
    39    29    28    1
    40    29    31   ar
    41    28    27    1
    42    32    33    1
    43    32    25   am
    44    70    68   ar
    45    27    24    1
    46    24    25    1
    47    33    36    1
    48    36    37    1
    49    68    67    1
    50    68    69   ar
    51    67    64    1
    52    38    37    1
    53    38    39    1
    54    25    26    2
    55    66    65    2
    56    40    39    1
    57    64    65    1
    58    64    63    1
    59    65    71   am
    60    83    81   ar
    61    63    54   am
    62    74    73    2
    63    73    72    1
    64    76    77    1
    65    71    72    1
    66    72    75    1
    67    80    81    1
    68    80    77    1
    69    81    82   ar
    70    54    55    2
    71    54    53    1
    72    77    78    1
    73    78    79    2
    74    56    57    1
    75    56    53    1
    76    58    57    1
    77    58    59    1
    78    52    53    1
    79    61    60    1
    80    59    60    2
    81    60    62    1
