@<TRIPOS>MOLECULE
tmp/5uf4A02.pdb
 89 87 0 0 0
SMALL
GASTEIGER

@<TRIPOS>ATOM
      1  N         16.9810   18.5300   -4.6160 N.3   130  LEU130     -0.1245
      2  CA        17.2950   19.5480   -3.6180 C.3   130  LEU130      0.1561
      3  C         16.0490   20.3790   -3.3380 C.2   130  LEU130      0.2260
      4  O         15.6180   21.1680   -4.1850 O.2   130  LEU130     -0.2867
      5  CB        18.4630   20.4180   -4.0760 C.3   130  LEU130      0.0270
      6  CG        19.6640   19.6150   -4.5840 C.3   130  LEU130      0.0019
      7  CD1       20.6720   20.5260   -5.2200 C.3   130  LEU130      0.0001
      8  CD2       20.3020   18.7830   -3.4910 C.3   130  LEU130      0.0001
      9  N         15.4030   22.1870   -0.1290 N.3   132  CYS132     -0.1221
     10  CA        15.5180   22.8960    1.1360 C.3   132  CYS132      0.1808
     11  C         14.4630   23.9900    1.2250 C.2   132  CYS132      0.2601
     12  O         13.8080   24.3410    0.2430 O.2   132  CYS132     -0.2717
     13  CB        16.8920   23.5450    1.2910 C.3   132  CYS132      0.0970
     14  SG        16.9770   25.2610    0.6500 S.3   132  CYS132     -0.0800
     15  N         14.3160   24.5380    2.4270 N.am  133  CYS133     -0.1970
     16  CA        13.7470   25.8690    2.6030 C.3   133  CYS133      0.1712
     17  C         12.3210   25.9640    2.0570 C.2   133  CYS133      0.2296
     18  O         11.9310   26.9620    1.4500 O.2   133  CYS133     -0.2864
     19  CB        14.6650   26.9050    1.9550 C.3   133  CYS133      0.0983
     20  SG        16.4300   26.5020    2.1890 S.3   133  CYS133     -0.0798
     21  N         22.3720   13.0810   -4.0910 N.3   151  HIS151     -0.1241
     22  CA        22.1530   14.2670   -3.2730 C.3   151  HIS151      0.1621
     23  C         20.6720   14.3720   -2.9460 C.2   151  HIS151      0.2264
     24  O         19.8310   14.3300   -3.8500 O.2   151  HIS151     -0.2867
     25  CB        22.6230   15.5370   -3.9960 C.3   151  HIS151      0.0745
     26  CG        24.1010   15.5890   -4.2340 C.ar  151  HIS151      0.0817
     27  ND1       24.7640   14.6580   -5.0040 N.ar  151  HIS151     -0.2268
     28  CD2       25.0410   16.4710   -3.8210 C.ar  151  HIS151      0.1154
     29  CE1       26.0500   14.9550   -5.0430 C.ar  151  HIS151      0.1986
     30  NE2       26.2450   16.0510   -4.3330 N.ar  151  HIS151     -0.2212
     31  N         18.4000   16.9530   -0.4690 N.3   153  ALA153     -0.1245
     32  CA        18.3800   18.1000    0.4320 C.3   153  ALA153      0.1562
     33  C         16.9680   18.3100    0.9610 C.2   153  ALA153      0.2260
     34  O         16.0540   18.6330    0.1950 O.2   153  ALA153     -0.2867
     35  CB        18.8820   19.3600   -0.2710 C.3   153  ALA153      0.0290
     36  N         16.7250   20.0560    4.1700 N.3   155  ASP155     -0.1225
     37  CA        16.9610   20.9600    5.2840 C.3   155  ASP155      0.1805
     38  C         15.9910   22.1360    5.2610 C.2   155  ASP155      0.2597
     39  O         15.4600   22.5130    4.2150 O.2   155  ASP155     -0.2718
     40  CB        18.4040   21.4690    5.2590 C.3   155  ASP155      0.1424
     41  CG        18.7910   22.0840    3.9270 C.2   155  ASP155      0.3668
     42  OD1       18.9730   21.3250    2.9550 O.co2 155  ASP155     -0.2456
     43  OD2       18.9300   23.3240    3.8520 O.co2 155  ASP155     -0.2456
     44  N         15.7480   22.6990    6.4460 N.am  156  GLN156     -0.1979
     45  CA        14.9360   23.9080    6.5980 C.3   156  GLN156      0.1601
     46  C         13.5050   23.6970    6.1040 C.2   156  GLN156      0.2287
     47  O         12.9190   24.5600    5.4500 O.2   156  GLN156     -0.2864
     48  CB        15.5910   25.1010    5.8960 C.3   156  GLN156      0.0394
     49  CG        17.0060   25.3970    6.3820 C.3   156  GLN156      0.0908
     50  CD        17.7050   26.4600    5.5600 C.2   156  GLN156      0.2608
     51  OE1       17.4400   27.6500    5.7110 O.2   156  GLN156     -0.2717
     52  NE2       18.6190   26.0350    4.6970 N.am  156  GLN156     -0.0878
     53  N         21.0130   16.2560    3.4260 N.3   177  TYR177     -0.1241
     54  CA        20.8830   17.4610    4.2310 C.3   177  TYR177      0.1605
     55  C         19.6110   17.3600    5.0570 C.2   177  TYR177      0.2264
     56  O         18.5100   17.2770    4.5020 O.2   177  TYR177     -0.2867
     57  CB        20.8640   18.7100    3.3510 C.3   177  TYR177      0.0534
     58  CG        22.0750   18.8380    2.4580 C.ar  177  TYR177     -0.0201
     59  CD1       23.2090   19.5140    2.8860 C.ar  177  TYR177     -0.0009
     60  CD2       22.0900   18.2660    1.1910 C.ar  177  TYR177     -0.0009
     61  CE1       24.3170   19.6310    2.0750 C.ar  177  TYR177      0.0417
     62  CE2       23.1920   18.3780    0.3730 C.ar  177  TYR177      0.0417
     63  CZ        24.3030   19.0580    0.8210 C.ar  177  TYR177      0.1957
     64  OH        25.4060   19.1720    0.0110 O.3   177  TYR177     -0.2866
     65  N         19.4390   19.1820    8.4580 N.3   179  PHE179     -0.1241
     66  CA        19.4150   20.1900    9.5040 C.3   179  PHE179      0.1605
     67  C         18.2240   21.1300    9.3260 C.2   179  PHE179      0.2264
     68  O         17.5370   21.1260    8.3040 O.2   179  PHE179     -0.2867
     69  CB        20.7240   20.9780    9.4980 C.3   179  PHE179      0.0534
     70  CG        20.9780   21.7230    8.2160 C.ar  179  PHE179     -0.0203
     71  CD1       21.6280   21.1040    7.1620 C.ar  179  PHE179     -0.0042
     72  CD2       20.5760   23.0420    8.0650 C.ar  179  PHE179     -0.0042
     73  CE1       21.8700   21.7840    5.9780 C.ar  179  PHE179     -0.0003
     74  CE2       20.8140   23.7250    6.8890 C.ar  179  PHE179     -0.0003
     75  CZ        21.4660   23.0910    5.8410 C.ar  179  PHE179     -0.0000
     76  N         25.5820   22.9320    6.0110 N.3   207  TRP207     -0.1241
     77  CA        25.8910   23.8600    4.9270 C.3   207  TRP207      0.1605
     78  C         26.3890   25.1740    5.5120 C.2   207  TRP207      0.2264
     79  O         25.6050   25.9270    6.0960 O.2   207  TRP207     -0.2867
     80  CB        24.6610   24.0940    4.0450 C.3   207  TRP207      0.0550
     81  CG        24.9680   24.8360    2.7970 C.ar  207  TRP207      0.0003
     82  CD1       24.9590   26.1840    2.6260 C.ar  207  TRP207      0.0946
     83  CD2       25.3290   24.2700    1.5320 C.ar  207  TRP207      0.0152
     84  NE1       25.3010   26.5000    1.3350 N.ar  207  TRP207     -0.2442
     85  CE2       25.5310   25.3420    0.6410 C.ar  207  TRP207      0.0810
     86  CE3       25.5020   22.9620    1.0660 C.ar  207  TRP207      0.0012
     87  CZ2       25.8970   25.1490   -0.6880 C.ar  207  TRP207      0.0191
     88  CZ3       25.8660   22.7710   -0.2530 C.ar  207  TRP207      0.0001
     89  CH2       26.0600   23.8600   -1.1160 C.ar  207  TRP207      0.0015
@<TRIPOS>BOND
     1     7     6    1
     2    29    27   ar
     3    29    30   ar
     4    27    26   ar
     5     1     2    1
     6     6     5    1
     7     6     8    1
     8    30    28   ar
     9    26    25    1
    10    26    28   ar
    11     4     3    2
    12    21    22    1
    13     5     2    1
    14    25    22    1
    15    24    23    2
    16     2     3    1
    17    22    23    1
    18    89    87   ar
    19    89    88   ar
    20    87    85   ar
    21    31    32    1
    22    35    32    1
    23    88    86   ar
    24     9    10    1
    25    64    63    1
    26    34    33    2
    27    12    11    2
    28    62    63   ar
    29    62    60   ar
    30    32    33    1
    31    85    84   ar
    32    85    83   ar
    33    14    13    1
    34    14    20    1
    35    63    61   ar
    36    86    83   ar
    37    10    11    1
    38    10    13    1
    39    60    58   ar
    40    11    15   am
    41    84    82   ar
    42    18    17    2
    43    83    81   ar
    44    19    20    1
    45    19    16    1
    46    17    16    1
    47    61    59   ar
    48    15    16    1
    49    58    59   ar
    50    58    57    1
    51    82    81   ar
    52    81    80    1
    53    42    41   ar
    54    57    54    1
    55    53    54    1
    56    43    41   ar
    57    41    40    1
    58    80    77    1
    59    36    37    1
    60    39    38    2
    61    54    55    1
    62    56    55    2
    63    52    50   am
    64    77    78    1
    65    77    76    1
    66    40    37    1
    67    38    37    1
    68    38    44   am
    69    47    46    2
    70    78    79    2
    71    50    51    2
    72    50    49    1
    73    75    73   ar
    74    75    74   ar
    75    48    49    1
    76    48    45    1
    77    73    71   ar
    78    46    45    1
    79    44    45    1
    80    74    72   ar
    81    71    70   ar
    82    72    70   ar
    83    70    69    1
    84    68    67    2
    85    65    66    1
    86    67    66    1
    87    69    66    1
