@<TRIPOS>MOLECULE
tmp/5ufaA00.pdb
 170 166 0 0 0
SMALL
GASTEIGER

@<TRIPOS>ATOM
      1  N         48.0720  -19.2770   16.3060 N.3    37  PHE37      -0.1241
      2  CA        47.2050  -20.3580   16.7390 C.3    37  PHE37       0.1605
      3  C         47.5920  -20.8530   18.1270 C.2    37  PHE37       0.2264
      4  O         48.7460  -20.7520   18.5600 O.2    37  PHE37      -0.2867
      5  CB        47.1910  -21.5380   15.7450 C.3    37  PHE37       0.0534
      6  CG        48.5510  -22.1090   15.4110 C.ar   37  PHE37      -0.0203
      7  CD1       49.3010  -21.5860   14.3720 C.ar   37  PHE37      -0.0042
      8  CD2       49.0480  -23.2150   16.1010 C.ar   37  PHE37      -0.0042
      9  CE1       50.5380  -22.1190   14.0620 C.ar   37  PHE37      -0.0003
     10  CE2       50.2880  -23.7670   15.7810 C.ar   37  PHE37      -0.0003
     11  CZ        51.0330  -23.2130   14.7640 C.ar   37  PHE37      -0.0000
     12  N         47.1830  -24.2940   20.8310 N.3    39  ARG39      -0.1245
     13  CA        47.0050  -25.7370   20.8330 C.3    39  ARG39       0.1563
     14  C         45.9660  -26.0700   21.8970 C.2    39  ARG39       0.2260
     15  O         46.1340  -25.7270   23.0770 O.2    39  ARG39      -0.2867
     16  CB        48.3330  -26.4590   21.0680 C.3    39  ARG39       0.0307
     17  CG        49.3430  -26.1550   19.9690 C.3    39  ARG39       0.0489
     18  CD        50.6250  -26.9650   20.0710 C.3    39  ARG39       0.2205
     19  NE        51.5060  -26.6740   18.9450 N.pl3  39  ARG39      -0.0865
     20  CZ        51.3720  -27.2180   17.7390 C.cat  39  ARG39       0.5346
     21  NH1       50.3900  -28.0800   17.5130 N.pl3  39  ARG39       0.1354
     22  NH2       52.2160  -26.8990   16.7620 N.pl3  39  ARG39       0.1354
     23  N         45.3270  -30.4830   19.1920 N.3    51  ARG51      -0.1231
     24  CA        45.2220  -29.9290   17.8470 C.3    51  ARG51       0.1694
     25  C         45.4710  -28.4230   17.9020 C.2    51  ARG51       0.2592
     26  O         45.3170  -27.7880   18.9490 O.2    51  ARG51      -0.2718
     27  CB        43.8440  -30.1930   17.2400 C.3    51  ARG51       0.0321
     28  CG        43.5270  -31.6580   17.0300 C.3    51  ARG51       0.0489
     29  CD        44.4280  -32.3630   16.0120 C.3    51  ARG51       0.2205
     30  NE        43.8910  -33.7040   15.7780 N.pl3  51  ARG51      -0.0865
     31  CZ        44.2410  -34.7920   16.4520 C.cat  51  ARG51       0.5346
     32  NH1       45.1750  -34.7380   17.4000 N.pl3  51  ARG51       0.1354
     33  NH2       43.6370  -35.9340   16.1720 N.pl3  51  ARG51       0.1354
     34  N         45.8470  -27.8520   16.7590 N.am   52  ALA52      -0.1966
     35  CA        46.0660  -26.4130   16.6130 C.3    52  ALA52       0.1728
     36  C         44.8050  -25.7440   16.0630 C.2    52  ALA52       0.2616
     37  O         44.0910  -26.3450   15.2500 O.2    52  ALA52      -0.2715
     38  CB        47.2430  -26.1300   15.6820 C.3    52  ALA52       0.0334
     39  N         44.5080  -24.5170   16.5400 N.am   53  TYR53      -0.1960
     40  CA        43.4040  -23.6960   16.0250 C.3    53  TYR53       0.1771
     41  C         43.8020  -22.2250   16.0350 C.2    53  TYR53       0.2620
     42  O         44.2870  -21.7240   17.0500 O.2    53  TYR53      -0.2715
     43  CB        42.1010  -23.9140   16.8350 C.3    53  TYR53       0.0574
     44  CG        41.6610  -25.3640   16.7890 C.ar   53  TYR53      -0.0198
     45  CD1       40.9370  -25.8570   15.7090 C.ar   53  TYR53      -0.0009
     46  CD2       42.0440  -26.2610   17.7860 C.ar   53  TYR53      -0.0009
     47  CE1       40.5780  -27.1910   15.6410 C.ar   53  TYR53       0.0417
     48  CE2       41.6830  -27.5920   17.7260 C.ar   53  TYR53       0.0417
     49  CZ        40.9620  -28.0550   16.6490 C.ar   53  TYR53       0.1957
     50  OH        40.6190  -29.3810   16.5800 O.3    53  TYR53      -0.2866
     51  N         43.5920  -21.5290   14.9160 N.am   54  SER54      -0.1950
     52  CA        43.8910  -20.1030   14.8790 C.3    54  SER54       0.1924
     53  C         42.9310  -19.3320   15.7680 C.2    54  SER54       0.2314
     54  O         41.7220  -19.5520   15.7240 O.2    54  SER54      -0.2863
     55  CB        43.7680  -19.5540   13.4600 C.3    54  SER54       0.2116
     56  OG        44.7000  -20.1300   12.5860 O.3    54  SER54      -0.2180
     57  N         37.2390  -21.3910   15.5900 N.3    67  PHE67      -0.1227
     58  CA        36.3370  -21.7620   14.5030 C.3    67  PHE67       0.1736
     59  C         36.7700  -23.1080   13.9310 C.2    67  PHE67       0.2595
     60  O         37.8840  -23.2340   13.4080 O.2    67  PHE67      -0.2718
     61  CB        36.3330  -20.6700   13.4250 C.3    67  PHE67       0.0547
     62  CG        35.6370  -21.0620   12.1560 C.ar   67  PHE67      -0.0202
     63  CD1       34.4190  -21.7310   12.1860 C.ar   67  PHE67      -0.0042
     64  CD2       36.2130  -20.7710   10.9230 C.ar   67  PHE67      -0.0042
     65  CE1       33.7890  -22.0930   11.0110 C.ar   67  PHE67      -0.0003
     66  CE2       35.5880  -21.1260    9.7550 C.ar   67  PHE67      -0.0003
     67  CZ        34.3710  -21.7890    9.7990 C.ar   67  PHE67      -0.0000
     68  N         35.8980  -24.1180   14.0220 N.am   68  ALA68      -0.1966
     69  CA        36.3050  -25.4830   13.6950 C.3    68  ALA68       0.1728
     70  C         35.3870  -26.1270   12.6680 C.2    68  ALA68       0.2616
     71  O         34.1620  -26.0680   12.7970 O.2    68  ALA68      -0.2715
     72  CB        36.3530  -26.3520   14.9570 C.3    68  ALA68       0.0334
     73  N         35.9860  -26.7800   11.6720 N.am   69  VAL69      -0.1977
     74  CA        35.2520  -27.6470   10.7480 C.3    69  VAL69       0.1596
     75  C         35.2290  -29.0530   11.3390 C.2    69  VAL69       0.2287
     76  O         36.2840  -29.6310   11.6290 O.2    69  VAL69      -0.2864
     77  CB        35.9020  -27.6460    9.3530 C.3    69  VAL69       0.0276
     78  CG1       35.1640  -28.5770    8.3900 C.3    69  VAL69       0.0022
     79  CG2       35.9670  -26.2190    8.7910 C.3    69  VAL69       0.0022
     80  N         35.3070  -32.7650   11.1710 N.3    71  ILE71      -0.1245
     81  CA        35.7700  -33.7230   10.1770 C.3    71  ILE71       0.1561
     82  C         35.1380  -35.0740   10.4440 C.2    71  ILE71       0.2260
     83  O         35.2910  -35.6400   11.5350 O.2    71  ILE71      -0.2867
     84  CB        37.3040  -33.8510   10.1820 C.3    71  ILE71       0.0252
     85  CG1       37.9880  -32.4930   10.0190 C.3    71  ILE71       0.0019
     86  CG2       37.7350  -34.8010    9.0650 C.3    71  ILE71       0.0019
     87  CD1       37.6500  -31.7610    8.7090 C.3    71  ILE71       0.0001
     88  N         36.9530  -37.6790   12.3500 N.3    74  GLY74      -0.1210
     89  CA        38.0660  -37.0510   13.0280 C.3    74  GLY74       0.1940
     90  C         37.9950  -37.2720   14.5310 C.2    74  GLY74       0.2454
     91  O         36.9330  -37.1480   15.1610 O.2    74  GLY74      -0.2732
     92  N         39.1290  -37.6250   15.1370 N.am   75  PRO75      -0.2717
     93  CA        39.1380  -37.8020   16.6020 C.3    75  PRO75       0.1535
     94  C         38.7980  -36.5240   17.3520 C.2    75  PRO75       0.2598
     95  O         38.0130  -36.5620   18.3130 O.2    75  PRO75      -0.2715
     96  CB        40.5670  -38.2840   16.8930 C.3    75  PRO75       0.0310
     97  CG        41.0940  -38.7460   15.5940 C.3    75  PRO75       0.0237
     98  CD        40.4220  -37.9510   14.5260 C.3    75  PRO75       0.0939
     99  N         39.4090  -35.3940   16.9840 N.am   76  MET76      -0.1964
    100  CA        39.1090  -34.1700   17.7180 C.3    76  MET76       0.1736
    101  C         37.7300  -33.6520   17.3450 C.2    76  MET76       0.2617
    102  O         36.9950  -33.1420   18.2030 O.2    76  MET76      -0.2715
    103  CB        40.1840  -33.1090   17.4760 C.3    76  MET76       0.0427
    104  CG        40.1080  -31.9210   18.4310 C.3    76  MET76       0.0599
    105  SD        40.5170  -32.3510   20.1370 S.3    76  MET76      -0.1393
    106  CE        41.2790  -30.8330   20.7140 C.3    76  MET76       0.0692
    107  N         37.3480  -33.8070   16.0770 N.am   77  SER77      -0.1950
    108  CA        36.0000  -33.4310   15.6780 C.3    77  SER77       0.1924
    109  C         34.9660  -34.1400   16.5330 C.2    77  SER77       0.2314
    110  O         33.9760  -33.5300   16.9510 O.2    77  SER77      -0.2863
    111  CB        35.7780  -33.7470   14.2090 C.3    77  SER77       0.2116
    112  OG        36.6280  -32.9660   13.4060 O.3    77  SER77      -0.2180
    113  N         34.6910  -32.3010   19.7980 N.3    80  PHE80      -0.1241
    114  CA        34.0810  -30.9830   19.5960 C.3    80  PHE80       0.1605
    115  C         32.5810  -31.0920   19.3700 C.2    80  PHE80       0.2264
    116  O         31.8120  -30.2280   19.8020 O.2    80  PHE80      -0.2867
    117  CB        34.7110  -30.2700   18.3950 C.3    80  PHE80       0.0534
    118  CG        36.0480  -29.6240   18.6770 C.ar   80  PHE80      -0.0203
    119  CD1       36.6550  -29.7350   19.9220 C.ar   80  PHE80      -0.0042
    120  CD2       36.6900  -28.8850   17.6830 C.ar   80  PHE80      -0.0042
    121  CE1       37.8960  -29.1320   20.1630 C.ar   80  PHE80      -0.0003
    122  CE2       37.9160  -28.2740   17.9210 C.ar   80  PHE80      -0.0003
    123  CZ        38.5250  -28.4040   19.1580 C.ar   80  PHE80      -0.0000
    124  N         37.9020  -22.1740    3.5400 N.3   116  GLY116     -0.1210
    125  CA        37.3140  -22.8810    4.6610 C.3   116  GLY116      0.1956
    126  C         37.6280  -22.2000    5.9680 C.2   116  GLY116      0.2612
    127  O         37.4020  -20.9970    6.1330 O.2   116  GLY116     -0.2717
    128  N         38.1700  -22.9780    6.9160 N.am  117  SER117     -0.1952
    129  CA        38.4670  -22.4680    8.2490 C.3   117  SER117      0.1924
    130  C         39.7300  -21.6200    8.2890 C.2   117  SER117      0.2314
    131  O         39.9740  -20.9460    9.2900 O.2   117  SER117     -0.2863
    132  CB        38.6030  -23.6290    9.2330 C.3   117  SER117      0.2116
    133  OG        39.5090  -24.5990    8.7430 O.3   117  SER117     -0.2180
    134  N         40.0330  -18.0100    9.8310 N.3   120  ALA120     -0.1245
    135  CA        40.1100  -17.7080   11.2590 C.3   120  ALA120      0.1562
    136  C         41.2170  -16.7140   11.6220 C.2   120  ALA120      0.2260
    137  O         40.9130  -15.6950   12.2680 O.2   120  ALA120     -0.2867
    138  CB        40.2370  -19.0320   12.0280 C.3   120  ALA120      0.0290
    139  N         50.4870  -19.9730    5.4630 N.3   243  GLU243     -0.1231
    140  CA        50.3860  -20.9390    6.5480 C.3   243  GLU243      0.1699
    141  C         49.3260  -21.9620    6.1680 C.2   243  GLU243      0.2592
    142  O         48.2240  -21.5900    5.7450 O.2   243  GLU243     -0.2718
    143  CB        50.0160  -20.2500    7.8630 C.3   243  GLU243      0.0402
    144  CG        49.9480  -21.1810    9.0620 C.3   243  GLU243      0.1161
    145  CD        49.4890  -20.4550   10.3190 C.2   243  GLU243      0.3649
    146  OE1       48.2630  -20.4110   10.5640 O.co2 243  GLU243     -0.2457
    147  OE2       50.3470  -19.9050   11.0460 O.co2 243  GLU243     -0.2457
    148  N         49.6570  -23.2420    6.3100 N.am  244  ASN244     -0.1960
    149  CA        48.6760  -24.2740    6.0250 C.3   244  ASN244      0.1819
    150  C         47.5730  -24.2160    7.0590 C.2   244  ASN244      0.2622
    151  O         47.8500  -24.1440    8.2570 O.2   244  ASN244     -0.2715
    152  CB        49.3090  -25.6590    6.0240 C.3   244  ASN244      0.1195
    153  CG        50.1400  -25.9140    4.7930 C.2   244  ASN244      0.2630
    154  OD1       50.1410  -25.1310    3.8450 O.2   244  ASN244     -0.2716
    155  ND2       50.8510  -27.0250    4.7990 N.am  244  ASN244     -0.0877
    156  N         46.3230  -24.2070    6.5850 N.am  245  GLY245     -0.1940
    157  CA        45.1870  -24.1620    7.4790 C.3   245  GLY245      0.2014
    158  C         44.9400  -25.4570    8.2160 C.2   245  GLY245      0.2638
    159  O         44.0570  -25.4960    9.0840 O.2   245  GLY245     -0.2714
    160  N         45.6710  -26.5170    7.8630 N.am  246  PHE246     -0.1973
    161  CA        45.6010  -27.7920    8.5740 C.3   246  PHE246      0.1639
    162  C         46.6330  -28.8100    8.0910 C.2   246  PHE246      0.2290
    163  O         47.3580  -28.6030    7.1240 O.2   246  PHE246     -0.2864
    164  CB        44.1850  -28.3780    8.4650 C.3   246  PHE246      0.0560
    165  CG        43.7180  -28.5920    7.0680 C.ar  246  PHE246     -0.0200
    166  CD1       44.0600  -29.7340    6.3700 C.ar  246  PHE246     -0.0042
    167  CD2       42.9090  -27.6590    6.4590 C.ar  246  PHE246     -0.0042
    168  CE1       43.6050  -29.9410    5.0810 C.ar  246  PHE246     -0.0003
    169  CE2       42.4560  -27.8480    5.1740 C.ar  246  PHE246     -0.0003
    170  CZ        42.7990  -28.9870    4.4790 C.ar  246  PHE246     -0.0000
@<TRIPOS>BOND
     1   124   125    1
     2   154   153    2
     3   170   168   ar
     4   170   169   ar
     5   125   126    1
     6   153   155   am
     7   153   152    1
     8   168   166   ar
     9   169   167   ar
    10   139   140    1
    11   142   141    2
    12   126   127    2
    13   126   128   am
    14   152   149    1
    15   149   148    1
    16   149   150    1
    17   141   148   am
    18   141   140    1
    19   166   165   ar
    20   167   165   ar
    21   140   143    1
    22   156   150   am
    23   156   157    1
    24   128   129    1
    25   150   151    2
    26   165   164    1
    27   163   162    2
    28   157   158    1
    29   143   144    1
    30   160   158   am
    31   160   161    1
    32   162   161    1
    33   158   159    2
    34   129   130    1
    35   129   132    1
    36   130   131    2
    37    78    77    1
    38   164   161    1
    39    87    85    1
    40   133   132    1
    41    79    77    1
    42   144   145    1
    43    86    84    1
    44    77    74    1
    45    66    67   ar
    46    66    64   ar
    47    67    65   ar
    48   134   135    1
    49    85    84    1
    50    81    84    1
    51    81    82    1
    52    81    80    1
    53   145   146   ar
    54   145   147   ar
    55    82    83    2
    56    74    75    1
    57    74    73    1
    58    64    62   ar
    59    65    63   ar
    60   135   136    1
    61   135   138    1
    62    75    76    2
    63   136   137    2
    64    73    70   am
    65    62    63   ar
    66    62    61    1
    67    88    89    1
    68    56    55    1
    69    70    71    2
    70    70    69    1
    71    89    90    1
    72   112   111    1
    73    60    59    2
    74    61    58    1
    75    55    52    1
    76    69    68    1
    77    69    72    1
    78    59    68   am
    79    59    58    1
    80     9     7   ar
    81     9    11   ar
    82   111   108    1
    83     7     6   ar
    84    58    57    1
    85    98    92    1
    86    98    97    1
    87    90    92   am
    88    90    91    2
    89    11    10   ar
    90    52    51    1
    91    52    53    1
    92    51    41   am
    93    92    93    1
    94    37    36    2
    95     6     5    1
    96     6     8   ar
    97    97    96    1
    98    47    45   ar
    99    47    49   ar
   100   108   107    1
   101   108   109    1
   102    38    35    1
   103    45    44   ar
   104    54    53    2
   105     5     2    1
   106    30    29    1
   107    30    31    2
   108    10     8   ar
   109    29    28    1
   110    40    41    1
   111    40    39    1
   112    40    43    1
   113    41    42    2
   114    36    39   am
   115    36    35    1
   116   107   101   am
   117    33    31    1
   118     1     2    1
   119    31    32    1
   120   109   110    2
   121    50    49    1
   122    93    96    1
   123    93    94    1
   124    35    34    1
   125    49    48   ar
   126     2     3    1
   127    34    25   am
   128    22    20    1
   129    44    43    1
   130    44    46   ar
   131    99    94   am
   132    99   100    1
   133    28    27    1
   134    27    24    1
   135   101   100    1
   136   101   102    2
   137    94    95    2
   138   103   100    1
   139   103   104    1
   140    21    20    1
   141   120   122   ar
   142   120   118   ar
   143    48    46   ar
   144    20    19    2
   145    24    25    1
   146    24    23    1
   147    25    26    2
   148   122   123   ar
   149     3     4    2
   150   117   118    1
   151   117   114    1
   152   104   105    1
   153   118   119   ar
   154    19    18    1
   155   123   121   ar
   156   115   114    1
   157   115   116    2
   158   114   113    1
   159   119   121   ar
   160    17    18    1
   161    17    16    1
   162   105   106    1
   163    12    13    1
   164    13    16    1
   165    13    14    1
   166    14    15    2
