@<TRIPOS>MOLECULE
tmp/5ufaA01.pdb
 173 164 0 0 0
SMALL
GASTEIGER

@<TRIPOS>ATOM
      1  N         29.9580  -26.9120   11.0180 N.3    19  LEU19      -0.1245
      2  CA        30.7140  -25.6960   11.2890 C.3    19  LEU19       0.1561
      3  C         30.3160  -25.1510   12.6500 C.2    19  LEU19       0.2260
      4  O         29.1350  -24.8880   12.9000 O.2    19  LEU19      -0.2867
      5  CB        30.4720  -24.6390   10.2070 C.3    19  LEU19       0.0270
      6  CG        30.9180  -25.1200    8.8340 C.3    19  LEU19       0.0019
      7  CD1       30.5010  -24.1150    7.7490 C.3    19  LEU19       0.0001
      8  CD2       32.4410  -25.3850    8.8830 C.3    19  LEU19       0.0001
      9  N         35.9860  -26.7800   11.6720 N.3    69  VAL69      -0.1231
     10  CA        35.2520  -27.6470   10.7480 C.3    69  VAL69       0.1692
     11  C         35.2290  -29.0530   11.3390 C.2    69  VAL69       0.2592
     12  O         36.2840  -29.6310   11.6290 O.2    69  VAL69      -0.2718
     13  CB        35.9020  -27.6460    9.3530 C.3    69  VAL69       0.0266
     14  CG1       35.1640  -28.5770    8.3900 C.3    69  VAL69       0.0020
     15  CG2       35.9670  -26.2190    8.7910 C.3    69  VAL69       0.0020
     16  N         34.0320  -29.6180   11.5080 N.am   70  LEU70      -0.1966
     17  CA        33.9200  -30.9740   12.0480 C.3    70  LEU70       0.1728
     18  C         34.2430  -31.9930   10.9610 C.2    70  LEU70       0.2616
     19  O         33.5400  -32.0760    9.9450 O.2    70  LEU70      -0.2715
     20  CB        32.5300  -31.2090   12.6240 C.3    70  LEU70       0.0311
     21  CG        32.1260  -30.2370   13.7350 C.3    70  LEU70       0.0022
     22  CD1       30.7770  -30.6450   14.3350 C.3    70  LEU70       0.0001
     23  CD2       33.2130  -30.1490   14.8100 C.3    70  LEU70       0.0001
     24  N         35.3070  -32.7650   11.1710 N.am   71  ILE71      -0.1963
     25  CA        35.7700  -33.7230   10.1770 C.3    71  ILE71       0.1727
     26  C         35.1380  -35.0740   10.4440 C.2    71  ILE71       0.2616
     27  O         35.2910  -35.6400   11.5350 O.2    71  ILE71      -0.2715
     28  CB        37.3040  -33.8510   10.1820 C.3    71  ILE71       0.0290
     29  CG1       37.9880  -32.4930   10.0190 C.3    71  ILE71       0.0022
     30  CG2       37.7350  -34.8010    9.0650 C.3    71  ILE71       0.0023
     31  CD1       37.6500  -31.7610    8.7090 C.3    71  ILE71       0.0001
     32  N         34.5030  -35.6230    9.4180 N.am   72  GLN72      -0.1977
     33  CA        33.9570  -36.9630    9.4950 C.3    72  GLN72       0.1601
     34  C         35.0230  -37.9360    9.9750 C.2    72  GLN72       0.2287
     35  O         36.1250  -37.9910    9.4240 O.2    72  GLN72      -0.2864
     36  CB        33.4310  -37.3580    8.1180 C.3    72  GLN72       0.0394
     37  CG        32.8420  -38.7550    8.0110 C.3    72  GLN72       0.0908
     38  CD        31.4110  -38.8270    8.4570 C.2    72  GLN72       0.2608
     39  OE1       30.7010  -37.8210    8.4460 O.2    72  GLN72      -0.2717
     40  NE2       30.9520  -40.0280    8.7910 N.am   72  GLN72      -0.0878
     41  N         40.7890  -20.4260    2.4460 N.3   115  THR115     -0.1203
     42  CA        39.7590  -21.4210    2.1770 C.3   115  THR115      0.1994
     43  C         39.2180  -21.9460    3.4950 C.2   115  THR115      0.2618
     44  O         39.9780  -22.1250    4.4550 O.2   115  THR115     -0.2717
     45  CB        40.2910  -22.6100    1.3670 C.3   115  THR115      0.1784
     46  OG1       41.1520  -23.3950    2.1980 O.3   115  THR115     -0.2211
     47  CG2       41.0360  -22.1470    0.1470 C.3   115  THR115      0.0376
     48  N         37.9020  -22.1740    3.5400 N.am  116  GLY116     -0.1942
     49  CA        37.3140  -22.8810    4.6610 C.3   116  GLY116      0.2014
     50  C         37.6280  -22.2000    5.9680 C.2   116  GLY116      0.2639
     51  O         37.4020  -20.9970    6.1330 O.2   116  GLY116     -0.2714
     52  N         38.1700  -22.9780    6.9160 N.am  117  SER117     -0.1949
     53  CA        38.4670  -22.4680    8.2490 C.3   117  SER117      0.1924
     54  C         39.7300  -21.6200    8.2890 C.2   117  SER117      0.2314
     55  O         39.9740  -20.9460    9.2900 O.2   117  SER117     -0.2863
     56  CB        38.6030  -23.6290    9.2330 C.3   117  SER117      0.2116
     57  OG        39.5090  -24.5990    8.7430 O.3   117  SER117     -0.2180
     58  N         37.2500  -18.5430    0.2820 N.3   143  SER143     -0.1202
     59  CA        36.7430  -19.5620   -0.6380 C.3   143  SER143      0.2020
     60  C         36.1480  -20.7200    0.1530 C.2   143  SER143      0.2619
     61  O         36.8350  -21.3300    0.9840 O.2   143  SER143     -0.2717
     62  CB        37.8400  -20.0800   -1.5680 C.3   143  SER143      0.2103
     63  OG        37.3090  -21.0480   -2.4660 O.3   143  SER143     -0.2182
     64  N         34.8740  -21.0170   -0.1120 N.am  144  VAL144     -0.1965
     65  CA        34.1860  -22.1880    0.4190 C.3   144  VAL144      0.1727
     66  C         33.3800  -22.8080   -0.7170 C.2   144  VAL144      0.2616
     67  O         33.1770  -22.1980   -1.7680 O.2   144  VAL144     -0.2715
     68  CB        33.2550  -21.8360    1.5990 C.3   144  VAL144      0.0290
     69  CG1       34.0370  -21.2460    2.7520 C.3   144  VAL144      0.0023
     70  CG2       32.1890  -20.8780    1.1200 C.3   144  VAL144      0.0023
     71  N         32.8830  -24.0230   -0.4900 N.am  145  SER145     -0.1950
     72  CA        32.1560  -24.6900   -1.5660 C.3   145  SER145      0.1924
     73  C         30.7420  -24.1460   -1.7320 C.2   145  SER145      0.2314
     74  O         30.2660  -24.0030   -2.8650 O.2   145  SER145     -0.2863
     75  CB        32.1220  -26.1980   -1.3280 C.3   145  SER145      0.2116
     76  OG        33.4150  -26.7380   -1.5490 O.3   145  SER145     -0.2180
     77  N         28.3110  -22.0460    4.0400 N.3   149  GLU149     -0.1245
     78  CA        29.5470  -22.1540    4.7930 C.3   149  GLU149      0.1567
     79  C         30.2090  -20.8060    5.0180 C.2   149  GLU149      0.2260
     80  O         31.1680  -20.7290    5.7900 O.2   149  GLU149     -0.2867
     81  CB        30.5170  -23.1140    4.0730 C.3   149  GLU149      0.0388
     82  CG        29.9090  -24.5090    3.8090 C.3   149  GLU149      0.1160
     83  CD        30.8540  -25.4780    3.0840 C.2   149  GLU149      0.3649
     84  OE1       31.2210  -25.1970    1.9110 O.co2 149  GLU149     -0.2457
     85  OE2       31.1900  -26.5360    3.6770 O.co2 149  GLU149     -0.2457
     86  N         32.7110  -22.1790   -4.5960 N.3   171  THR171     -0.1203
     87  CA        33.2740  -22.9340   -5.7110 C.3   171  THR171      0.1994
     88  C         32.3190  -23.9440   -6.3300 C.2   171  THR171      0.2617
     89  O         32.5590  -24.3700   -7.4690 O.2   171  THR171     -0.2717
     90  CB        34.5330  -23.6650   -5.2590 C.3   171  THR171      0.1784
     91  OG1       34.2480  -24.3920   -4.0540 O.3   171  THR171     -0.2211
     92  CG2       35.6200  -22.6370   -4.9670 C.3   171  THR171      0.0376
     93  N         31.2650  -24.3570   -5.6080 N.am  172  ARG172     -0.1979
     94  CA        30.3270  -25.3650   -6.0900 C.3   172  ARG172      0.1597
     95  C         28.8840  -24.9010   -6.1660 C.2   172  ARG172      0.2287
     96  O         28.0060  -25.7290   -6.4350 O.2   172  ARG172     -0.2864
     97  CB        30.4080  -26.6100   -5.2140 C.3   172  ARG172      0.0334
     98  CG        31.7750  -27.1600   -5.2220 C.3   172  ARG172      0.0492
     99  CD        31.8990  -28.4740   -4.5270 C.3   172  ARG172      0.2205
    100  NE        33.1570  -29.0560   -4.9320 N.pl3 172  ARG172     -0.0865
    101  CZ        33.7680  -30.0370   -4.3010 C.cat 172  ARG172      0.5346
    102  NH1       33.3080  -30.4650   -3.1400 N.pl3 172  ARG172      0.1354
    103  NH2       34.9020  -30.5060   -4.7800 N.pl3 172  ARG172      0.1354
    104  N         38.1550  -21.5030   -8.3900 N.3   183  ARG183     -0.1231
    105  CA        39.0390  -21.4370   -7.2430 C.3   183  ARG183      0.1694
    106  C         39.9270  -20.2020   -7.3150 C.2   183  ARG183      0.2592
    107  O         40.0560  -19.5500   -8.3540 O.2   183  ARG183     -0.2718
    108  CB        39.8940  -22.6920   -7.1580 C.3   183  ARG183      0.0321
    109  CG        39.1290  -23.8860   -6.6840 C.3   183  ARG183      0.0489
    110  CD        39.8930  -25.1550   -6.9920 C.3   183  ARG183      0.2205
    111  NE        39.2880  -26.2900   -6.3120 N.pl3 183  ARG183     -0.0865
    112  CZ        39.8550  -27.4830   -6.1980 C.cat 183  ARG183      0.5346
    113  NH1       41.0450  -27.7000   -6.7370 N.pl3 183  ARG183      0.1354
    114  NH2       39.2390  -28.4480   -5.5320 N.pl3 183  ARG183      0.1354
    115  N         40.5300  -19.8890   -6.1720 N.am  184  ILE184     -0.1966
    116  CA        41.3210  -18.6690   -6.0490 C.3   184  ILE184      0.1712
    117  C         42.4810  -18.6010   -7.0490 C.2   184  ILE184      0.2458
    118  O         42.6500  -17.5530   -7.6920 O.2   184  ILE184     -0.2730
    119  CB        41.7750  -18.5010   -4.5910 C.3   184  ILE184      0.0289
    120  CG1       40.5940  -17.9650   -3.7740 C.3   184  ILE184      0.0022
    121  CG2       43.0260  -17.6320   -4.4980 C.3   184  ILE184      0.0023
    122  CD1       40.8620  -17.8580   -2.3460 C.3   184  ILE184      0.0001
    123  N         43.2940  -19.6470   -7.2420 N.am  185  PRO185     -0.2727
    124  CA        44.3890  -19.5040   -8.2180 C.3   185  PRO185      0.1402
    125  C         43.9210  -19.0590   -9.5870 C.2   185  PRO185      0.2269
    126  O         44.5430  -18.1760  -10.1860 O.2   185  PRO185     -0.2865
    127  CB        45.0060  -20.9020   -8.2570 C.3   185  PRO185      0.0296
    128  CG        44.7500  -21.4410   -6.9040 C.3   185  PRO185      0.0237
    129  CD        43.3910  -20.9280   -6.5170 C.3   185  PRO185      0.0939
    130  N         43.6150  -24.6750    2.8300 N.3   213  ASN213     -0.1240
    131  CA        43.9290  -26.0120    2.3690 C.3   213  ASN213      0.1653
    132  C         45.3570  -26.0660    1.8190 C.2   213  ASN213      0.2266
    133  O         45.7090  -25.2710    0.9380 O.2   213  ASN213     -0.2867
    134  CB        42.9340  -26.4170    1.2910 C.3   213  ASN213      0.1155
    135  CG        43.1160  -27.8540    0.8370 C.2   213  ASN213      0.2627
    136  OD1       44.2180  -28.2960    0.4900 O.2   213  ASN213     -0.2716
    137  ND2       42.0150  -28.5850    0.8070 N.am  213  ASN213     -0.0877
    138  N         46.7850  -27.8370   -0.4170 N.3   215  GLU215     -0.1231
    139  CA        46.8860  -27.8340   -1.8730 C.3   215  GLU215      0.1699
    140  C         46.5720  -26.4480   -2.4240 C.2   215  GLU215      0.2592
    141  O         47.2130  -25.9970   -3.3840 O.2   215  GLU215     -0.2718
    142  CB        45.9970  -28.9120   -2.5040 C.3   215  GLU215      0.0402
    143  CG        46.4320  -30.3450   -2.2030 C.3   215  GLU215      0.1161
    144  CD        47.9280  -30.6180   -2.4600 C.2   215  GLU215      0.3649
    145  OE1       48.3440  -30.7680   -3.6360 O.co2 215  GLU215     -0.2457
    146  OE2       48.6970  -30.7010   -1.4760 O.co2 215  GLU215     -0.2457
    147  N         45.6160  -25.7450   -1.8100 N.am  216  MET216     -0.1979
    148  CA        45.3340  -24.3810   -2.2440 C.3   216  MET216      0.1605
    149  C         46.5300  -23.4760   -1.9730 C.2   216  MET216      0.2287
    150  O         46.8490  -22.5960   -2.7840 O.2   216  MET216     -0.2864
    151  CB        44.0650  -23.8390   -1.5650 C.3   216  MET216      0.0413
    152  CG        43.8130  -22.3480   -1.8110 C.3   216  MET216      0.0598
    153  SD        44.4890  -21.2400   -0.5420 S.3   216  MET216     -0.1393
    154  CE        43.9280  -19.6440   -1.1460 C.3   216  MET216      0.0692
    155  N         49.1400  -24.1920   -4.6680 N.3   219  ASP219     -0.1239
    156  CA        48.6590  -23.6680   -5.9410 C.3   219  ASP219      0.1674
    157  C         48.6320  -22.1460   -5.9530 C.2   219  ASP219      0.2266
    158  O         48.9300  -21.5250   -6.9820 O.2   219  ASP219     -0.2867
    159  CB        47.2720  -24.2170   -6.2630 C.3   219  ASP219      0.1410
    160  CG        47.3100  -25.6720   -6.6510 C.2   219  ASP219      0.3668
    161  OD1       48.4240  -26.2180   -6.7550 O.co2 219  ASP219     -0.2456
    162  OD2       46.2370  -26.2680   -6.8830 O.co2 219  ASP219     -0.2456
    163  N         45.6710  -26.5170    7.8630 N.3   246  PHE246     -0.1241
    164  CA        45.6010  -27.7920    8.5740 C.3   246  PHE246      0.1605
    165  C         46.6330  -28.8100    8.0910 C.2   246  PHE246      0.2264
    166  O         47.3580  -28.6030    7.1240 O.2   246  PHE246     -0.2867
    167  CB        44.1850  -28.3780    8.4650 C.3   246  PHE246      0.0534
    168  CG        43.7180  -28.5920    7.0680 C.ar  246  PHE246     -0.0203
    169  CD1       44.0600  -29.7340    6.3700 C.ar  246  PHE246     -0.0042
    170  CD2       42.9090  -27.6590    6.4590 C.ar  246  PHE246     -0.0042
    171  CE1       43.6050  -29.9410    5.0810 C.ar  246  PHE246     -0.0003
    172  CE2       42.4560  -27.8480    5.1740 C.ar  246  PHE246     -0.0003
    173  CZ        42.7990  -28.9870    4.4790 C.ar  246  PHE246     -0.0000
@<TRIPOS>BOND
     1   126   125    2
     2   125   124    1
     3   104   105    1
     4   107   106    2
     5   127   124    1
     6   127   128    1
     7   124   123    1
     8   118   117    2
     9    89    88    2
    10   106   105    1
    11   106   115   am
    12   105   108    1
    13   123   117   am
    14   123   129    1
    15   108   109    1
    16   117   116    1
    17   110   109    1
    18   110   111    1
    19   158   157    2
    20   128   129    1
    21   162   160   ar
    22   161   160   ar
    23   113   112    1
    24   160   159    1
    25    96    95    2
    26    88    87    1
    27    88    93   am
    28   111   112    2
    29   159   156    1
    30   112   114    1
    31   115   116    1
    32    95    94    1
    33    94    93    1
    34    94    97    1
    35   116   119    1
    36   157   156    1
    37   156   155    1
    38    87    90    1
    39    87    86    1
    40    90    92    1
    41    90    91    1
    42    98    97    1
    43    98    99    1
    44   100    99    1
    45   100   101    2
    46   103   101    1
    47   119   121    1
    48   119   120    1
    49   101   102    1
    50   120   122    1
    51   145   144   ar
    52   141   140    2
    53    74    73    2
    54   150   149    2
    55   142   143    1
    56   142   139    1
    57    63    62    1
    58   144   143    1
    59   144   146   ar
    60   140   139    1
    61   140   147   am
    62   148   149    1
    63   148   147    1
    64   148   151    1
    65   139   138    1
    66   152   151    1
    67   152   153    1
    68    67    66    2
    69    73    72    1
    70    62    59    1
    71    72    75    1
    72    72    71    1
    73    76    75    1
    74   154   153    1
    75    66    71   am
    76    66    65    1
    77    59    60    1
    78    59    58    1
    79    64    60   am
    80    64    65    1
    81    47    45    1
    82    60    61    2
    83    65    68    1
    84   136   135    2
    85   137   135   am
    86   135   134    1
    87   133   132    2
    88    70    68    1
    89   134   131    1
    90    45    42    1
    91    45    46    1
    92    68    69    1
    93   132   131    1
    94    84    83   ar
    95    42    41    1
    96    42    43    1
    97   131   130    1
    98    83    85   ar
    99    83    82    1
   100    43    48   am
   101    43    44    2
   102    48    49    1
   103    82    81    1
   104    77    78    1
   105    81    78    1
   106   173   171   ar
   107   173   172   ar
   108    49    50    1
   109    78    79    1
   110    79    80    2
   111   171   169   ar
   112   172   170   ar
   113    50    51    2
   114    50    52   am
   115   169   168   ar
   116   170   168   ar
   117    52    53    1
   118   168   167    1
   119   166   165    2
   120     7     6    1
   121   163   164    1
   122    37    36    1
   123    37    38    1
   124   165   164    1
   125    36    33    1
   126    53    54    1
   127    53    56    1
   128    54    55    2
   129    14    13    1
   130    39    38    2
   131    38    40   am
   132   167   164    1
   133    31    29    1
   134    57    56    1
   135    15    13    1
   136     6     8    1
   137     6     5    1
   138    30    28    1
   139    13    10    1
   140    32    33    1
   141    32    26   am
   142    35    34    2
   143    33    34    1
   144    19    18    2
   145    29    28    1
   146    25    28    1
   147    25    26    1
   148    25    24    1
   149     5     2    1
   150    26    27    2
   151    10    11    1
   152    10     9    1
   153    18    24   am
   154    18    17    1
   155     1     2    1
   156     2     3    1
   157    11    16   am
   158    11    12    2
   159    16    17    1
   160    17    20    1
   161    20    21    1
   162     3     4    2
   163    21    22    1
   164    21    23    1
