@<TRIPOS>MOLECULE
tmp/5ufcB00.pdb
 176 169 0 0 0
SMALL
GASTEIGER

@<TRIPOS>ATOM
      1  N         46.9360   29.0110   -4.9400 N.3    58  TYR58      -0.1241
      2  CA        47.5530   28.5580   -3.6890 C.3    58  TYR58       0.1605
      3  C         48.5130   29.5870   -3.0970 C.2    58  TYR58       0.2264
      4  O         49.6320   29.7320   -3.5950 O.2    58  TYR58      -0.2867
      5  CB        48.3520   27.2640   -3.8880 C.3    58  TYR58       0.0534
      6  CG        47.5980   26.0190   -4.3140 C.ar   58  TYR58      -0.0201
      7  CD1       47.3530   24.9840   -3.4070 C.ar   58  TYR58      -0.0009
      8  CD2       47.2180   25.8300   -5.6320 C.ar   58  TYR58      -0.0009
      9  CE1       46.6990   23.8130   -3.8070 C.ar   58  TYR58       0.0417
     10  CE2       46.5570   24.6640   -6.0400 C.ar   58  TYR58       0.0417
     11  CZ        46.3040   23.6710   -5.1280 C.ar   58  TYR58       0.1957
     12  OH        45.6580   22.5260   -5.5420 O.3    58  TYR58      -0.2866
     13  N         49.1260   29.3240    0.2730 N.3    60  SER60      -0.1217
     14  CA        49.4210   28.6660    1.5400 C.3    60  SER60       0.1889
     15  C         50.8990   28.7050    1.8860 C.2    60  SER60       0.2288
     16  O         51.7480   28.7410    0.9980 O.2    60  SER60      -0.2866
     17  CB        48.9670   27.2020    1.5270 C.3    60  SER60       0.2089
     18  OG        48.1440   26.9180    0.4200 O.3    60  SER60      -0.2183
     19  N         38.9780   27.6900   -6.2890 N.3    80  PHE80      -0.1241
     20  CA        39.7720   27.1280   -5.1900 C.3    80  PHE80       0.1605
     21  C         40.7110   28.2110   -4.6770 C.2    80  PHE80       0.2264
     22  O         41.4970   28.7540   -5.4410 O.2    80  PHE80      -0.2867
     23  CB        40.5390   25.8960   -5.6960 C.3    80  PHE80       0.0534
     24  CG        41.4140   25.1890   -4.6590 C.ar   80  PHE80      -0.0203
     25  CD1       41.0610   23.9280   -4.1850 C.ar   80  PHE80      -0.0042
     26  CD2       42.6210   25.7370   -4.2320 C.ar   80  PHE80      -0.0042
     27  CE1       41.8730   23.2440   -3.2780 C.ar   80  PHE80      -0.0003
     28  CE2       43.4280   25.0650   -3.3220 C.ar   80  PHE80      -0.0003
     29  CZ        43.0540   23.8120   -2.8460 C.ar   80  PHE80      -0.0000
     30  N         43.4080   28.8540   -1.4220 N.3    82  SER82      -0.1217
     31  CA        44.0090   28.4430   -0.1660 C.3    82  SER82       0.1889
     32  C         44.9250   29.5160    0.4090 C.2    82  SER82       0.2288
     33  O         45.8780   29.9530   -0.2350 O.2    82  SER82      -0.2866
     34  CB        44.7640   27.1280   -0.3310 C.3    82  SER82       0.2089
     35  OG        45.8030   27.2420   -1.2770 O.3    82  SER82      -0.2183
     36  N         45.9070   29.0610    3.8050 N.3    84  ASP84      -0.1225
     37  CA        46.2940   28.4160    5.0630 C.3    84  ASP84       0.1805
     38  C         47.7900   28.5920    5.3780 C.2    84  ASP84       0.2597
     39  O         48.5850   28.8490    4.4810 O.2    84  ASP84      -0.2718
     40  CB        45.9320   26.9130    5.0660 C.3    84  ASP84       0.1424
     41  CG        46.3300   26.1890    3.7800 C.2    84  ASP84       0.3668
     42  OD1       45.9890   26.6910    2.6950 O.co2  84  ASP84      -0.2456
     43  OD2       46.9450   25.0920    3.8560 O.co2  84  ASP84      -0.2456
     44  N         48.1420   28.4790    6.6590 N.am   85  GLU85      -0.1979
     45  CA        49.5080   28.6820    7.1470 C.3    85  GLU85       0.1602
     46  C         50.0750   30.0120    6.6730 C.2    85  GLU85       0.2287
     47  O         51.1090   30.0790    6.0040 O.2    85  GLU85      -0.2864
     48  CB        50.4230   27.5370    6.7240 C.3    85  GLU85       0.0415
     49  CG        49.9050   26.2010    7.1820 C.3    85  GLU85       0.1163
     50  CD        50.9100   25.0740    6.9530 C.2    85  GLU85       0.3649
     51  OE1       52.1250   25.3280    7.1030 O.co2  85  GLU85      -0.2457
     52  OE2       50.4850   23.9480    6.6160 O.co2  85  GLU85      -0.2457
     53  N         35.8700   26.1300   -2.7130 N.3   104  TYR104     -0.1241
     54  CA        36.8380   25.7080   -1.6990 C.3   104  TYR104      0.1605
     55  C         37.5370   26.9240   -1.0990 C.2   104  TYR104      0.2264
     56  O         38.1020   27.7280   -1.8290 O.2   104  TYR104     -0.2867
     57  CB        37.8770   24.7610   -2.3060 C.3   104  TYR104      0.0534
     58  CG        38.9540   24.2820   -1.3460 C.ar  104  TYR104     -0.0201
     59  CD1       38.8470   23.0490   -0.7140 C.ar  104  TYR104     -0.0009
     60  CD2       40.1100   25.0500   -1.1030 C.ar  104  TYR104     -0.0009
     61  CE1       39.8370   22.5890    0.1620 C.ar  104  TYR104      0.0417
     62  CE2       41.1100   24.5970   -0.2350 C.ar  104  TYR104      0.0417
     63  CZ        40.9620   23.3610    0.3910 C.ar  104  TYR104      0.1957
     64  OH        41.9250   22.9000    1.2510 O.3   104  TYR104     -0.2866
     65  N         40.1500   27.8410    2.1560 N.3   106  ASN106     -0.1240
     66  CA        40.9440   27.3580    3.2680 C.3   106  ASN106      0.1653
     67  C         41.6600   28.4960    4.0050 C.2   106  ASN106      0.2266
     68  O         42.5380   29.1480    3.4570 O.2   106  ASN106     -0.2867
     69  CB        41.9600   26.3140    2.7760 C.3   106  ASN106      0.1155
     70  CG        42.5600   25.5010    3.9210 C.2   106  ASN106      0.2627
     71  OD1       42.6600   25.9840    5.0380 O.2   106  ASN106     -0.2716
     72  ND2       42.9630   24.2590    3.6370 N.am  106  ASN106     -0.0877
     73  N         42.8150   27.7990    7.2990 N.3   108  ASN108     -0.1225
     74  CA        43.4790   27.1060    8.4110 C.3   108  ASN108      0.1785
     75  C         44.7920   27.7580    8.8020 C.2   108  ASN108      0.2597
     76  O         45.5250   28.2010    7.9380 O.2   108  ASN108     -0.2718
     77  CB        43.7930   25.6500    8.0610 C.3   108  ASN108      0.1169
     78  CG        42.5880   24.7450    8.1090 C.2   108  ASN108      0.2627
     79  OD1       41.4750   25.1820    8.3630 O.2   108  ASN108     -0.2716
     80  ND2       42.8150   23.4530    7.8490 N.am  108  ASN108     -0.0877
     81  N         45.0860   27.7730   10.1000 N.am  109  THR109     -0.1953
     82  CA        46.3930   28.1620   10.6040 C.3   109  THR109      0.1897
     83  C         46.7150   29.5890   10.1850 C.2   109  THR109      0.2313
     84  O         47.6060   29.8620    9.3820 O.2   109  THR109     -0.2863
     85  CB        47.4730   27.1810   10.1330 C.3   109  THR109      0.1794
     86  OG1       47.0180   25.8590   10.4430 O.3   109  THR109     -0.2208
     87  CG2       48.8070   27.4530   10.8310 C.3   109  THR109      0.0378
     88  N         37.2920   25.8390    5.5840 N.3   130  LEU130     -0.1245
     89  CA        38.2410   25.3600    6.5800 C.3   130  LEU130      0.1561
     90  C         38.8440   26.5530    7.2900 C.2   130  LEU130      0.2260
     91  O         39.4600   27.3930    6.6470 O.2   130  LEU130     -0.2867
     92  CB        39.3520   24.5130    5.9180 C.3   130  LEU130      0.0270
     93  CG        38.9000   23.4120    4.9500 C.3   130  LEU130      0.0019
     94  CD1       40.0900   22.6410    4.3830 C.3   130  LEU130      0.0001
     95  CD2       37.9390   22.4470    5.5910 C.3   130  LEU130      0.0001
     96  N         40.3980   26.0520   10.7750 N.3   132  CYS132     -0.1221
     97  CA        41.0100   25.5530   11.9950 C.3   132  CYS132      0.1808
     98  C         42.1500   26.4690   12.4180 C.2   132  CYS132      0.2601
     99  O         42.6340   27.2700   11.6230 O.2   132  CYS132     -0.2717
    100  CB        41.5660   24.1360   11.8030 C.3   132  CYS132      0.0970
    101  SG        43.3770   24.1160   11.4180 S.3   132  CYS132     -0.0800
    102  N         42.5600   26.3280   13.6750 N.am  133  CYS133     -0.1970
    103  CA        43.8460   26.8270   14.1620 C.3   133  CYS133      0.1712
    104  C         43.9620   28.3410   13.9810 C.2   133  CYS133      0.2296
    105  O         44.9790   28.8630   13.5210 O.2   133  CYS133     -0.2864
    106  CB        44.9860   26.0760   13.4590 C.3   133  CYS133      0.0983
    107  SG        44.5550   24.3040   13.1500 S.3   133  CYS133     -0.0798
    108  N         32.2710   19.9570    3.8530 N.3   151  HIS151     -0.1241
    109  CA        33.3620   19.9810    4.8060 C.3   151  HIS151      0.1621
    110  C         33.3790   21.3050    5.5430 C.2   151  HIS151      0.2264
    111  O         33.3660   22.3610    4.9040 O.2   151  HIS151     -0.2867
    112  CB        34.7180   19.7690    4.1080 C.3   151  HIS151      0.0745
    113  CG        34.8920   18.4110    3.5010 C.ar  151  HIS151      0.0817
    114  ND1       34.1300   17.9600    2.4430 N.ar  151  HIS151     -0.2268
    115  CD2       35.7590   17.4110    3.7940 C.ar  151  HIS151      0.1154
    116  CE1       34.5090   16.7330    2.1210 C.ar  151  HIS151      0.1986
    117  NE2       35.4970   16.3780    2.9250 N.ar  151  HIS151     -0.2212
    118  N         35.6310   22.9480    8.8600 N.3   153  ALA153     -0.1245
    119  CA        36.6640   22.7860    9.8810 C.3   153  ALA153      0.1562
    120  C         36.7040   23.9960   10.8050 C.2   153  ALA153      0.2260
    121  O         36.9640   25.1190   10.3690 O.2   153  ALA153     -0.2867
    122  CB        38.0360   22.5680    9.2460 C.3   153  ALA153      0.0290
    123  N         38.1670   23.3400   14.0760 N.3   155  ASP155     -0.1225
    124  CA        38.9250   22.7900   15.1880 C.3   155  ASP155      0.1805
    125  C         40.0370   23.7340   15.6500 C.2   155  ASP155      0.2597
    126  O         40.5210   24.5750   14.8870 O.2   155  ASP155     -0.2718
    127  CB        39.5040   21.4070   14.8240 C.3   155  ASP155      0.1424
    128  CG        40.3290   21.4260   13.5460 C.2   155  ASP155      0.3668
    129  OD1       39.7300   21.3790   12.4540 O.co2 155  ASP155     -0.2456
    130  OD2       41.5750   21.4620   13.6420 O.co2 155  ASP155     -0.2456
    131  N         40.4110   23.5920   16.9160 N.am  156  GLN156     -0.1979
    132  CA        41.5370   24.3080   17.4990 C.3   156  GLN156      0.1601
    133  C         41.3700   25.8210   17.4100 C.2   156  GLN156      0.2287
    134  O         42.3180   26.5420   17.1160 O.2   156  GLN156     -0.2864
    135  CB        42.8530   23.8720   16.8360 C.3   156  GLN156      0.0394
    136  CG        43.2380   22.4360   17.1720 C.3   156  GLN156      0.0908
    137  CD        44.3860   21.9230   16.3290 C.2   156  GLN156      0.2608
    138  OE1       45.5480   21.9730   16.7330 O.2   156  GLN156     -0.2717
    139  NE2       44.0620   21.4120   15.1500 N.am  156  GLN156     -0.0878
    140  N         34.7130   19.2720   11.7260 N.3   177  TYR177     -0.1241
    141  CA        35.7990   19.2190   12.7080 C.3   177  TYR177      0.1605
    142  C         35.5590   20.2100   13.8450 C.2   177  TYR177      0.2264
    143  O         35.5260   21.4320   13.6290 O.2   177  TYR177     -0.2867
    144  CB        37.1520   19.4950   12.0410 C.3   177  TYR177      0.0534
    145  CG        37.5670   18.4490   11.0270 C.ar  177  TYR177     -0.0201
    146  CD1       37.1470   18.5320    9.6990 C.ar  177  TYR177     -0.0009
    147  CD2       38.3870   17.3930   11.3930 C.ar  177  TYR177     -0.0009
    148  CE1       37.5260   17.5820    8.7650 C.ar  177  TYR177      0.0417
    149  CE2       38.7810   16.4320   10.4580 C.ar  177  TYR177      0.0417
    150  CZ        38.3430   16.5330    9.1510 C.ar  177  TYR177      0.1957
    151  OH        38.7120   15.5860    8.2250 O.3   177  TYR177     -0.2866
    152  N         36.9720   19.5640   17.2810 N.3   179  PHE179     -0.1241
    153  CA        37.8400   19.2870   18.4210 C.3   179  PHE179      0.1605
    154  C         38.7680   20.4510   18.7570 C.2   179  PHE179      0.2264
    155  O         38.9600   21.3570   17.9480 O.2   179  PHE179     -0.2867
    156  CB        38.6840   18.0270   18.1660 C.3   179  PHE179      0.0534
    157  CG        39.7620   18.2130   17.1130 C.ar  179  PHE179     -0.0203
    158  CD1       39.5090   17.9110   15.7860 C.ar  179  PHE179     -0.0042
    159  CD2       41.0240   18.6880   17.4610 C.ar  179  PHE179     -0.0042
    160  CE1       40.4930   18.0690   14.8170 C.ar  179  PHE179     -0.0003
    161  CE2       42.0120   18.8460   16.5010 C.ar  179  PHE179     -0.0003
    162  CZ        41.7380   18.5350   15.1670 C.ar  179  PHE179     -0.0000
    163  N         41.2810   14.8550   13.5000 N.3   207  TRP207     -0.1241
    164  CA        42.3110   14.7290   12.4740 C.3   207  TRP207      0.1605
    165  C         43.5400   13.9870   12.9890 C.2   207  TRP207      0.2264
    166  O         44.2980   14.5310   13.7880 O.2   207  TRP207     -0.2867
    167  CB        42.7200   16.1130   11.9690 C.3   207  TRP207      0.0550
    168  CG        43.7260   16.0540   10.8530 C.ar  207  TRP207      0.0003
    169  CD1       45.0700   16.2510   10.9450 C.ar  207  TRP207      0.0946
    170  CD2       43.4550   15.7550    9.4810 C.ar  207  TRP207      0.0152
    171  NE1       45.6560   16.1050    9.7060 N.ar  207  TRP207     -0.2442
    172  CE2       44.6860   15.7950    8.7910 C.ar  207  TRP207      0.0810
    173  CE3       42.2900   15.4580    8.7690 C.ar  207  TRP207      0.0012
    174  CZ2       44.7860   15.5510    7.4220 C.ar  207  TRP207      0.0191
    175  CZ3       42.3850   15.2160    7.4070 C.ar  207  TRP207      0.0001
    176  CH2       43.6310   15.2580    6.7470 C.ar  207  TRP207      0.0015
@<TRIPOS>BOND
     1    19    20    1
     2    10     8   ar
     3    10    11   ar
     4    23    20    1
     5    23    24    1
     6     8     6   ar
     7    12    11    1
     8    22    21    2
     9    20    21    1
    10    11     9   ar
    11     1     2    1
    12    24    26   ar
    13    24    25   ar
    14     6     5    1
    15     6     7   ar
    16    26    28   ar
    17    25    27   ar
    18     5     2    1
    19     9     7   ar
    20     2     3    1
    21     4     3    2
    22    28    29   ar
    23    27    29   ar
    24    53    54    1
    25    57    54    1
    26    57    58    1
    27    56    55    2
    28    54    55    1
    29    30    31    1
    30    58    60   ar
    31    58    59   ar
    32    35    34    1
    33    60    62   ar
    34    59    61   ar
    35    34    31    1
    36    62    63   ar
    37    33    32    2
    38    31    32    1
    39    61    63   ar
    40    13    14    1
    41    63    64    1
    42    18    17    1
    43    16    15    2
    44    17    14    1
    45    14    15    1
    46   116   114   ar
    47   116   117   ar
    48    65    66    1
    49   114   113   ar
    50    42    41   ar
    51    69    66    1
    52    69    70    1
    53   117   115   ar
    54    66    67    1
    55    68    67    2
    56   113   115   ar
    57   113   112    1
    58    72    70   am
    59    41    43   ar
    60    41    40    1
    61    36    37    1
    62   108   109    1
    63    70    71    2
    64   112   109    1
    65    94    93    1
    66    39    38    2
    67   109   110    1
    68   111   110    2
    69    93    95    1
    70    93    92    1
    71    37    40    1
    72    37    38    1
    73    38    44   am
    74    88    89    1
    75    92    89    1
    76    47    46    2
    77    89    90    1
    78    52    50   ar
    79    91    90    2
    80    44    45    1
    81    46    45    1
    82    48    45    1
    83    48    49    1
    84   176   175   ar
    85   176   174   ar
    86    50    51   ar
    87    50    49    1
    88    73    74    1
    89   175   173   ar
    90   174   172   ar
    91    80    78   am
    92    76    75    2
    93    77    78    1
    94    77    74    1
    95    78    79    2
    96   151   150    1
    97    74    75    1
    98   148   150   ar
    99   148   146   ar
   100   173   170   ar
   101   172   170   ar
   102   172   171   ar
   103    75    81   am
   104   118   119    1
   105   150   149   ar
   106   122   119    1
   107    84    83    2
   108   170   168   ar
   109   146   145   ar
   110   171   169   ar
   111   119   120    1
   112    81    82    1
   113    85    86    1
   114    85    82    1
   115    85    87    1
   116    83    82    1
   117   121   120    2
   118   149   147   ar
   119    96    97    1
   120   168   169   ar
   121   168   167    1
   122   145   147   ar
   123   145   144    1
   124   101   100    1
   125   101   107    1
   126    99    98    2
   127   140   141    1
   128   100    97    1
   129   167   164    1
   130    97    98    1
   131   144   141    1
   132    98   102   am
   133   129   128   ar
   134   164   165    1
   135   164   163    1
   136   141   142    1
   137   165   166    2
   138   107   106    1
   139   106   103    1
   140   105   104    2
   141   128   130   ar
   142   128   127    1
   143   143   142    2
   144   102   103    1
   145   104   103    1
   146   123   124    1
   147   160   162   ar
   148   160   158   ar
   149   127   124    1
   150   126   125    2
   151   139   137   am
   152   162   161   ar
   153   124   125    1
   154   125   131   am
   155   158   157   ar
   156   137   138    2
   157   137   136    1
   158   161   159   ar
   159   135   136    1
   160   135   132    1
   161   131   132    1
   162   157   159   ar
   163   157   156    1
   164   134   133    2
   165   152   153    1
   166   133   132    1
   167   155   154    2
   168   156   153    1
   169   153   154    1
