@<TRIPOS>MOLECULE
tmp/5uffA00.pdb
 139 135 0 0 0
SMALL
GASTEIGER

@<TRIPOS>ATOM
      1  N          4.8220   -1.8880   15.9360 N.3    36  HIS36      -0.1241
      2  CA         5.7580   -1.5120   16.9700 C.3    36  HIS36       0.1621
      3  C          6.0710   -2.6970   17.9140 C.2    36  HIS36       0.2264
      4  O          5.2240   -3.5520   18.1420 O.2    36  HIS36      -0.2867
      5  CB         5.2150   -0.3080   17.7520 C.3    36  HIS36       0.0745
      6  CG         3.9920   -0.6060   18.5620 C.ar   36  HIS36       0.0817
      7  ND1        2.7350   -0.6880   18.0080 N.ar   36  HIS36      -0.2268
      8  CD2        3.8310   -0.8220   19.8930 C.ar   36  HIS36       0.1154
      9  CE1        1.8530   -0.9550   18.9560 C.ar   36  HIS36       0.1986
     10  NE2        2.4920   -1.0400   20.1110 N.ar   36  HIS36      -0.2212
     11  N          2.3610    2.4910   13.1980 N.3    58  TYR58      -0.1241
     12  CA         3.2730    2.4670   14.3240 C.3    58  TYR58       0.1605
     13  C          4.4670    1.5580   14.0750 C.2    58  TYR58       0.2264
     14  O          4.3360    0.3580   13.8650 O.2    58  TYR58      -0.2867
     15  CB         2.5300    2.0520   15.5900 C.3    58  TYR58       0.0534
     16  CG         1.3430    2.9390   15.9150 C.ar   58  TYR58      -0.0201
     17  CD1        1.4690    4.0270   16.7810 C.ar   58  TYR58      -0.0009
     18  CD2        0.0870    2.6740   15.3730 C.ar   58  TYR58      -0.0009
     19  CE1        0.3760    4.8320   17.0990 C.ar   58  TYR58       0.0417
     20  CE2       -1.0030    3.4610   15.6850 C.ar   58  TYR58       0.0417
     21  CZ        -0.8530    4.5340   16.5540 C.ar   58  TYR58       0.1957
     22  OH        -1.9480    5.3060   16.8510 O.3    58  TYR58      -0.2866
     23  N          7.3610    2.1030   16.0910 N.3    60  GLY60      -0.1210
     24  CA         8.1730    2.2790   17.2820 C.3    60  GLY60       0.1956
     25  C          8.8220    0.9930   17.7610 C.2    60  GLY60       0.2612
     26  O          8.3680   -0.0960   17.4320 O.2    60  GLY60      -0.2717
     27  N          9.9190    1.1280   18.4950 N.am   61  SER61      -0.1952
     28  CA        10.5780    0.0050   19.1550 C.3    61  SER61       0.1924
     29  C         10.9640   -1.1140   18.2050 C.2    61  SER61       0.2314
     30  O         10.5650   -2.2620   18.3890 O.2    61  SER61      -0.2863
     31  CB         9.6890   -0.5540   20.2710 C.3    61  SER61       0.2116
     32  OG         9.4720    0.4250   21.2570 O.3    61  SER61      -0.2180
     33  N          4.5030    6.7740   14.1230 N.3    82  ASP82      -0.1239
     34  CA         5.3450    6.5210   15.3030 C.3    82  ASP82       0.1674
     35  C          6.6400    5.7910   14.9620 C.2    82  ASP82       0.2266
     36  O          6.6250    4.6270   14.5510 O.2    82  ASP82      -0.2867
     37  CB         4.5690    5.7210   16.3540 C.3    82  ASP82       0.1410
     38  CG         5.2280    5.7590   17.7340 C.2    82  ASP82       0.3668
     39  OD1        6.4780    5.8660   17.8290 O.co2  82  ASP82      -0.2456
     40  OD2        4.4830    5.6640   18.7410 O.co2  82  ASP82      -0.2456
     41  N         12.2010    5.0180   19.2250 N.3    85  THR85      -0.1218
     42  CA        12.9320    3.8640   19.7450 C.3    85  THR85       0.1862
     43  C         13.3820    3.0020   18.5780 C.2    85  THR85       0.2287
     44  O         13.0800    1.8080   18.4790 O.2    85  THR85      -0.2866
     45  CB        12.0930    3.0460   20.7780 C.3    85  THR85       0.1770
     46  OG1       11.6080    3.9310   21.7980 O.3    85  THR85      -0.2211
     47  CG2       12.9320    1.9520   21.4390 C.3    85  THR85       0.0375
     48  N          5.8610   10.8810   16.2550 N.3   106  PHE106     -0.1241
     49  CA         6.6740   10.4380   17.3620 C.3   106  PHE106      0.1605
     50  C          8.0070    9.9280   16.8670 C.2   106  PHE106      0.2264
     51  O          8.0610    8.9900   16.0880 O.2   106  PHE106     -0.2867
     52  CB         5.9310    9.3630   18.1450 C.3   106  PHE106      0.0534
     53  CG         4.5590    9.7840   18.5650 C.ar  106  PHE106     -0.0203
     54  CD1        4.3910   10.7030   19.5930 C.ar  106  PHE106     -0.0042
     55  CD2        3.4390    9.3040   17.9130 C.ar  106  PHE106     -0.0042
     56  CE1        3.1210   11.1190   19.9830 C.ar  106  PHE106     -0.0003
     57  CE2        2.1720    9.7080   18.2960 C.ar  106  PHE106     -0.0003
     58  CZ         2.0130   10.6200   19.3430 C.ar  106  PHE106     -0.0000
     59  N         10.9250    9.9560   19.2320 N.3   108  CYS108     -0.1221
     60  CA        11.7850    9.9180   20.3990 C.3   108  CYS108      0.1808
     61  C         12.8120    8.7980   20.3150 C.2   108  CYS108      0.2601
     62  O         12.6740    7.8810   19.5150 O.2   108  CYS108     -0.2717
     63  CB        10.9610    9.7150   21.6630 C.3   108  CYS108      0.0970
     64  SG        11.0480    7.9880   22.2290 S.3   108  CYS108     -0.0800
     65  N         13.8350    8.8880   21.1550 N.am  109  CYS109     -0.1970
     66  CA        14.6850    7.7460   21.4780 C.3   109  CYS109      0.1712
     67  C         15.2830    7.0990   20.2240 C.2   109  CYS109      0.2296
     68  O         15.3510    5.8730   20.1060 O.2   109  CYS109     -0.2864
     69  CB        13.8920    6.7120   22.2960 C.3   109  CYS109      0.0983
     70  SG        12.6320    7.4160   23.4320 S.3   109  CYS109     -0.0798
     71  N          0.8880   16.6800   17.8730 N.3   127  HIS127     -0.1241
     72  CA         1.9420   16.1450   18.7110 C.3   127  HIS127      0.1621
     73  C          3.2340   16.0340   17.9260 C.2   127  HIS127      0.2264
     74  O          3.2540   15.5550   16.7960 O.2   127  HIS127     -0.2867
     75  CB         1.5750   14.7630   19.2870 C.3   127  HIS127      0.0745
     76  CG         0.3020   14.7330   20.0730 C.ar  127  HIS127      0.0817
     77  ND1       -0.8920   15.2230   19.5880 N.ar  127  HIS127     -0.2268
     78  CD2        0.0300   14.2370   21.3030 C.ar  127  HIS127      0.1154
     79  CE1       -1.8380   15.0530   20.4950 C.ar  127  HIS127      0.1986
     80  NE2       -1.3060   14.4490   21.5410 N.ar  127  HIS127     -0.2212
     81  N          7.1880   14.6320   18.9680 N.3   129  ALA129     -0.1245
     82  CA         8.0680   14.0830   19.9980 C.3   129  ALA129      0.1562
     83  C          9.5060   13.9110   19.5160 C.2   129  ALA129      0.2260
     84  O          9.7790   13.0770   18.6630 O.2   129  ALA129     -0.2867
     85  CB         7.5330   12.7560   20.4900 C.3   129  ALA129      0.0290
     86  N         12.1370   13.8220   21.9890 N.3   131  ASP131     -0.1225
     87  CA        12.8780   13.6030   23.2090 C.3   131  ASP131      0.1805
     88  C         13.8650   12.4450   23.1130 C.2   131  ASP131      0.2597
     89  O         13.6310   11.4760   22.3880 O.2   131  ASP131     -0.2718
     90  CB        11.9030   13.3700   24.3630 C.3   131  ASP131      0.1424
     91  CG        10.9460   12.2320   24.0870 C.2   131  ASP131      0.3668
     92  OD1       10.0360   12.4130   23.2420 O.co2 131  ASP131     -0.2456
     93  OD2       11.1020   11.1570   24.7060 O.co2 131  ASP131     -0.2456
     94  N         14.9710   12.5710   23.8470 N.am  132  GLN132     -0.1979
     95  CA        15.9910   11.5240   23.9480 C.3   132  GLN132      0.1601
     96  C         16.6430   11.1710   22.6120 C.2   132  GLN132      0.2287
     97  O         16.7780   10.0000   22.2580 O.2   132  GLN132     -0.2864
     98  CB        15.4000   10.2660   24.5870 C.3   132  GLN132      0.0394
     99  CG        14.6250   10.5510   25.8570 C.3   132  GLN132      0.0908
    100  CD        14.2650    9.2980   26.6120 C.2   132  GLN132      0.2608
    101  OE1       15.1340    8.6330   27.1740 O.2   132  GLN132     -0.2717
    102  NE2       12.9790    8.9690   26.6340 N.am  132  GLN132     -0.0878
    103  N          7.5790   17.4260   22.7630 N.3   153  TYR153     -0.1241
    104  CA         8.5040   16.7110   23.6260 C.3   153  TYR153      0.1605
    105  C          9.9350   17.0010   23.2480 C.2   153  TYR153      0.2264
    106  O         10.4020   16.5460   22.1990 O.2   153  TYR153     -0.2867
    107  CB         8.2610   15.2130   23.5560 C.3   153  TYR153      0.0534
    108  CG         6.8960   14.8140   24.0210 C.ar  153  TYR153     -0.0201
    109  CD1        5.8050   14.9190   23.1760 C.ar  153  TYR153     -0.0009
    110  CD2        6.6910   14.3460   25.3170 C.ar  153  TYR153     -0.0009
    111  CE1        4.5580   14.5570   23.5910 C.ar  153  TYR153      0.0417
    112  CE2        5.4410   13.9780   25.7400 C.ar  153  TYR153      0.0417
    113  CZ         4.3800   14.0880   24.8760 C.ar  153  TYR153      0.1957
    114  OH         3.1230   13.7290   25.2670 O.3   153  TYR153     -0.2866
    115  N         12.6370   16.9880   25.9200 N.3   155  PHE155     -0.1241
    116  CA        13.5570   16.6340   26.9990 C.3   155  PHE155      0.1605
    117  C         14.5700   15.5660   26.5780 C.2   155  PHE155      0.2264
    118  O         14.4000   14.8980   25.5600 O.2   155  PHE155     -0.2867
    119  CB        12.7720   16.1640   28.2420 C.3   155  PHE155      0.0534
    120  CG        12.0060   14.8860   28.0350 C.ar  155  PHE155     -0.0203
    121  CD1       10.6590   14.9110   27.7200 C.ar  155  PHE155     -0.0042
    122  CD2       12.6370   13.6550   28.1500 C.ar  155  PHE155     -0.0042
    123  CE1        9.9560   13.7420   27.5300 C.ar  155  PHE155     -0.0003
    124  CE2       11.9440   12.4830   27.9510 C.ar  155  PHE155     -0.0003
    125  CZ        10.6010   12.5270   27.6480 C.ar  155  PHE155     -0.0000
    126  N          7.5700   13.4260   29.9740 N.3   183  TRP183     -0.1241
    127  CA         6.8440   12.1640   30.0260 C.3   183  TRP183      0.1605
    128  C          6.9740   11.4400   31.3800 C.2   183  TRP183      0.2264
    129  O          8.0030   10.8310   31.6700 O.2   183  TRP183     -0.2867
    130  CB         7.3190   11.2440   28.8810 C.3   183  TRP183      0.0550
    131  CG         6.4870   10.0020   28.7020 C.ar  183  TRP183      0.0003
    132  CD1        6.8040    8.7300   29.1110 C.ar  183  TRP183      0.0946
    133  CD2        5.2020    9.9070   28.0620 C.ar  183  TRP183      0.0152
    134  NE1        5.8010    7.8610   28.7630 N.ar  183  TRP183     -0.2442
    135  CE2        4.8060    8.5540   28.1210 C.ar  183  TRP183      0.0810
    136  CE3        4.3610   10.8280   27.4300 C.ar  183  TRP183      0.0012
    137  CZ2        3.5950    8.1020   27.5880 C.ar  183  TRP183      0.0191
    138  CZ3        3.1540   10.3800   26.9080 C.ar  183  TRP183      0.0001
    139  CH2        2.7850    9.0250   26.9900 C.ar  183  TRP183      0.0015
@<TRIPOS>BOND
     1    11    12    1
     2    14    13    2
     3    13    12    1
     4    33    34    1
     5    12    15    1
     6    36    35    2
     7    35    34    1
     8    34    37    1
     9    18    20   ar
    10    18    16   ar
    11    15    16    1
    12    20    21   ar
    13    16    17   ar
    14     1     2    1
    15    51    50    2
    16    23    24    1
    17    48    49    1
    18    37    38    1
    19    21    22    1
    20    21    19   ar
    21    17    19   ar
    22    74    73    2
    23    50    49    1
    24     2     5    1
    25     2     3    1
    26    24    25    1
    27    49    52    1
    28    26    25    2
    29    38    39   ar
    30    38    40   ar
    31     5     6    1
    32    25    27   am
    33    71    72    1
    34    55    57   ar
    35    55    53   ar
    36     3     4    2
    37    73    72    1
    38     7     6   ar
    39     7     9   ar
    40    52    53    1
    41    29    30    2
    42    29    28    1
    43    57    58   ar
    44    44    43    2
    45    27    28    1
    46     6     8   ar
    47    53    54   ar
    48    43    42    1
    49    84    83    2
    50    72    75    1
    51     9    10   ar
    52    81    82    1
    53    28    31    1
    54    41    42    1
    55    59    60    1
    56    75    76    1
    57    58    56   ar
    58    62    61    2
    59    83    82    1
    60    77    76   ar
    61    77    79   ar
    62    54    56   ar
    63    42    45    1
    64     8    10   ar
    65    82    85    1
    66    76    78   ar
    67    68    67    2
    68    67    66    1
    69    31    32    1
    70    61    60    1
    71    61    65   am
    72    60    63    1
    73    79    80   ar
    74    45    47    1
    75    45    46    1
    76    65    66    1
    77    78    80   ar
    78    66    69    1
    79    63    64    1
    80    86    87    1
    81   106   105    2
    82    64    70    1
    83    97    96    2
    84    69    70    1
    85    89    88    2
    86    96    95    1
    87   103   104    1
    88    88    87    1
    89    88    94   am
    90   109   111   ar
    91   109   108   ar
    92    87    90    1
    93    92    91   ar
    94   105   104    1
    95   107   104    1
    96   107   108    1
    97   111   113   ar
    98    94    95    1
    99    95    98    1
   100   108   110   ar
   101    91    90    1
   102    91    93   ar
   103    98    99    1
   104   113   114    1
   105   113   112   ar
   106   110   112   ar
   107   118   117    2
   108    99   100    1
   109   115   116    1
   110   117   116    1
   111   100   102   am
   112   100   101    2
   113   138   139   ar
   114   138   136   ar
   115   139   137   ar
   116   116   119    1
   117   136   133   ar
   118   123   125   ar
   119   123   121   ar
   120   137   135   ar
   121   125   124   ar
   122   121   120   ar
   123   124   122   ar
   124   120   122   ar
   125   120   119    1
   126   133   135   ar
   127   133   131   ar
   128   135   134   ar
   129   131   130    1
   130   131   132   ar
   131   134   132   ar
   132   130   127    1
   133   126   127    1
   134   127   128    1
   135   128   129    2
