@<TRIPOS>MOLECULE
tmp/5ufgA04.pdb
 123 115 0 0 0
SMALL
GASTEIGER

@<TRIPOS>ATOM
      1  N         36.2890  -24.8970   -7.5340 N.3    73  ILE73      -0.1245
      2  CA        37.5890  -24.1590   -7.5720 C.3    73  ILE73       0.1561
      3  C         38.1300  -24.4060   -6.1990 C.2    73  ILE73       0.2260
      4  O         37.5270  -23.9700   -5.2100 O.2    73  ILE73      -0.2867
      5  CB        37.3940  -22.6370   -7.8200 C.3    73  ILE73       0.0252
      6  CG1       36.9230  -22.4810   -9.2690 C.3    73  ILE73       0.0019
      7  CG2       38.7580  -21.9100   -7.5960 C.3    73  ILE73       0.0019
      8  CD1       36.5720  -20.9770   -9.6340 C.3    73  ILE73       0.0001
      9  N         38.5360  -21.7650   -3.2740 N.3    76  VAL76      -0.1245
     10  CA        37.3600  -21.1460   -2.6780 C.3    76  VAL76       0.1561
     11  C         36.2280  -22.1000   -2.2450 C.2    76  VAL76       0.2260
     12  O         35.3670  -21.7120   -1.5410 O.2    76  VAL76      -0.2867
     13  CB        36.7810  -19.9730   -3.5140 C.3    76  VAL76       0.0252
     14  CG1       37.8060  -18.8950   -3.7600 C.3    76  VAL76       0.0019
     15  CG2       36.2220  -20.4350   -4.7870 C.3    76  VAL76       0.0019
     16  N         32.6560  -21.3070   -0.0330 N.3    80  PHE80      -0.1241
     17  CA        31.3430  -21.2310   -0.6190 C.3    80  PHE80       0.1605
     18  C         30.5100  -22.4950   -0.4310 C.2    80  PHE80       0.2264
     19  O         29.3580  -22.4180   -0.2660 O.2    80  PHE80      -0.2867
     20  CB        31.3930  -20.8320   -2.0790 C.3    80  PHE80       0.0534
     21  CG        31.7810  -19.4230   -2.2890 C.ar   80  PHE80      -0.0203
     22  CD1       30.8620  -18.4380   -2.1980 C.ar   80  PHE80      -0.0042
     23  CD2       33.0740  -19.0820   -2.5840 C.ar   80  PHE80      -0.0042
     24  CE1       31.1980  -17.1580   -2.3710 C.ar   80  PHE80      -0.0003
     25  CE2       33.4080  -17.7760   -2.7700 C.ar   80  PHE80      -0.0003
     26  CZ        32.4620  -16.8240   -2.6640 C.ar   80  PHE80      -0.0000
     27  N         26.7170  -18.6890   -8.1710 N.3    86  VAL86      -0.1231
     28  CA        27.9550  -19.0720   -8.8490 C.3    86  VAL86       0.1692
     29  C         28.3700  -20.5310   -8.6120 C.2    86  VAL86       0.2592
     30  O         28.7740  -21.2260   -9.5450 O.2    86  VAL86      -0.2718
     31  CB        29.1240  -18.1510   -8.4470 C.3    86  VAL86       0.0266
     32  CG1       30.4290  -18.6630   -9.0350 C.3    86  VAL86       0.0020
     33  CG2       28.8530  -16.7230   -8.8950 C.3    86  VAL86       0.0020
     34  N         28.2750  -20.9840   -7.3650 N.am   87  PHE87      -0.1976
     35  CA        28.7280  -22.2880   -6.9810 C.3    87  PHE87       0.1639
     36  C         27.6770  -23.3270   -6.7520 C.2    87  PHE87       0.2290
     37  O         27.9840  -24.4940   -6.4680 O.2    87  PHE87      -0.2864
     38  CB        29.6960  -22.1960   -5.8310 C.3    87  PHE87       0.0560
     39  CG        31.0010  -21.5030   -6.2550 C.ar   87  PHE87      -0.0200
     40  CD1       31.8630  -22.1110   -7.2370 C.ar   87  PHE87      -0.0042
     41  CD2       31.3050  -20.2590   -5.7200 C.ar   87  PHE87      -0.0042
     42  CE1       33.0810  -21.3940   -7.6550 C.ar   87  PHE87      -0.0003
     43  CE2       32.4450  -19.5510   -6.1600 C.ar   87  PHE87      -0.0003
     44  CZ        33.3170  -20.1300   -7.1150 C.ar   87  PHE87      -0.0000
     45  N         41.4560  -12.4000   -5.4020 N.3   178  PHE178     -0.1241
     46  CA        41.5050  -12.8370   -6.8150 C.3   178  PHE178      0.1605
     47  C         42.9850  -13.1620   -7.2050 C.2   178  PHE178      0.2264
     48  O         43.2470  -14.1330   -7.9420 O.2   178  PHE178     -0.2867
     49  CB        40.9620  -11.7310   -7.7110 C.3   178  PHE178      0.0534
     50  CG        40.6600  -12.1350   -9.1370 C.ar  178  PHE178     -0.0203
     51  CD1       40.7220  -11.1970  -10.1520 C.ar  178  PHE178     -0.0042
     52  CD2       40.1090  -13.3930   -9.4390 C.ar  178  PHE178     -0.0042
     53  CE1       40.3540  -11.5550  -11.5330 C.ar  178  PHE178     -0.0003
     54  CE2       39.7600  -13.7460  -10.8120 C.ar  178  PHE178     -0.0003
     55  CZ        39.8280  -12.8540  -11.8230 C.ar  178  PHE178     -0.0000
     56  N         43.9250  -16.5760   -5.5170 N.3   181  ILE181     -0.1245
     57  CA        43.3090  -17.7400   -6.1610 C.3   181  ILE181      0.1561
     58  C         44.0210  -18.0720   -7.4930 C.2   181  ILE181      0.2260
     59  O         44.1720  -19.2410   -7.8170 O.2   181  ILE181     -0.2867
     60  CB        41.8260  -17.4120   -6.4240 C.3   181  ILE181      0.0252
     61  CG1       41.1420  -17.2920   -5.0250 C.3   181  ILE181      0.0019
     62  CG2       41.2280  -18.3580   -7.4690 C.3   181  ILE181      0.0019
     63  CD1       39.6810  -16.6260   -5.2860 C.3   181  ILE181      0.0001
     64  N         28.9600  -13.6660   -3.7540 N.3   266  SER266     -0.1217
     65  CA        29.2620  -14.1460   -5.1420 C.3   266  SER266      0.1889
     66  C         28.9340  -13.0610   -6.1680 C.2   266  SER266      0.2288
     67  O         29.7710  -12.8670   -7.0910 O.2   266  SER266     -0.2866
     68  CB        28.3960  -15.4090   -5.4880 C.3   266  SER266      0.2089
     69  OG        28.9560  -16.4880   -4.7650 O.3   266  SER266     -0.2183
     70  N         31.7000  -10.3620   -5.8440 N.3   269  PHE269     -0.1227
     71  CA        33.0080  -10.8190   -6.3030 C.3   269  PHE269      0.1736
     72  C         33.0670  -10.8820   -7.8250 C.2   269  PHE269      0.2595
     73  O         33.9980  -10.3680   -8.4460 O.2   269  PHE269     -0.2718
     74  CB        33.3350  -12.1900   -5.7070 C.3   269  PHE269      0.0547
     75  CG        34.8060  -12.4870   -5.6430 C.ar  269  PHE269     -0.0202
     76  CD1       35.7290  -11.6060   -6.1800 C.ar  269  PHE269     -0.0042
     77  CD2       35.2660  -13.6480   -5.0440 C.ar  269  PHE269     -0.0042
     78  CE1       37.0830  -11.8760   -6.1220 C.ar  269  PHE269     -0.0003
     79  CE2       36.6190  -13.9240   -4.9830 C.ar  269  PHE269     -0.0003
     80  CZ        37.5280  -13.0370   -5.5230 C.ar  269  PHE269     -0.0000
     81  N         32.0630  -11.5180   -8.4170 N.am  270  ALA270     -0.1980
     82  CA        31.9760  -11.6640   -9.8500 C.3   270  ALA270      0.1597
     83  C         31.7250  -10.3820  -10.6030 C.2   270  ALA270      0.2287
     84  O         32.0130  -10.3170  -11.7650 O.2   270  ALA270     -0.2864
     85  CB        30.9150  -12.6520  -10.2020 C.3   270  ALA270      0.0319
     86  N         35.3970   -7.8560   -9.3990 N.3   273  GLU273     -0.1231
     87  CA        36.7660   -8.2420   -9.7520 C.3   273  GLU273      0.1699
     88  C         36.9850   -8.4710  -11.2460 C.2   273  GLU273      0.2592
     89  O         38.1100   -8.4110  -11.7400 O.2   273  GLU273     -0.2718
     90  CB        37.1850   -9.4890   -8.9690 C.3   273  GLU273      0.0402
     91  CG        37.8690   -9.1900   -7.6450 C.3   273  GLU273      0.1161
     92  CD        38.6680   -7.9020   -7.6810 C.2   273  GLU273      0.3649
     93  OE1       38.2520   -6.9240   -7.0250 O.co2 273  GLU273     -0.2457
     94  OE2       39.7130   -7.8680   -8.3650 O.co2 273  GLU273     -0.2457
     95  N         35.8950   -8.7360  -11.9520 N.am  274  THR274     -0.1953
     96  CA        35.9170   -9.0360  -13.3570 C.3   274  THR274      0.1897
     97  C         36.0360   -7.7410  -14.1460 C.2   274  THR274      0.2313
     98  O         36.9660   -7.5130  -14.8300 O.2   274  THR274     -0.2863
     99  CB        34.6470   -9.7850  -13.8170 C.3   274  THR274      0.1794
    100  OG1       33.4780   -9.1020  -13.4350 O.3   274  THR274     -0.2208
    101  CG2       34.5960  -11.1310  -13.2550 C.3   274  THR274      0.0378
    102  N         39.2540  -14.8890  -17.8320 N.3   335  LEU335     -0.1245
    103  CA        39.1100  -16.2110  -17.2780 C.3   335  LEU335      0.1561
    104  C         39.4700  -17.2050  -18.3830 C.2   335  LEU335      0.2260
    105  O         38.6520  -17.6740  -19.0690 O.2   335  LEU335     -0.2867
    106  CB        37.6750  -16.4330  -16.8190 C.3   335  LEU335      0.0270
    107  CG        37.1690  -15.4910  -15.7320 C.3   335  LEU335      0.0019
    108  CD1       35.7420  -15.6830  -15.3740 C.3   335  LEU335      0.0001
    109  CD2       38.0570  -15.5070  -14.5420 C.3   335  LEU335      0.0001
    110  N         35.0100  -21.0410  -15.9630 N.3   339  VAL339     -0.1245
    111  CA        34.7950  -21.4470  -14.5500 C.3   339  VAL339      0.1561
    112  C         34.4190  -22.9280  -14.7300 C.2   339  VAL339      0.2260
    113  O         33.7400  -23.2140  -15.6940 O.2   339  VAL339     -0.2867
    114  CB        33.5710  -20.6570  -13.9420 C.3   339  VAL339      0.0252
    115  CG1       33.2670  -21.1280  -12.4700 C.3   339  VAL339      0.0019
    116  CG2       33.9900  -19.1400  -13.9690 C.3   339  VAL339      0.0019
    117  N         43.1340  -19.1490  -12.6890 N.3   449  VAL449     -0.1245
    118  CA        41.7100  -18.9300  -12.9000 C.3   449  VAL449      0.1561
    119  C         41.5030  -17.5580  -13.5450 C.2   449  VAL449      0.2260
    120  O         40.7670  -17.4270  -14.5230 O.2   449  VAL449     -0.2867
    121  CB        40.9240  -18.9960  -11.5790 C.3   449  VAL449      0.0252
    122  CG1       39.4810  -18.5670  -11.7990 C.3   449  VAL449      0.0019
    123  CG2       40.9880  -20.3980  -10.9930 C.3   449  VAL449      0.0019
@<TRIPOS>BOND
     1   105   104    2
     2   104   103    1
     3   102   103    1
     4   103   106    1
     5   106   107    1
     6   110   111    1
     7   107   108    1
     8   107   109    1
     9   113   112    2
    10    98    97    2
    11   112   111    1
    12   111   114    1
    13   120   119    2
    14    97    96    1
    15   116   114    1
    16   114   115    1
    17    99   100    1
    18    99    96    1
    19    99   101    1
    20   119   118    1
    21    96    95    1
    22   118   117    1
    23   118   121    1
    24    95    88   am
    25    55    53   ar
    26    55    54   ar
    27   122   121    1
    28    84    83    2
    29    89    88    2
    30   121   123    1
    31    53    51   ar
    32    88    87    1
    33    54    52   ar
    34    83    82    1
    35    85    82    1
    36    51    50   ar
    37    82    81    1
    38    87    86    1
    39    87    90    1
    40     8     6    1
    41    30    29    2
    42    52    50   ar
    43     6     5    1
    44    50    49    1
    45    32    31    1
    46    90    91    1
    47    33    31    1
    48    28    29    1
    49    28    31    1
    50    28    27    1
    51    29    34   am
    52    73    72    2
    53    81    72   am
    54    94    92   ar
    55    48    47    2
    56    72    71    1
    57     5     7    1
    58     5     2    1
    59    59    58    2
    60    49    46    1
    61    92    91    1
    62    92    93   ar
    63    42    40   ar
    64    42    44   ar
    65     2     1    1
    66     2     3    1
    67    58    57    1
    68    62    60    1
    69    34    35    1
    70    40    39   ar
    71    47    46    1
    72    44    43   ar
    73    67    66    2
    74    35    36    1
    75    35    38    1
    76    46    45    1
    77    36    37    2
    78    60    57    1
    79    60    61    1
    80    71    70    1
    81    71    74    1
    82    39    38    1
    83    39    41   ar
    84     3     4    2
    85    76    78   ar
    86    76    75   ar
    87    66    65    1
    88    57    56    1
    89    43    41   ar
    90    78    80   ar
    91    74    75    1
    92    75    77   ar
    93    80    79   ar
    94    68    65    1
    95    68    69    1
    96    63    61    1
    97    65    64    1
    98    77    79   ar
    99    15    13    1
   100    14    13    1
   101    13    10    1
   102     9    10    1
   103    25    26   ar
   104    25    23   ar
   105    10    11    1
   106    26    24   ar
   107    23    21   ar
   108    24    22   ar
   109    21    22   ar
   110    21    20    1
   111    11    12    2
   112    20    17    1
   113    17    18    1
   114    17    16    1
   115    18    19    2
