@<TRIPOS>MOLECULE
tmp/5ufiD01.pdb
 166 160 0 0 0
SMALL
GASTEIGER

@<TRIPOS>ATOM
      1  N        -16.8860   -1.4180   -6.7950 N.3    27  ILE27      -0.1245
      2  CA       -15.6090   -1.8170   -6.1740 C.3    27  ILE27       0.1561
      3  C        -15.5060   -1.1220   -4.8070 C.2    27  ILE27       0.2260
      4  O        -15.2540   -1.7910   -3.8000 O.2    27  ILE27      -0.2867
      5  CB       -14.3650   -1.5280   -7.0840 C.3    27  ILE27       0.0252
      6  CG1      -14.3590   -2.3860   -8.3870 C.3    27  ILE27       0.0019
      7  CG2      -13.0530   -1.7030   -6.3100 C.3    27  ILE27       0.0019
      8  CD1      -13.4450   -1.7660   -9.5890 C.3    27  ILE27       0.0001
      9  N        -17.9130   -2.5950   -2.2150 N.3    30  PHE30      -0.1227
     10  CA       -17.3650   -3.8850   -1.8080 C.3    30  PHE30       0.1736
     11  C        -16.2870   -3.6980   -0.7250 C.2    30  PHE30       0.2595
     12  O        -16.3750   -4.3390    0.3260 O.2    30  PHE30      -0.2718
     13  CB       -16.7950   -4.5990   -3.0360 C.3    30  PHE30       0.0547
     14  CG       -16.3130   -6.0140   -2.8430 C.ar   30  PHE30      -0.0202
     15  CD1      -17.2130   -7.0490   -2.6140 C.ar   30  PHE30      -0.0042
     16  CD2      -14.9710   -6.3320   -2.9950 C.ar   30  PHE30      -0.0042
     17  CE1      -16.7670   -8.3700   -2.4980 C.ar   30  PHE30      -0.0003
     18  CE2      -14.5290   -7.6550   -2.8880 C.ar   30  PHE30      -0.0003
     19  CZ       -15.4300   -8.6640   -2.6540 C.ar   30  PHE30      -0.0000
     20  N        -15.3120   -2.7810   -0.9550 N.am   31  CYS31      -0.1970
     21  CA       -14.2460   -2.4680    0.0100 C.3    31  CYS31       0.1712
     22  C        -14.8480   -1.8940    1.2950 C.2    31  CYS31       0.2296
     23  O        -14.4280   -2.2960    2.3770 O.2    31  CYS31      -0.2864
     24  CB       -13.2070   -1.5250   -0.5930 C.3    31  CYS31       0.0983
     25  SG       -12.3970   -2.1700   -2.0840 S.3    31  CYS31      -0.0798
     26  N         -9.4510    1.7090    0.5920 N.3    38  PRO38      -0.2102
     27  CA        -9.0510    1.3400   -0.7870 C.3    38  PRO38       0.1504
     28  C         -7.5340    1.3240   -1.0850 C.2    38  PRO38       0.2576
     29  O         -7.1550    0.7230   -2.0930 O.2    38  PRO38      -0.2718
     30  CB        -9.7390    2.4090   -1.6540 C.3    38  PRO38       0.0282
     31  CG       -10.0520    3.5260   -0.7210 C.3    38  PRO38       0.0208
     32  CD       -10.3850    2.8520    0.5760 C.3    38  PRO38       0.0893
     33  N         -6.6750    1.9610   -0.2510 N.am   39  ALA39      -0.1966
     34  CA        -5.2230    1.9760   -0.5090 C.3    39  ALA39       0.1728
     35  C         -4.4630    0.9240    0.3650 C.2    39  ALA39       0.2616
     36  O         -3.2260    0.9460    0.4830 O.2    39  ALA39      -0.2715
     37  CB        -4.6680    3.3770   -0.2770 C.3    39  ALA39       0.0334
     38  N         -5.2220   -0.0160    0.9250 N.am   40  SER40      -0.1950
     39  CA        -4.7220   -1.0740    1.7880 C.3    40  SER40       0.1924
     40  C         -4.2530   -2.2810    0.9880 C.2    40  SER40       0.2314
     41  O         -4.8950   -2.6620    0.0090 O.2    40  SER40      -0.2863
     42  CB        -5.8170   -1.5030    2.7650 C.3    40  SER40       0.2116
     43  OG        -5.3790   -2.5130    3.6570 O.3    40  SER40      -0.2180
     44  N         -7.0090   -4.9640    0.1300 N.3    43  VAL43      -0.1231
     45  CA        -7.7770   -4.8040   -1.1070 C.3    43  VAL43       0.1692
     46  C         -7.0460   -5.5320   -2.2570 C.2    43  VAL43       0.2591
     47  O         -7.6980   -6.1690   -3.0890 O.2    43  VAL43      -0.2718
     48  CB        -8.0180   -3.2940   -1.4300 C.3    43  VAL43       0.0266
     49  CG1       -8.6760   -3.1030   -2.7980 C.3    43  VAL43       0.0020
     50  CG2       -8.8430   -2.6120   -0.3340 C.3    43  VAL43       0.0020
     51  N         -5.7010   -5.4470   -2.2820 N.am   44  LEU44      -0.1980
     52  CA        -4.8560   -6.0940   -3.2870 C.3    44  LEU44       0.1596
     53  C         -4.7840   -7.6150   -3.0380 C.2    44  LEU44       0.2287
     54  O         -4.6880   -8.3840   -3.9990 O.2    44  LEU44      -0.2864
     55  CB        -3.4420   -5.4630   -3.3120 C.3    44  LEU44       0.0297
     56  CG        -2.4190   -6.0230   -4.3300 C.3    44  LEU44       0.0022
     57  CD1       -2.9700   -6.0630   -5.7690 C.3    44  LEU44       0.0001
     58  CD2       -1.1510   -5.2340   -4.2900 C.3    44  LEU44       0.0001
     59  N         -7.2560   -9.3380   -1.7920 N.3    46  ILE46      -0.1231
     60  CA        -8.5860   -9.7530   -2.2310 C.3    46  ILE46       0.1692
     61  C         -8.5650   -9.9150   -3.7490 C.2    46  ILE46       0.2591
     62  O         -9.0290  -10.9390   -4.2460 O.2    46  ILE46      -0.2718
     63  CB        -9.6820   -8.7600   -1.7240 C.3    46  ILE46       0.0266
     64  CG1      -10.2440   -9.2320   -0.3710 C.3    46  ILE46       0.0019
     65  CG2      -10.8360   -8.5700   -2.7240 C.3    46  ILE46       0.0020
     66  CD1       -9.7360   -8.5490    0.7370 C.3    46  ILE46       0.0001
     67  N         -7.9620   -8.9460   -4.4720 N.am   47  ALA47      -0.1980
     68  CA        -7.8420   -8.9710   -5.9280 C.3    47  ALA47       0.1597
     69  C         -7.1100  -10.2090   -6.3740 C.2    47  ALA47       0.2287
     70  O         -7.5220  -10.8550   -7.3330 O.2    47  ALA47      -0.2864
     71  CB        -7.1220   -7.7250   -6.4200 C.3    47  ALA47       0.0319
     72  N         -9.3260  -13.3090   -5.8640 N.3    50  PHE50      -0.1241
     73  CA       -10.3790  -13.2700   -6.8810 C.3    50  PHE50       0.1605
     74  C         -9.8030  -13.4340   -8.3150 C.2    50  PHE50       0.2264
     75  O        -10.5660  -13.4790   -9.2920 O.2    50  PHE50      -0.2867
     76  CB       -11.1790  -11.9660   -6.7680 C.3    50  PHE50       0.0534
     77  CG       -12.3610  -12.1050   -5.8470 C.ar   50  PHE50      -0.0203
     78  CD1      -12.1930  -12.0820   -4.4670 C.ar   50  PHE50      -0.0042
     79  CD2      -13.6380  -12.3040   -6.3560 C.ar   50  PHE50      -0.0042
     80  CE1      -13.2840  -12.2350   -3.6120 C.ar   50  PHE50      -0.0003
     81  CE2      -14.7300  -12.4660   -5.5020 C.ar   50  PHE50      -0.0003
     82  CZ       -14.5460  -12.4140   -4.1360 C.ar   50  PHE50      -0.0000
     83  N         -8.2890  -11.3360  -10.1150 N.3    52  ALA52      -0.1245
     84  CA        -8.6740  -10.1320  -10.8560 C.3    52  ALA52       0.1562
     85  C         -7.6660   -9.8230  -11.9570 C.2    52  ALA52       0.2260
     86  O         -6.4670   -9.7420  -11.6950 O.2    52  ALA52      -0.2867
     87  CB        -8.8040   -8.9540   -9.9050 C.3    52  ALA52       0.0290
     88  N         -6.5470   -3.8170  -12.5900 N.3    55  GLN55      -0.1231
     89  CA        -6.9780   -2.7930  -11.6360 C.3    55  GLN55       0.1698
     90  C         -8.0430   -1.8650  -12.2450 C.2    55  GLN55       0.2592
     91  O         -8.0460   -1.6210  -13.4510 O.2    55  GLN55      -0.2718
     92  CB        -5.7870   -1.9880  -11.1040 C.3    55  GLN55       0.0381
     93  CG        -4.9800   -1.2380  -12.1600 C.3    55  GLN55       0.0905
     94  CD        -4.2270   -0.0820  -11.5620 C.2    55  GLN55       0.2608
     95  OE1       -4.6310    0.4990  -10.5550 O.2    55  GLN55      -0.2717
     96  NE2       -3.1250    0.2970  -12.1870 N.am   55  GLN55      -0.0878
     97  N         -8.9650   -1.3830  -11.3840 N.am   56  CYS56      -0.1956
     98  CA       -10.1240   -0.5250  -11.6540 C.3    56  CYS56       0.1843
     99  C        -11.1760   -1.2780  -12.5170 C.2    56  CYS56       0.2625
    100  O        -12.0920   -0.6620  -13.0570 O.2    56  CYS56      -0.2714
    101  CB        -9.7140    0.8130  -12.2650 C.3    56  CYS56       0.0997
    102  SG        -8.3160    1.6210  -11.4210 S.3    56  CYS56      -0.0797
    103  N        -11.0790   -2.6280  -12.5580 N.am   57  GLU57      -0.1963
    104  CA       -11.9900   -3.5370  -13.2520 C.3    57  GLU57       0.1733
    105  C        -12.2620   -4.7600  -12.3880 C.2    57  GLU57       0.2616
    106  O        -11.3540   -5.2520  -11.7070 O.2    57  GLU57      -0.2715
    107  CB       -11.4250   -3.9560  -14.6130 C.3    57  GLU57       0.0429
    108  CG       -11.7280   -2.9630  -15.7180 C.3    57  GLU57       0.1163
    109  CD       -10.7230   -2.9910  -16.8510 C.2    57  GLU57       0.3649
    110  OE1      -10.7350   -3.9610  -17.6470 O.co2  57  GLU57      -0.2457
    111  OE2       -9.9120   -2.0410  -16.9360 O.co2  57  GLU57      -0.2457
    112  N        -13.5160   -5.2400  -12.4070 N.am   58  PHE58      -0.1974
    113  CA       -13.9960   -6.3990  -11.6530 C.3    58  PHE58       0.1639
    114  C        -15.2140   -6.9400  -12.4040 C.2    58  PHE58       0.2290
    115  O        -16.2310   -6.2480  -12.4630 O.2    58  PHE58      -0.2864
    116  CB       -14.3390   -5.9730  -10.1950 C.3    58  PHE58       0.0560
    117  CG       -14.5990   -7.0290   -9.1280 C.ar   58  PHE58      -0.0200
    118  CD1      -14.2220   -8.3580   -9.3240 C.ar   58  PHE58      -0.0042
    119  CD2      -15.1450   -6.6760   -7.8960 C.ar   58  PHE58      -0.0042
    120  CE1      -14.4290   -9.3170   -8.3240 C.ar   58  PHE58      -0.0003
    121  CE2      -15.3440   -7.6360   -6.8960 C.ar   58  PHE58      -0.0003
    122  CZ       -14.9870   -8.9480   -7.1180 C.ar   58  PHE58      -0.0000
    123  N         -1.8340   -7.3700  -12.7010 N.3   105  PHE105     -0.1241
    124  CA        -2.9820   -6.6140  -12.2250 C.3   105  PHE105      0.1605
    125  C         -2.7950   -5.0960  -12.4500 C.2   105  PHE105      0.2264
    126  O         -3.7370   -4.3970  -12.8570 O.2   105  PHE105     -0.2867
    127  CB        -3.1880   -6.9010  -10.7330 C.3   105  PHE105      0.0534
    128  CG        -4.3640   -6.2090  -10.0850 C.ar  105  PHE105     -0.0203
    129  CD1       -5.6660   -6.6360  -10.3270 C.ar  105  PHE105     -0.0042
    130  CD2       -4.1670   -5.1750   -9.1760 C.ar  105  PHE105     -0.0042
    131  CE1       -6.7600   -5.9970   -9.7130 C.ar  105  PHE105     -0.0003
    132  CE2       -5.2570   -4.5400   -8.5560 C.ar  105  PHE105     -0.0003
    133  CZ        -6.5460   -4.9580   -8.8270 C.ar  105  PHE105     -0.0000
    134  N          3.8480    3.5230  -11.7970 N.3   118  MET118     -0.1245
    135  CA         2.8510    2.5500  -11.3740 C.3   118  MET118      0.1570
    136  C          3.5430    1.3810  -10.6520 C.2   118  MET118      0.2261
    137  O          3.0090    0.8920   -9.6620 O.2   118  MET118     -0.2867
    138  CB         2.0480    2.0750  -12.5930 C.3   118  MET118      0.0387
    139  CG         0.7300    1.4100  -12.2340 C.3   118  MET118      0.0595
    140  SD        -0.3040    2.4190  -11.1550 S.3   118  MET118     -0.1393
    141  CE        -1.1470    3.4410  -12.3760 C.3   118  MET118      0.0692
    142  N          4.6580    2.7220   -7.1840 N.3   121  ALA121     -0.1231
    143  CA         3.4640    2.7810   -6.3250 C.3   121  ALA121      0.1694
    144  C          3.1460    1.4090   -5.7440 C.2   121  ALA121      0.2592
    145  O          2.9930    1.3050   -4.5300 O.2   121  ALA121     -0.2718
    146  CB         2.2580    3.3220   -7.0940 C.3   121  ALA121      0.0304
    147  N          3.0980    0.3530   -6.5890 N.am  122  TYR122     -0.1976
    148  CA         2.8030   -1.0030   -6.1170 C.3   122  TYR122      0.1639
    149  C          3.9680   -1.6090   -5.3090 C.2   122  TYR122      0.2290
    150  O          3.6910   -2.2870   -4.3140 O.2   122  TYR122     -0.2864
    151  CB         2.3600   -1.9230   -7.2680 C.3   122  TYR122      0.0560
    152  CG         0.8860   -1.7460   -7.5640 C.ar  122  TYR122     -0.0198
    153  CD1       -0.0820   -2.3520   -6.7660 C.ar  122  TYR122     -0.0009
    154  CD2        0.4540   -0.8910   -8.5810 C.ar  122  TYR122     -0.0009
    155  CE1       -1.4440   -2.1570   -7.0010 C.ar  122  TYR122      0.0417
    156  CE2       -0.9100   -0.6850   -8.8250 C.ar  122  TYR122      0.0417
    157  CZ        -1.8550   -1.3080   -8.0170 C.ar  122  TYR122      0.1957
    158  OH        -3.2050   -1.1550   -8.2370 O.3   122  TYR122     -0.2866
    159  N          4.0960   -0.5590   -1.7150 N.3   125  LEU125     -0.1245
    160  CA         3.0460   -1.2240   -0.9760 C.3   125  LEU125      0.1561
    161  C          3.4160   -2.6990   -0.7030 C.2   125  LEU125      0.2260
    162  O          3.4130   -3.1030    0.4630 O.2   125  LEU125     -0.2867
    163  CB         1.6970   -1.1100   -1.7380 C.3   125  LEU125      0.0270
    164  CG         0.4580   -1.7320   -1.0590 C.3   125  LEU125      0.0019
    165  CD1       -0.0690   -0.8550    0.1000 C.3   125  LEU125      0.0001
    166  CD2       -0.6300   -2.0760   -2.0740 C.3   125  LEU125      0.0001
@<TRIPOS>BOND
     1   110   109   ar
     2   111   109   ar
     3   109   108    1
     4   108   107    1
     5   107   104    1
     6    91    90    2
     7   104   103    1
     8   104   105    1
     9   100    99    2
    10   126   125    2
    11   123   124    1
    12   138   139    1
    13   138   135    1
    14    88    89    1
    15   103    99   am
    16    99    98    1
    17   115   114    2
    18   125   124    1
    19   112   105   am
    20   112   113    1
    21   114   113    1
    22   105   106    2
    23   141   140    1
    24   101    98    1
    25   101   102    1
    26    90    89    1
    27    90    97   am
    28   139   140    1
    29   124   127    1
    30    96    94   am
    31    93    94    1
    32    93    92    1
    33    85    86    2
    34    85    84    1
    35   134   135    1
    36    98    97    1
    37   113   116    1
    38    89    92    1
    39    94    95    2
    40   135   136    1
    41    84    83    1
    42    84    87    1
    43   127   128    1
    44   136   137    2
    45   129   128   ar
    46   129   131   ar
    47   116   117    1
    48   128   130   ar
    49   131   133   ar
    50     8     6    1
    51   118   117   ar
    52   118   120   ar
    53    75    74    2
    54   130   132   ar
    55   117   119   ar
    56   133   132   ar
    57   156   154   ar
    58   156   157   ar
    59   154   152   ar
    60     6     5    1
    61   120   122   ar
    62    74    73    1
    63   158   157    1
    64   157   155   ar
    65   119   121   ar
    66   152   151    1
    67   152   153   ar
    68    70    69    2
    69   151   148    1
    70   142   143    1
    71   122   121   ar
    72   146   143    1
    73     5     7    1
    74     5     2    1
    75   155   153   ar
    76    73    76    1
    77    73    72    1
    78     1     2    1
    79    76    77    1
    80   147   148    1
    81   147   144   am
    82    71    68    1
    83    69    68    1
    84    79    77   ar
    85    79    81   ar
    86   143   144    1
    87     2     3    1
    88   148   149    1
    89    68    67    1
    90    77    78   ar
    91    57    56    1
    92   144   145    2
    93    81    82   ar
    94   149   150    2
    95     3     4    2
    96    67    61   am
    97    78    80   ar
    98    56    58    1
    99    56    55    1
   100    62    61    2
   101    82    80   ar
   102    54    53    2
   103    61    60    1
   104    55    52    1
   105    52    53    1
   106    52    51    1
   107    47    46    2
   108    13    14    1
   109    13    10    1
   110    16    18   ar
   111    16    14   ar
   112    18    19   ar
   113    14    15   ar
   114    49    48    1
   115    65    63    1
   116    19    17   ar
   117    15    17   ar
   118    51    46   am
   119    46    45    1
   120    60    59    1
   121    60    63    1
   122     9    10    1
   123    29    28    2
   124    25    24    1
   125   166   164    1
   126    10    11    1
   127   163   164    1
   128   163   160    1
   129    63    64    1
   130   159   160    1
   131    30    27    1
   132    30    31    1
   133    48    45    1
   134    48    50    1
   135    45    44    1
   136    28    27    1
   137    28    33   am
   138   164   165    1
   139   160   161    1
   140    20    11   am
   141    20    21    1
   142    27    26    1
   143    11    12    2
   144    31    32    1
   145   161   162    2
   146    24    21    1
   147    34    37    1
   148    34    33    1
   149    34    35    1
   150    64    66    1
   151    41    40    2
   152    21    22    1
   153    35    36    2
   154    35    38   am
   155    32    26    1
   156    38    39    1
   157    40    39    1
   158    22    23    2
   159    39    42    1
   160    42    43    1
