@<TRIPOS>MOLECULE
tmp/5ufiA00.pdb
 166 160 0 0 0
SMALL
GASTEIGER

@<TRIPOS>ATOM
      1  N         10.1410    5.2380   57.9670 N.3    27  ILE27      -0.1245
      2  CA         8.9730    5.4740   57.1110 C.3    27  ILE27       0.1561
      3  C          7.8130    4.6660   57.7130 C.2    27  ILE27       0.2260
      4  O          6.7020    5.1820   57.8310 O.2    27  ILE27      -0.2867
      5  CB         9.2540    5.1430   55.5960 C.3    27  ILE27       0.0252
      6  CG1       10.1620    6.2320   54.9360 C.3    27  ILE27       0.0019
      7  CG2        7.9580    4.9910   54.7930 C.3    27  ILE27       0.0019
      8  CD1       10.8680    5.8560   53.6050 C.3    27  ILE27       0.0001
      9  N          6.7160    6.3830   61.1210 N.3    30  PHE30      -0.1227
     10  CA         5.9590    7.5790   60.8000 C.3    30  PHE30       0.1736
     11  C          4.4900    7.2320   60.4300 C.2    30  PHE30       0.2595
     12  O          3.5880    7.9450   60.8640 O.2    30  PHE30      -0.2718
     13  CB         6.6820    8.2980   59.6570 C.3    30  PHE30       0.0547
     14  CG         6.2200    9.6840   59.2710 C.ar   30  PHE30      -0.0202
     15  CD1        6.4190   10.7640   60.1210 C.ar   30  PHE30      -0.0042
     16  CD2        5.6840    9.9280   58.0100 C.ar   30  PHE30      -0.0042
     17  CE1        6.0300   12.0480   59.7420 C.ar   30  PHE30      -0.0003
     18  CE2        5.2990   11.2160   57.6310 C.ar   30  PHE30      -0.0003
     19  CZ         5.4870   12.2650   58.4940 C.ar   30  PHE30      -0.0000
     20  N          4.2570    6.1220   59.6750 N.am   31  CYS31      -0.1970
     21  CA         2.9210    5.6440   59.2880 C.3    31  CYS31       0.1712
     22  C          2.1760    5.1510   60.5170 C.2    31  CYS31       0.2296
     23  O          1.0140    5.4950   60.6980 O.2    31  CYS31      -0.2864
     24  CB         3.0110    4.5550   58.2260 C.3    31  CYS31       0.0983
     25  SG         3.6680    5.1290   56.6460 S.3    31  CYS31      -0.0798
     26  N          0.6910    1.1760   55.7220 N.3    38  PRO38      -0.2102
     27  CA         1.6030    1.6830   54.6640 C.3    38  PRO38       0.1504
     28  C          1.1020    1.5320   53.2100 C.2    38  PRO38       0.2576
     29  O          1.7430    2.0760   52.3060 O.2    38  PRO38      -0.2718
     30  CB         2.8870    0.8690   54.8810 C.3    38  PRO38       0.0282
     31  CG         2.7930    0.3510   56.3110 C.3    38  PRO38       0.0208
     32  CD         1.3290    0.1100   56.5300 C.3    38  PRO38       0.0893
     33  N         -0.0090    0.7920   52.9670 N.am   39  ALA39      -0.1966
     34  CA        -0.5580    0.5840   51.6160 C.3    39  ALA39       0.1728
     35  C         -1.8340    1.4350   51.3760 C.2    39  ALA39       0.2616
     36  O         -2.5010    1.2960   50.3440 O.2    39  ALA39      -0.2715
     37  CB        -0.8420   -0.8970   51.3770 C.3    39  ALA39       0.0334
     38  N         -2.1260    2.3370   52.3260 N.am   40  SER40      -0.1950
     39  CA        -3.2200    3.3060   52.2940 C.3    40  SER40       0.1924
     40  C         -2.9090    4.4310   51.3110 C.2    40  SER40       0.2314
     41  O         -1.7480    4.8440   51.1990 O.2    40  SER40      -0.2863
     42  CB        -3.4340    3.8950   53.6900 C.3    40  SER40       0.2116
     43  OG        -4.3580    4.9700   53.6760 O.3    40  SER40      -0.2180
     44  N         -0.9930    7.4980   52.7910 N.3    43  VAL43      -0.1231
     45  CA         0.4870    7.5000   52.8100 C.3    43  VAL43       0.1692
     46  C          0.9850    8.1760   51.5090 C.2    43  VAL43       0.2591
     47  O          1.9390    8.9390   51.5520 O.2    43  VAL43      -0.2718
     48  CB         1.0800    6.0630   53.0010 C.3    43  VAL43       0.0266
     49  CG1        2.6070    6.0640   52.9510 C.3    43  VAL43       0.0020
     50  CG2        0.6020    5.4270   54.3010 C.3    43  VAL43       0.0020
     51  N          0.3190    7.9070   50.3660 N.am   44  LEU44      -0.1980
     52  CA         0.6580    8.4910   49.0580 C.3    44  LEU44       0.1596
     53  C          0.3000    9.9870   49.0380 C.2    44  LEU44       0.2287
     54  O          1.0310   10.7980   48.4610 O.2    44  LEU44      -0.2864
     55  CB        -0.0520    7.7240   47.9120 C.3    44  LEU44       0.0297
     56  CG         0.2850    8.1230   46.4620 C.3    44  LEU44       0.0022
     57  CD1        1.7700    8.1080   46.2050 C.3    44  LEU44       0.0001
     58  CD2       -0.3760    7.2030   45.4870 C.3    44  LEU44       0.0001
     59  N          0.2910   11.9030   51.7660 N.3    46  ILE46      -0.1231
     60  CA         1.3150   12.5630   52.5730 C.3    46  ILE46       0.1692
     61  C          2.5990   12.7590   51.7240 C.2    46  ILE46       0.2591
     62  O          3.1450   13.8660   51.7190 O.2    46  ILE46      -0.2718
     63  CB         1.5550   11.8500   53.9260 C.3    46  ILE46       0.0266
     64  CG1        0.4180   12.2480   54.8920 C.3    46  ILE46       0.0019
     65  CG2        2.9180   12.2290   54.5530 C.3    46  ILE46       0.0020
     66  CD1        0.0480   11.2510   55.8540 C.3    46  ILE46       0.0001
     67  N          3.0160   11.7380   50.9520 N.am   47  ALA47      -0.1980
     68  CA         4.1740   11.8120   50.0470 C.3    47  ALA47       0.1597
     69  C          4.0090   12.9490   49.0580 C.2    47  ALA47       0.2287
     70  O          4.9780   13.6390   48.7290 O.2    47  ALA47      -0.2864
     71  CB         4.3530   10.4940   49.3060 C.3    47  ALA47       0.0319
     72  N          4.3380   16.3290   51.0620 N.3    50  PHE50      -0.1241
     73  CA         5.7550   16.5050   51.3740 C.3    50  PHE50       0.1605
     74  C          6.6000   16.5760   50.0830 C.2    50  PHE50       0.2264
     75  O          7.8020   16.8270   50.1690 O.2    50  PHE50      -0.2867
     76  CB         6.2430   15.3650   52.2840 C.3    50  PHE50       0.0534
     77  CG         5.9320   15.5360   53.7550 C.ar   50  PHE50      -0.0203
     78  CD1        4.6240   15.4600   54.2230 C.ar   50  PHE50      -0.0042
     79  CD2        6.9470   15.7480   54.6770 C.ar   50  PHE50      -0.0042
     80  CE1        4.3390   15.6050   55.5870 C.ar   50  PHE50      -0.0003
     81  CE2        6.6590   15.8870   56.0400 C.ar   50  PHE50      -0.0003
     82  CZ         5.3600   15.7930   56.4860 C.ar   50  PHE50      -0.0000
     83  N          7.7350   14.2260   48.0280 N.3    52  ALA52      -0.1245
     84  CA         8.8310   13.2520   48.0810 C.3    52  ALA52       0.1562
     85  C          9.2780   12.8830   46.6580 C.2    52  ALA52       0.2260
     86  O          8.4290   12.6830   45.7770 O.2    52  ALA52      -0.2867
     87  CB         8.3940   12.0080   48.8510 C.3    52  ALA52       0.0290
     88  N          9.6100    6.7960   45.8320 N.3    55  GLN55      -0.1231
     89  CA         9.1290    5.8140   46.7800 C.3    55  GLN55       0.1698
     90  C         10.2780    5.0790   47.4640 C.2    55  GLN55       0.2592
     91  O         11.3490    4.8690   46.8830 O.2    55  GLN55      -0.2718
     92  CB         8.1670    4.8180   46.1010 C.3    55  GLN55       0.0381
     93  CG         8.7840    4.0280   44.9450 C.3    55  GLN55       0.0905
     94  CD         8.0140    2.7790   44.6350 C.2    55  GLN55       0.2608
     95  OE1        7.7550    2.4550   43.4680 O.2    55  GLN55      -0.2717
     96  NE2        7.6610    2.0300   45.6680 N.am   55  GLN55      -0.0878
     97  N         10.0220    4.7050   48.7280 N.am   56  CYS56      -0.1956
     98  CA        10.8910    3.9930   49.6510 C.3    56  CYS56       0.1843
     99  C         12.0820    4.8940   50.0240 C.2    56  CYS56       0.2625
    100  O         13.0670    4.4300   50.5960 O.2    56  CYS56      -0.2714
    101  CB        11.3180    2.6380   49.0740 C.3    56  CYS56       0.0997
    102  SG         9.9380    1.6380   48.4120 S.3    56  CYS56      -0.0797
    103  N         11.9230    6.2120   49.7880 N.am   57  GLU57      -0.1963
    104  CA        12.9070    7.2500   50.0680 C.3    57  GLU57       0.1733
    105  C         12.2430    8.5060   50.6250 C.2    57  GLU57       0.2616
    106  O         11.1820    8.9170   50.1440 O.2    57  GLU57      -0.2715
    107  CB        13.7110    7.5760   48.8060 C.3    57  GLU57       0.0429
    108  CG        14.8960    6.6410   48.6220 C.3    57  GLU57       0.1163
    109  CD        15.7540    6.9310   47.4060 C.2    57  GLU57       0.3649
    110  OE1       16.9960    6.9890   47.5600 O.co2  57  GLU57      -0.2457
    111  OE2       15.1880    7.1090   46.3020 O.co2  57  GLU57      -0.2457
    112  N         12.8940    9.1180   51.6420 N.am   58  PHE58      -0.1974
    113  CA        12.4360   10.3040   52.3770 C.3    58  PHE58       0.1639
    114  C         13.6540   10.9710   53.0150 C.2    58  PHE58       0.2290
    115  O         14.2840   10.3660   53.8830 O.2    58  PHE58      -0.2864
    116  CB        11.4110    9.8420   53.4430 C.3    58  PHE58       0.0560
    117  CG        10.4950   10.8350   54.1240 C.ar   58  PHE58      -0.0200
    118  CD1       10.2800   12.1030   53.5830 C.ar   58  PHE58      -0.0042
    119  CD2        9.7940   10.4810   55.2750 C.ar   58  PHE58      -0.0042
    120  CE1        9.4250   13.0150   54.2120 C.ar   58  PHE58      -0.0003
    121  CE2        8.9290   11.3950   55.9000 C.ar   58  PHE58      -0.0003
    122  CZ         8.7470   12.6530   55.3590 C.ar   58  PHE58      -0.0000
    123  N          6.9150    9.7440   41.3950 N.3   105  PHE105     -0.1241
    124  CA         7.2250    9.1960   42.7070 C.3   105  PHE105      0.1605
    125  C          7.4850    7.6790   42.6150 C.2   105  PHE105      0.2264
    126  O          8.3730    7.1620   43.2900 O.2   105  PHE105     -0.2867
    127  CB         6.0550    9.5050   43.6520 C.3   105  PHE105      0.0534
    128  CG         6.0860    8.8540   45.0170 C.ar  105  PHE105     -0.0203
    129  CD1        6.8730    9.3780   46.0390 C.ar  105  PHE105     -0.0042
    130  CD2        5.2800    7.7530   45.2990 C.ar  105  PHE105     -0.0042
    131  CE1        6.8870    8.7870   47.3080 C.ar  105  PHE105     -0.0003
    132  CE2        5.2880    7.1640   46.5750 C.ar  105  PHE105     -0.0003
    133  CZ         6.0760    7.6930   47.5740 C.ar  105  PHE105     -0.0000
    134  N          4.2540   -1.9740   38.0110 N.3   118  MET118     -0.1245
    135  CA         4.3870   -0.9320   39.0160 C.3   118  MET118      0.1570
    136  C          3.3010    0.1320   38.7890 C.2   118  MET118      0.2261
    137  O          2.7380    0.6600   39.7610 O.2   118  MET118     -0.2867
    138  CB         5.7910   -0.3140   38.9920 C.3   118  MET118      0.0387
    139  CG         6.0680    0.6240   40.1750 C.3   118  MET118      0.0595
    140  SD         6.0060   -0.2170   41.7750 S.3   118  MET118     -0.1393
    141  CE         7.5640   -1.1950   41.6890 C.3   118  MET118      0.0692
    142  N         -0.1410   -1.3170   39.8810 N.3   121  ALA121     -0.1231
    143  CA        -0.2760   -1.2470   41.3290 C.3   121  ALA121      0.1694
    144  C         -0.8140    0.1080   41.7720 C.2   121  ALA121      0.2592
    145  O         -1.7860    0.1630   42.5270 O.2   121  ALA121     -0.2718
    146  CB         1.0690   -1.5100   41.9900 C.3   121  ALA121      0.0304
    147  N         -0.1940    1.1900   41.2780 N.am  122  TYR122     -0.1976
    148  CA        -0.5470    2.5610   41.6050 C.3   122  TYR122      0.1639
    149  C         -1.8660    2.9770   40.9470 C.2   122  TYR122      0.2290
    150  O         -2.6340    3.7210   41.5700 O.2   122  TYR122     -0.2864
    151  CB         0.5950    3.5170   41.2400 C.3   122  TYR122      0.0560
    152  CG         1.6550    3.5710   42.3170 C.ar  122  TYR122     -0.0198
    153  CD1        1.4500    4.2930   43.4920 C.ar  122  TYR122     -0.0009
    154  CD2        2.8470    2.8680   42.1850 C.ar  122  TYR122     -0.0009
    155  CE1        2.4160    4.3320   44.4940 C.ar  122  TYR122      0.0417
    156  CE2        3.8170    2.8930   43.1840 C.ar  122  TYR122      0.0417
    157  CZ         3.5990    3.6290   44.3350 C.ar  122  TYR122      0.1957
    158  OH         4.5670    3.6720   45.3050 O.3   122  TYR122     -0.2866
    159  N         -4.6850    1.7530   43.0600 N.3   125  LEU125     -0.1245
    160  CA        -4.8030    2.5840   44.2430 C.3   125  LEU125      0.1561
    161  C         -5.4210    3.9540   43.9420 C.2   125  LEU125      0.2260
    162  O         -6.3990    4.3120   44.6000 O.2   125  LEU125     -0.2867
    163  CB        -3.4140    2.7810   44.9060 C.3   125  LEU125      0.0270
    164  CG        -3.4010    3.5790   46.2240 C.3   125  LEU125      0.0019
    165  CD1       -4.1150    2.8020   47.3840 C.3   125  LEU125      0.0001
    166  CD2       -2.0120    3.9840   46.5890 C.3   125  LEU125      0.0001
@<TRIPOS>BOND
     1   134   135    1
     2   136   135    1
     3   136   137    2
     4   138   135    1
     5   138   139    1
     6   142   143    1
     7   139   140    1
     8   149   150    2
     9   149   148    1
    10   151   148    1
    11   151   152    1
    12   147   148    1
    13   147   144   am
    14   143   144    1
    15   143   146    1
    16   123   124    1
    17   141   140    1
    18   144   145    2
    19   154   152   ar
    20   154   156   ar
    21   152   153   ar
    22   125   124    1
    23   125   126    2
    24   124   127    1
    25   159   160    1
    26   156   157   ar
    27    95    94    2
    28   153   155   ar
    29   127   128    1
    30   161   160    1
    31   161   162    2
    32   160   163    1
    33   157   155   ar
    34   157   158    1
    35    94    93    1
    36    94    96   am
    37   163   164    1
    38    93    92    1
    39   128   130   ar
    40   128   129   ar
    41   130   132   ar
    42    58    56    1
    43    86    85    2
    44    88    89    1
    45   129   131   ar
    46    92    89    1
    47    57    56    1
    48   164   166    1
    49   164   165    1
    50   111   109   ar
    51    56    55    1
    52   132   133   ar
    53    85    84    1
    54    89    90    1
    55    91    90    2
    56   131   133   ar
    57   109   110   ar
    58   109   108    1
    59    90    97   am
    60    55    52    1
    61    83    84    1
    62    84    87    1
    63   102   101    1
    64    54    53    2
    65   108   107    1
    66    97    98    1
    67    70    69    2
    68   107   104    1
    69    53    52    1
    70    69    68    1
    71    52    51    1
    72   101    98    1
    73    71    68    1
    74    98    99    1
    75   103    99   am
    76   103   104    1
    77    99   100    2
    78    68    67    1
    79   104   105    1
    80    74    75    2
    81    74    73    1
    82   106   105    2
    83    36    35    2
    84    51    46   am
    85   105   112   am
    86    67    61   am
    87    72    73    1
    88    41    40    2
    89    40    39    1
    90    73    76    1
    91    35    34    1
    92    35    38   am
    93    37    34    1
    94    46    47    2
    95    46    45    1
    96    34    33    1
    97   112   113    1
    98    62    61    2
    99    61    60    1
   100    59    60    1
   101    76    77    1
   102    39    38    1
   103    39    42    1
   104    29    28    2
   105   113   114    1
   106   113   116    1
   107    60    63    1
   108    44    45    1
   109    45    48    1
   110    49    48    1
   111    33    28   am
   112    48    50    1
   113   114   115    2
   114    28    27    1
   115   116   117    1
   116   118   117   ar
   117   118   120   ar
   118     8     6    1
   119    43    42    1
   120    77    78   ar
   121    77    79   ar
   122    63    65    1
   123    63    64    1
   124   117   119   ar
   125   120   122   ar
   126    78    80   ar
   127    27    30    1
   128    27    26    1
   129    79    81   ar
   130     7     5    1
   131    30    31    1
   132    64    66    1
   133     6     5    1
   134   119   121   ar
   135   122   121   ar
   136    80    82   ar
   137     5     2    1
   138    26    32    1
   139    81    82   ar
   140    31    32    1
   141    25    24    1
   142     2     3    1
   143     2     1    1
   144    18    16   ar
   145    18    19   ar
   146     3     4    2
   147    16    14   ar
   148    24    21    1
   149    19    17   ar
   150    14    13    1
   151    14    15   ar
   152    21    20    1
   153    21    22    1
   154    13    10    1
   155    20    11   am
   156    17    15   ar
   157    11    10    1
   158    11    12    2
   159    22    23    2
   160    10     9    1
