@<TRIPOS>MOLECULE
tmp/5ufjC02.pdb
 87 82 0 0 0
SMALL
GASTEIGER

@<TRIPOS>ATOM
      1  N        -24.0720  -16.2460   22.1740 N.3     1  VAL1       -0.1231
      2  CA       -24.9330  -17.4140   22.2030 C.3     1  VAL1        0.1692
      3  C        -24.2500  -18.5660   22.9090 C.2     1  VAL1        0.2591
      4  O        -23.1950  -18.9980   22.5250 O.2     1  VAL1       -0.2718
      5  CB       -25.3520  -17.8720   20.8060 C.3     1  VAL1        0.0266
      6  CG1      -26.1850  -19.1220   20.9190 C.3     1  VAL1        0.0020
      7  CG2      -26.1680  -16.8110   20.1230 C.3     1  VAL1        0.0020
      8  N        -24.8870  -19.0630   23.9430 N.am    2  LEU2       -0.1980
      9  CA       -24.3200  -20.1340   24.7200 C.3     2  LEU2        0.1596
     10  C        -24.5880  -21.5260   24.1780 C.2     2  LEU2        0.2287
     11  O        -25.6950  -21.8700   23.8530 O.2     2  LEU2       -0.2864
     12  CB       -24.8550  -20.0680   26.1380 C.3     2  LEU2        0.0297
     13  CG       -24.6150  -18.8570   27.0220 C.3     2  LEU2        0.0022
     14  CD1      -25.7460  -18.7130   27.9950 C.3     2  LEU2        0.0001
     15  CD2      -23.3430  -19.0290   27.7900 C.3     2  LEU2        0.0001
     16  N        -31.6680  -19.5440   32.0200 N.3    73  VAL73      -0.1231
     17  CA       -30.6820  -19.1990   30.9970 C.3    73  VAL73       0.1692
     18  C        -31.2290  -19.3070   29.5670 C.2    73  VAL73       0.2592
     19  O        -30.7020  -18.6520   28.6610 O.2    73  VAL73      -0.2718
     20  CB       -29.4430  -20.0920   31.1900 C.3    73  VAL73       0.0266
     21  CG1      -29.7530  -21.5530   30.7550 C.3    73  VAL73       0.0020
     22  CG2      -28.2620  -19.5200   30.4520 C.3    73  VAL73       0.0020
     23  N        -32.2620  -20.1300   29.3400 N.am   74  ASP74      -0.1974
     24  CA       -32.8650  -20.2660   28.0200 C.3    74  ASP74       0.1709
     25  C        -33.8560  -19.1580   27.6880 C.2    74  ASP74       0.2293
     26  O        -34.1320  -18.9440   26.5080 O.2    74  ASP74      -0.2864
     27  CB       -33.5810  -21.6150   27.8880 C.3    74  ASP74       0.1436
     28  CG       -32.6220  -22.7920   27.8770 C.2    74  ASP74       0.3671
     29  OD1      -31.4510  -22.6040   27.4910 O.co2  74  ASP74      -0.2456
     30  OD2      -33.0380  -23.9120   28.2440 O.co2  74  ASP74      -0.2456
     31  N        -33.6970  -15.7410   29.1950 N.3    76  MET76      -0.1231
     32  CA       -33.2030  -14.6130   29.9900 C.3    76  MET76       0.1687
     33  C        -33.8990  -13.2930   29.6980 C.2    76  MET76       0.2434
     34  O        -34.1720  -12.5470   30.6540 O.2    76  MET76      -0.2733
     35  CB       -31.7030  -14.4510   29.7530 C.3    76  MET76       0.0400
     36  CG       -30.8000  -15.0690   30.8250 C.3    76  MET76       0.0596
     37  SD       -29.0770  -14.7040   30.4280 S.3    76  MET76      -0.1393
     38  CE       -28.6560  -16.1100   29.3970 C.3    76  MET76       0.0692
     39  N        -34.1710  -12.9200   28.4400 N.am   77  PRO77      -0.2729
     40  CA       -34.8240  -11.6270   28.1940 C.3    77  PRO77       0.1401
     41  C        -36.1350  -11.4800   28.9450 C.2    77  PRO77       0.2269
     42  O        -36.4120  -10.4090   29.4980 O.2    77  PRO77      -0.2865
     43  CB       -35.0220  -11.6250   26.6750 C.3    77  PRO77       0.0296
     44  CG       -33.9760  -12.5240   26.1740 C.3    77  PRO77       0.0237
     45  CD       -33.8200  -13.6090   27.1930 C.3    77  PRO77       0.0939
     46  N        -17.5660  -16.1560   30.8720 N.3   126  ASP126     -0.1225
     47  CA       -17.4170  -14.8810   30.1760 C.3   126  ASP126      0.1805
     48  C        -18.5700  -14.6560   29.2100 C.2   126  ASP126      0.2597
     49  O        -19.1040  -13.5460   29.1340 O.2   126  ASP126     -0.2718
     50  CB       -16.0770  -14.8170   29.4470 C.3   126  ASP126      0.1424
     51  CG       -15.9040  -13.5260   28.6480 C.2   126  ASP126      0.3668
     52  OD1      -15.3960  -12.5350   29.2070 O.co2 126  ASP126     -0.2456
     53  OD2      -16.2760  -13.5070   27.4560 O.co2 126  ASP126     -0.2456
     54  N        -18.9880  -15.7100   28.4910 N.am  127  LYS127     -0.1979
     55  CA       -20.0940  -15.5690   27.5460 C.3   127  LYS127      0.1596
     56  C        -21.4110  -15.3230   28.2610 C.2   127  LYS127      0.2287
     57  O        -22.2470  -14.5580   27.7650 O.2   127  LYS127     -0.2864
     58  CB       -20.2100  -16.8240   26.6820 C.3   127  LYS127      0.0298
     59  CG       -19.0660  -17.0140   25.7370 C.3   127  LYS127      0.0038
     60  CD       -19.1530  -18.3540   25.0340 C.3   127  LYS127      0.0206
     61  CE       -20.1880  -18.3110   23.9170 C.3   127  LYS127      0.1093
     62  NZ       -20.4710  -19.6520   23.3670 N.3   127  LYS127     -0.1314
     63  N        -21.4670  -11.7120   29.4410 N.3   130  ALA130     -0.1231
     64  CA       -21.7100  -10.9170   28.2280 C.3   130  ALA130      0.1694
     65  C        -23.1820  -10.9990   27.8020 C.2   130  ALA130      0.2592
     66  O        -23.7830  -10.0030   27.3820 O.2   130  ALA130     -0.2718
     67  CB       -20.8010  -11.4120   27.0940 C.3   130  ALA130      0.0304
     68  N        -23.7860  -12.1830   27.8880 N.am  131  SER131     -0.1952
     69  CA       -25.1810  -12.3000   27.4890 C.3   131  SER131      0.1924
     70  C        -26.0940  -11.5510   28.4520 C.2   131  SER131      0.2314
     71  O        -27.0560  -10.8920   28.0120 O.2   131  SER131     -0.2863
     72  CB       -25.5840  -13.7670   27.3920 C.3   131  SER131      0.2116
     73  OG       -24.8570  -14.4010   26.3480 O.3   131  SER131     -0.2180
     74  N        -25.7480   -7.7950   27.6270 N.3   134  THR134     -0.1203
     75  CA       -26.5390   -7.3930   26.4500 C.3   134  THR134      0.1994
     76  C        -28.0130   -7.2350   26.7920 C.2   134  THR134      0.2617
     77  O        -28.6570   -6.2380   26.4300 O.2   134  THR134     -0.2717
     78  CB       -26.3490   -8.4330   25.3320 C.3   134  THR134      0.1784
     79  OG1      -24.9730   -8.4620   24.9620 O.3   134  THR134     -0.2211
     80  CG2      -27.1870   -8.0840   24.0890 C.3   134  THR134      0.0376
     81  N        -28.5890   -8.2140   27.4730 N.am  135  VAL135     -0.1979
     82  CA       -30.0080   -8.0920   27.8370 C.3   135  VAL135      0.1595
     83  C        -30.2500   -6.8280   28.6790 C.2   135  VAL135      0.2287
     84  O        -31.1890   -6.0560   28.4310 O.2   135  VAL135     -0.2864
     85  CB       -30.4750   -9.3630   28.5760 C.3   135  VAL135      0.0276
     86  CG1      -31.8420   -9.1380   29.2010 C.3   135  VAL135      0.0022
     87  CG2      -30.5240  -10.5560   27.6160 C.3   135  VAL135      0.0022
@<TRIPOS>BOND
     1     7     5    1
     2     5     6    1
     3     5     2    1
     4     1     2    1
     5     2     3    1
     6     4     3    2
     7     3     8   am
     8    62    61    1
     9    11    10    2
    10    61    60    1
    11     8     9    1
    12    80    78    1
    13    10     9    1
    14     9    12    1
    15    79    78    1
    16    60    59    1
    17    78    75    1
    18    59    58    1
    19    12    13    1
    20    44    43    1
    21    44    45    1
    22    73    72    1
    23    77    76    2
    24    75    76    1
    25    75    74    1
    26    26    25    2
    27    43    40    1
    28    58    55    1
    29    76    81   am
    30    13    15    1
    31    13    14    1
    32    67    64    1
    33    45    39    1
    34    66    65    2
    35    72    69    1
    36    53    51   ar
    37    81    82    1
    38    69    68    1
    39    69    70    1
    40    29    28   ar
    41    55    56    1
    42    55    54    1
    43    87    85    1
    44    25    24    1
    45    57    56    2
    46    65    68   am
    47    65    64    1
    48    82    85    1
    49    82    83    1
    50    28    27    1
    51    28    30   ar
    52    27    24    1
    53    71    70    2
    54    24    23    1
    55    40    39    1
    56    40    41    1
    57    64    63    1
    58    84    83    2
    59    39    33   am
    60    54    48   am
    61    85    86    1
    62    51    52   ar
    63    51    50    1
    64    19    18    2
    65    41    42    2
    66    49    48    2
    67    31    32    1
    68    48    47    1
    69    23    18   am
    70    38    37    1
    71    50    47    1
    72    18    17    1
    73    33    32    1
    74    33    34    2
    75    35    32    1
    76    35    36    1
    77    47    46    1
    78    37    36    1
    79    22    20    1
    80    21    20    1
    81    17    20    1
    82    17    16    1
