@<TRIPOS>MOLECULE
tmp/5ufmB01.pdb
 154 150 0 0 0
SMALL
GASTEIGER

@<TRIPOS>ATOM
      1  N         15.1710   71.1270   13.4110 N.3     4  ILE4       -0.1231
      2  CA        15.7630   70.6660   14.6610 C.3     4  ILE4        0.1692
      3  C         14.9820   69.5000   15.2620 C.2     4  ILE4        0.2592
      4  O         15.5180   68.7860   16.1260 O.2     4  ILE4       -0.2718
      5  CB        15.8530   71.8350   15.6630 C.3     4  ILE4        0.0266
      6  CG1       16.7720   71.4870   16.8420 C.3     4  ILE4        0.0019
      7  CG2       14.4590   72.2250   16.1320 C.3     4  ILE4        0.0020
      8  CD1       18.2010   71.1540   16.4240 C.3     4  ILE4        0.0001
      9  N         13.7380   69.2970   14.8500 N.am    5  ASP5       -0.1974
     10  CA        12.9320   68.1910   15.3420 C.3     5  ASP5        0.1709
     11  C         11.8700   67.8940   14.2910 C.2     5  ASP5        0.2293
     12  O         11.9050   68.4350   13.1780 O.2     5  ASP5       -0.2864
     13  CB        12.3510   68.5050   16.7310 C.3     5  ASP5        0.1436
     14  CG        11.4650   69.7520   16.7460 C.2     5  ASP5        0.3671
     15  OD1       10.8890   70.1170   15.6990 O.co2   5  ASP5       -0.2456
     16  OD2       11.3380   70.3740   17.8260 O.co2   5  ASP5       -0.2456
     17  N          6.2820   77.0560   25.3640 N.3    31  PHE31      -0.1241
     18  CA         6.2450   75.6760   25.8440 C.3    31  PHE31       0.1605
     19  C          4.8500   75.3060   26.3350 C.2    31  PHE31       0.2264
     20  O          4.3950   74.1780   26.1160 O.2    31  PHE31      -0.2867
     21  CB         7.2980   75.4530   26.9360 C.3    31  PHE31       0.0534
     22  CG         8.6570   75.0800   26.3920 C.ar   31  PHE31      -0.0203
     23  CD1        8.8400   73.8760   25.7120 C.ar   31  PHE31      -0.0042
     24  CD2        9.7450   75.9190   26.5560 C.ar   31  PHE31      -0.0042
     25  CE1       10.0800   73.5220   25.2010 C.ar   31  PHE31      -0.0003
     26  CE2       10.9950   75.5650   26.0580 C.ar   31  PHE31      -0.0003
     27  CZ        11.1580   74.3640   25.3680 C.ar   31  PHE31      -0.0000
     28  N          7.2790   67.0400   20.6130 N.3    41  VAL41      -0.1231
     29  CA         7.7880   65.8590   19.9210 C.3    41  VAL41       0.1692
     30  C          8.9590   65.2270   20.6620 C.2    41  VAL41       0.2592
     31  O          9.2600   64.0440   20.4600 O.2    41  VAL41      -0.2718
     32  CB         8.1900   66.2170   18.4660 C.3    41  VAL41       0.0266
     33  CG1        6.9560   66.6090   17.6260 C.3    41  VAL41       0.0020
     34  CG2        9.2230   67.3360   18.4620 C.3    41  VAL41       0.0020
     35  N          9.6300   65.9870   21.5270 N.am   42  TRP42      -0.1976
     36  CA        10.7660   65.4430   22.2550 C.3    42  TRP42       0.1640
     37  C         10.3390   64.3790   23.2540 C.2    42  TRP42       0.2290
     38  O         11.1230   63.4790   23.5740 O.2    42  TRP42      -0.2864
     39  CB        11.5000   66.5570   22.9890 C.3    42  TRP42       0.0576
     40  CG        10.5960   67.4720   23.7570 C.ar   42  TRP42       0.0006
     41  CD1       10.2100   67.3500   25.0730 C.ar   42  TRP42       0.0946
     42  CD2        9.9730   68.6620   23.2630 C.ar   42  TRP42       0.0152
     43  NE1        9.3820   68.4000   25.4180 N.ar   42  TRP42      -0.2442
     44  CE2        9.2210   69.2160   24.3230 C.ar   42  TRP42       0.0810
     45  CE3        9.9770   69.3160   22.0240 C.ar   42  TRP42       0.0012
     46  CZ2        8.4840   70.3950   24.1800 C.ar   42  TRP42       0.0191
     47  CZ3        9.2390   70.4910   21.8820 C.ar   42  TRP42       0.0001
     48  CH2        8.4990   71.0110   22.9530 C.ar   42  TRP42       0.0015
     49  N         10.5050   60.9800   21.7300 N.3    45  GLU45      -0.1245
     50  CA        11.6600   60.7000   20.8790 C.3    45  GLU45       0.1567
     51  C         12.5370   59.6540   21.5560 C.2    45  GLU45       0.2260
     52  O         12.9020   59.8150   22.7210 O.2    45  GLU45      -0.2867
     53  CB        12.4580   61.9820   20.6310 C.3    45  GLU45       0.0388
     54  CG        13.6840   61.8030   19.7330 C.3    45  GLU45       0.1160
     55  CD        14.5150   63.0690   19.6100 C.2    45  GLU45       0.3649
     56  OE1       14.3740   63.9510   20.4790 O.co2  45  GLU45      -0.2457
     57  OE2       15.3140   63.1840   18.6460 O.co2  45  GLU45      -0.2457
     58  N         15.8590   60.5880   23.3440 N.3    48  MET48      -0.1245
     59  CA        15.8880   61.3100   24.6140 C.3    48  MET48       0.1570
     60  C         16.1490   60.4140   25.8170 C.2    48  MET48       0.2261
     61  O         16.4030   60.9330   26.9180 O.2    48  MET48      -0.2867
     62  CB        14.5640   62.0480   24.8200 C.3    48  MET48       0.0387
     63  CG        14.3820   63.2410   23.9010 C.3    48  MET48       0.0595
     64  SD        15.5360   64.5870   24.2480 S.3    48  MET48      -0.1393
     65  CE        14.8150   65.2760   25.7480 C.3    48  MET48       0.0692
     66  N         17.8670   67.5860   30.6530 N.3   130  ASN130     -0.1225
     67  CA        17.6500   66.8950   29.3820 C.3   130  ASN130      0.1785
     68  C         16.9470   67.8590   28.4330 C.2   130  ASN130      0.2597
     69  O         15.7270   67.8370   28.2550 O.2   130  ASN130     -0.2718
     70  CB        16.8730   65.5980   29.5990 C.3   130  ASN130      0.1169
     71  CG        17.0150   64.6390   28.4300 C.2   130  ASN130      0.2627
     72  OD1       17.6760   64.9580   27.4430 O.2   130  ASN130     -0.2716
     73  ND2       16.4000   63.4600   28.5360 N.am  130  ASN130     -0.0877
     74  N         17.7500   68.7290   27.8200 N.am  131  GLY131     -0.1957
     75  CA        17.2540   69.6120   26.7770 C.3   131  GLY131      0.1869
     76  C         16.6070   70.8920   27.2620 C.2   131  GLY131      0.2309
     77  O         15.7610   71.4590   26.5500 O.2   131  GLY131     -0.2863
     78  N         19.6970   74.5150   26.7980 N.3   134  HIS134     -0.1226
     79  CA        19.9750   75.0610   25.4660 C.3   134  HIS134      0.1752
     80  C         18.8400   75.9250   24.9180 C.2   134  HIS134      0.2596
     81  O         18.9740   76.4530   23.8090 O.2   134  HIS134     -0.2718
     82  CB        20.3480   73.9440   24.4700 C.3   134  HIS134      0.0759
     83  CG        19.3140   72.8680   24.2890 C.ar  134  HIS134      0.0818
     84  ND1       19.6090   71.6650   23.6800 N.ar  134  HIS134     -0.2268
     85  CD2       17.9990   72.8110   24.6090 C.ar  134  HIS134      0.1154
     86  CE1       18.5260   70.9060   23.6470 C.ar  134  HIS134      0.1986
     87  NE2       17.5340   71.5780   24.2040 N.ar  134  HIS134     -0.2212
     88  N         17.7600   76.1290   25.6690 N.am  135  HIS135     -0.1975
     89  CA        16.7200   77.0860   25.3060 C.3   135  HIS135      0.1656
     90  C         16.7930   78.3800   26.1090 C.2   135  HIS135      0.2291
     91  O         15.9690   79.2740   25.8890 O.2   135  HIS135     -0.2864
     92  CB        15.3310   76.4810   25.5160 C.3   135  HIS135      0.0771
     93  CG        15.0320   75.3160   24.6350 C.ar  135  HIS135      0.0820
     94  ND1       15.0430   75.4040   23.2590 N.ar  135  HIS135     -0.2267
     95  CD2       14.6610   74.0490   24.9330 C.ar  135  HIS135      0.1154
     96  CE1       14.7240   74.2290   22.7470 C.ar  135  HIS135      0.1986
     97  NE2       14.4820   73.3920   23.7390 N.ar  135  HIS135     -0.2212
     98  N         21.5330   70.0720   22.0060 N.3   163  PHE163     -0.1241
     99  CA        21.6720   69.8870   20.5660 C.3   163  PHE163      0.1605
    100  C         23.1390   69.9470   20.1750 C.2   163  PHE163      0.2264
    101  O         23.8390   70.9050   20.5190 O.2   163  PHE163     -0.2867
    102  CB        20.9250   70.9830   19.8150 C.3   163  PHE163      0.0534
    103  CG        19.4650   71.0830   20.1470 C.ar  163  PHE163     -0.0203
    104  CD1       18.6130   70.0160   19.9170 C.ar  163  PHE163     -0.0042
    105  CD2       18.9340   72.2700   20.6420 C.ar  163  PHE163     -0.0042
    106  CE1       17.2570   70.1120   20.1950 C.ar  163  PHE163     -0.0003
    107  CE2       17.5760   72.3790   20.9260 C.ar  163  PHE163     -0.0003
    108  CZ        16.7360   71.2930   20.7100 C.ar  163  PHE163     -0.0000
    109  N         11.4150   81.2260   20.3750 N.3   178  ARG178     -0.1245
    110  CA        12.1450   80.3700   21.3060 C.3   178  ARG178      0.1563
    111  C         13.5710   80.1570   20.8120 C.2   178  ARG178      0.2260
    112  O         13.7970   79.9060   19.6270 O.2   178  ARG178     -0.2867
    113  CB        11.4470   79.0100   21.4560 C.3   178  ARG178      0.0307
    114  CG        12.1990   78.0030   22.3550 C.3   178  ARG178      0.0489
    115  CD        11.7030   76.5550   22.1800 C.3   178  ARG178      0.2205
    116  NE        10.2560   76.4520   22.3470 N.pl3 178  ARG178     -0.0865
    117  CZ         9.5340   75.3620   22.1030 C.cat 178  ARG178      0.5346
    118  NH1       10.1110   74.2450   21.6730 N.pl3 178  ARG178      0.1354
    119  NH2        8.2220   75.3950   22.2900 N.pl3 178  ARG178      0.1354
    120  N         17.3130   78.3000   20.5060 N.3   180  TYR180     -0.1241
    121  CA        17.9260   76.9750   20.4110 C.3   180  TYR180      0.1605
    122  C         19.4190   77.1850   20.2070 C.2   180  TYR180      0.2264
    123  O         19.8270   77.6960   19.1570 O.2   180  TYR180     -0.2867
    124  CB        17.3780   76.1640   19.2330 C.3   180  TYR180      0.0534
    125  CG        15.8940   75.8850   19.1710 C.ar  180  TYR180     -0.0201
    126  CD1       15.4310   74.5740   19.1660 C.ar  180  TYR180     -0.0009
    127  CD2       14.9680   76.9120   19.0520 C.ar  180  TYR180     -0.0009
    128  CE1       14.0840   74.2920   19.0740 C.ar  180  TYR180      0.0417
    129  CE2       13.6100   76.6400   18.9620 C.ar  180  TYR180      0.0417
    130  CZ        13.1800   75.3250   18.9720 C.ar  180  TYR180      0.1957
    131  OH        11.8450   75.0400   18.8710 O.3   180  TYR180     -0.2866
    132  N         20.1460   60.8110   16.8140 N.3   207  ARG207     -0.1245
    133  CA        18.7190   61.1050   16.6860 C.3   207  ARG207      0.1563
    134  C         18.2860   60.6450   15.3020 C.2   207  ARG207      0.2260
    135  O         18.2730   61.4450   14.3510 O.2   207  ARG207     -0.2867
    136  CB        18.4350   62.5990   16.8770 C.3   207  ARG207      0.0307
    137  CG        18.9640   63.1920   18.1960 C.3   207  ARG207      0.0489
    138  CD        18.7130   64.6960   18.2120 C.3   207  ARG207      0.2205
    139  NE        17.2850   64.9640   18.0750 N.pl3 207  ARG207     -0.0865
    140  CZ        16.7650   66.1260   17.6900 C.cat 207  ARG207      0.5346
    141  NH1       17.5540   67.1600   17.3990 N.pl3 207  ARG207      0.1354
    142  NH2       15.4480   66.2480   17.6010 N.pl3 207  ARG207      0.1354
    143  N         22.2880   64.3850   19.8620 N.3   214  TYR214     -0.1241
    144  CA        22.4150   65.0660   21.1430 C.3   214  TYR214      0.1605
    145  C         23.8330   64.8760   21.6570 C.2   214  TYR214      0.2264
    146  O         24.4560   63.8330   21.4460 O.2   214  TYR214     -0.2867
    147  CB        21.4350   64.5360   22.2000 C.3   214  TYR214      0.0534
    148  CG        20.0080   64.8660   21.8860 C.ar  214  TYR214     -0.0201
    149  CD1       19.6170   66.1880   21.6870 C.ar  214  TYR214     -0.0009
    150  CD2       19.0560   63.8680   21.7690 C.ar  214  TYR214     -0.0009
    151  CE1       18.3050   66.5050   21.3830 C.ar  214  TYR214      0.0417
    152  CE2       17.7330   64.1730   21.4620 C.ar  214  TYR214      0.0417
    153  CZ        17.3680   65.4930   21.2660 C.ar  214  TYR214      0.1957
    154  OH        16.0600   65.8020   20.9520 O.3   214  TYR214     -0.2866
@<TRIPOS>BOND
     1    12    11    2
     2     1     2    1
     3    11    10    1
     4   135   134    2
     5     2     3    1
     6     2     5    1
     7     9     3   am
     8     9    10    1
     9     3     4    2
    10   134   133    1
    11    10    13    1
    12     5     7    1
    13     5     6    1
    14    15    14   ar
    15     8     6    1
    16   133   132    1
    17   133   136    1
    18    13    14    1
    19    14    16   ar
    20   136   137    1
    21   141   140    1
    22   142   140    1
    23    33    32    1
    24   140   139    2
    25   139   138    1
    26   137   138    1
    27    34    32    1
    28    32    29    1
    29    57    55   ar
    30   131   130    1
    31   129   130   ar
    32   129   127   ar
    33   130   128   ar
    34   127   125   ar
    35   128   126   ar
    36   123   122    2
    37   126   125   ar
    38   125   124    1
    39   124   121    1
    40    55    54    1
    41    55    56   ar
    42   112   111    2
    43    54    53    1
    44   102   103    1
    45   102    99    1
    46   143   144    1
    47   104   103   ar
    48   104   106   ar
    49    29    28    1
    50    29    30    1
    51   103   105   ar
    52   100   101    2
    53   100    99    1
    54   106   108   ar
    55   122   121    1
    56   109   110    1
    57   121   120    1
    58    31    30    2
    59    99    98    1
    60    53    50    1
    61   105   107   ar
    62    30    35   am
    63   108   107   ar
    64   111   110    1
    65    50    51    1
    66    50    49    1
    67   154   153    1
    68   144   145    1
    69   144   147    1
    70   153   151   ar
    71   153   152   ar
    72   110   113    1
    73   151   149   ar
    74   146   145    2
    75   113   114    1
    76   152   150   ar
    77    35    36    1
    78    51    52    2
    79   118   117    1
    80   149   148   ar
    81   150   148   ar
    82    47    45   ar
    83    47    48   ar
    84   148   147    1
    85    45    42   ar
    86   117   119    1
    87   117   116    2
    88   115   116    1
    89   115   114    1
    90    36    39    1
    91    36    37    1
    92    96    94   ar
    93    96    97   ar
    94    48    46   ar
    95    39    40    1
    96    37    38    2
    97    94    93   ar
    98    42    40   ar
    99    42    44   ar
   100    58    59    1
   101    86    84   ar
   102    86    87   ar
   103    84    83   ar
   104    97    95   ar
   105    40    41   ar
   106    81    80    2
   107    63    64    1
   108    63    62    1
   109    46    44   ar
   110    87    85   ar
   111    64    65    1
   112    83    82    1
   113    83    85   ar
   114    44    43   ar
   115    82    79    1
   116    59    62    1
   117    59    60    1
   118    93    95   ar
   119    93    92    1
   120    80    79    1
   121    80    88   am
   122    41    43   ar
   123    25    27   ar
   124    25    23   ar
   125    89    92    1
   126    89    88    1
   127    89    90    1
   128    17    18    1
   129    27    26   ar
   130    79    78    1
   131    23    22   ar
   132    60    61    2
   133    18    19    1
   134    18    21    1
   135    91    90    2
   136    26    24   ar
   137    20    19    2
   138    22    24   ar
   139    22    21    1
   140    77    76    2
   141    75    76    1
   142    75    74    1
   143    72    71    2
   144    74    68   am
   145    69    68    2
   146    71    73   am
   147    71    70    1
   148    68    67    1
   149    67    70    1
   150    67    66    1
