@<TRIPOS>MOLECULE
tmp/5ufnA00.pdb
 209 203 0 0 0
SMALL
GASTEIGER

@<TRIPOS>ATOM
      1  N         18.9460   27.1830   18.5820 N.3    29  LEU29      -0.1245
      2  CA        19.2290   28.5970   18.7730 C.3    29  LEU29       0.1561
      3  C         19.5760   29.2800   17.4510 C.2    29  LEU29       0.2260
      4  O         18.9940   30.3180   17.1030 O.2    29  LEU29      -0.2867
      5  CB        20.3860   28.6870   19.7620 C.3    29  LEU29       0.0270
      6  CG        20.8910   30.0130   20.2880 C.3    29  LEU29       0.0019
      7  CD1       19.7950   30.7260   21.0680 C.3    29  LEU29       0.0001
      8  CD2       22.0680   29.7060   21.1840 C.3    29  LEU29       0.0001
      9  N         17.2010   32.1530   15.3210 N.3    33  PHE33      -0.1241
     10  CA        17.7280   33.4830   15.0460 C.3    33  PHE33       0.1605
     11  C         17.9120   33.7310   13.5530 C.2    33  PHE33       0.2264
     12  O         17.5870   34.8190   13.0690 O.2    33  PHE33      -0.2867
     13  CB        18.9900   33.7530   15.8570 C.3    33  PHE33       0.0534
     14  CG        18.6950   34.2150   17.2520 C.ar   33  PHE33      -0.0203
     15  CD1       18.0800   35.4370   17.4430 C.ar   33  PHE33      -0.0042
     16  CD2       18.9880   33.4250   18.3580 C.ar   33  PHE33      -0.0042
     17  CE1       17.7770   35.8940   18.7100 C.ar   33  PHE33      -0.0003
     18  CE2       18.6930   33.8780   19.6450 C.ar   33  PHE33      -0.0003
     19  CZ        18.0900   35.1140   19.8200 C.ar   33  PHE33      -0.0000
     20  N         15.9420   36.7780   11.7150 N.3    37  TYR37      -0.1241
     21  CA        16.5830   37.8740   10.9960 C.3    37  TYR37       0.1605
     22  C         16.1920   37.8740    9.5230 C.2    37  TYR37       0.2264
     23  O         15.9160   38.9380    8.9530 O.2    37  TYR37      -0.2867
     24  CB        18.1040   37.8310   11.1680 C.3    37  TYR37       0.0534
     25  CG        18.5680   38.3780   12.5080 C.ar   37  TYR37      -0.0201
     26  CD1       18.3900   39.7310   12.8300 C.ar   37  TYR37      -0.0009
     27  CD2       19.1620   37.5500   13.4640 C.ar   37  TYR37      -0.0009
     28  CE1       18.8060   40.2370   14.0430 C.ar   37  TYR37       0.0417
     29  CE2       19.5840   38.0530   14.6770 C.ar   37  TYR37       0.0417
     30  CZ        19.4020   39.3980   14.9600 C.ar   37  TYR37       0.1957
     31  OH        19.8040   39.9080   16.1750 O.3    37  TYR37      -0.2866
     32  N         13.4640   43.1030   18.3790 N.3    44  TRP44      -0.1227
     33  CA        14.3520   43.7560   19.3300 C.3    44  TRP44       0.1737
     34  C         15.2010   44.8370   18.6770 C.2    44  TRP44       0.2596
     35  O         15.5870   45.8030   19.3390 O.2    44  TRP44      -0.2718
     36  CB        15.2490   42.7080   19.9960 C.3    44  TRP44       0.0564
     37  CG        15.9460   41.7870   19.0130 C.ar   44  TRP44       0.0003
     38  CD1       17.1570   41.9910   18.4030 C.ar   44  TRP44       0.0946
     39  CD2       15.4670   40.5210   18.5390 C.ar   44  TRP44       0.0152
     40  NE1       17.4560   40.9310   17.5650 N.ar   44  TRP44      -0.2442
     41  CE2       16.4370   40.0150   17.6400 C.ar   44  TRP44       0.0810
     42  CE3       14.3060   39.7680   18.7770 C.ar   44  TRP44       0.0012
     43  CZ2       16.2900   38.7930   16.9930 C.ar   44  TRP44       0.0191
     44  CZ3       14.1600   38.5510   18.1230 C.ar   44  TRP44       0.0001
     45  CH2       15.1510   38.0790   17.2310 C.ar   44  TRP44       0.0015
     46  N         15.5200   44.6970   17.3880 N.am   45  THR45      -0.1953
     47  CA        16.4920   45.6080   16.7870 C.3    45  THR45       0.1897
     48  C         16.0410   47.0610   16.8840 C.2    45  THR45       0.2313
     49  O         16.8480   47.9530   17.1880 O.2    45  THR45      -0.2863
     50  CB        16.7290   45.2020   15.3390 C.3    45  THR45       0.1794
     51  OG1       17.2570   43.8740   15.3310 O.3    45  THR45      -0.2208
     52  CG2       17.7140   46.1520   14.6580 C.3    45  THR45       0.0378
     53  N         15.9560   49.0530   23.9340 N.3    50  MET50      -0.1245
     54  CA        17.2580   48.4150   23.7820 C.3    50  MET50       0.1570
     55  C         18.4250   49.3980   23.7650 C.2    50  MET50       0.2261
     56  O         19.5760   48.9580   23.8700 O.2    50  MET50      -0.2867
     57  CB        17.2700   47.5900   22.4900 C.3    50  MET50       0.0387
     58  CG        16.3730   46.3510   22.5690 C.3    50  MET50       0.0595
     59  SD        17.0000   45.0410   23.6300 S.3    50  MET50      -0.1393
     60  CE        18.3610   44.4340   22.6410 C.3    50  MET50       0.0692
     61  N         31.0020   43.3410   21.5610 N.3    69  ASP69      -0.1239
     62  CA        29.5430   43.3280   21.4730 C.3    69  ASP69       0.1674
     63  C         29.1680   41.8650   21.2430 C.2    69  ASP69       0.2266
     64  O         29.3050   41.3440   20.1290 O.2    69  ASP69      -0.2867
     65  CB        29.0960   44.2660   20.3520 C.3    69  ASP69       0.1410
     66  CG        27.6120   44.5610   20.3800 C.2    69  ASP69       0.3668
     67  OD1       26.8730   43.8960   21.1440 O.co2  69  ASP69      -0.2456
     68  OD2       27.2010   45.4610   19.6200 O.co2  69  ASP69      -0.2456
     69  N         26.8720   38.8980   20.7300 N.3    71  GLY71      -0.1210
     70  CA        25.5300   38.7480   20.2000 C.3    71  GLY71       0.1956
     71  C         25.0250   40.0440   19.5950 C.2    71  GLY71       0.2612
     72  O         23.9130   40.4830   19.8960 O.2    71  GLY71      -0.2717
     73  N         25.8190   40.6400   18.7040 N.am   72  ALA72      -0.1965
     74  CA        25.6480   42.0260   18.2760 C.3    72  ALA72       0.1728
     75  C         24.4670   42.2520   17.3390 C.2    72  ALA72       0.2617
     76  O         24.0960   43.4180   17.1240 O.2    72  ALA72      -0.2715
     77  CB        26.9200   42.4860   17.5700 C.3    72  ALA72       0.0334
     78  N         23.8780   41.1940   16.7820 N.am   73  GLY73      -0.1940
     79  CA        22.7360   41.4070   15.9010 C.3    73  GLY73       0.2014
     80  C         23.0990   42.2840   14.7200 C.2    73  GLY73       0.2638
     81  O         24.1880   42.1730   14.1380 O.2    73  GLY73      -0.2714
     82  N         22.1890   43.1930   14.3760 N.am   74  ARG74      -0.1977
     83  CA        22.3780   44.0210   13.1970 C.3    74  ARG74       0.1597
     84  C         23.3840   45.1360   13.3960 C.2    74  ARG74       0.2287
     85  O         23.7490   45.7890   12.4140 O.2    74  ARG74      -0.2864
     86  CB        21.0500   44.5920   12.6940 C.3    74  ARG74       0.0334
     87  CG        20.0830   43.5240   12.2190 C.3    74  ARG74       0.0492
     88  CD        19.0190   44.1180   11.2990 C.3    74  ARG74       0.2205
     89  NE        17.9450   43.1610   11.0630 N.pl3  74  ARG74      -0.0865
     90  CZ        17.9540   42.2010   10.1410 C.cat  74  ARG74       0.5346
     91  NH1       18.9840   42.0570    9.2990 N.pl3  74  ARG74       0.1354
     92  NH2       16.9160   41.3720   10.0520 N.pl3  74  ARG74       0.1354
     93  N         23.3440   47.8250   15.8560 N.3    76  ARG76      -0.1231
     94  CA        22.9400   49.1160   16.4190 C.3    76  ARG76       0.1694
     95  C         23.8890   49.5620   17.5360 C.2    76  ARG76       0.2592
     96  O         24.3910   50.6940   17.5250 O.2    76  ARG76      -0.2718
     97  CB        21.5110   48.9910   16.9500 C.3    76  ARG76       0.0321
     98  CG        20.8730   50.2830   17.4560 C.3    76  ARG76       0.0489
     99  CD        19.5870   49.9920   18.2930 C.3    76  ARG76       0.2205
    100  NE        20.0000   49.2980   19.5030 N.pl3  76  ARG76      -0.0865
    101  CZ        19.8400   47.9960   19.7490 C.cat  76  ARG76       0.5346
    102  NH1       19.1430   47.2120   18.9420 N.pl3  76  ARG76       0.1354
    103  NH2       20.3840   47.4770   20.8310 N.pl3  76  ARG76       0.1354
    104  N         24.1630   48.6760   18.4920 N.am   77  ASP77      -0.1974
    105  CA        25.0450   49.0480   19.6000 C.3    77  ASP77       0.1709
    106  C         26.4850   49.1790   19.1320 C.2    77  ASP77       0.2293
    107  O         27.2290   50.0320   19.6310 O.2    77  ASP77      -0.2864
    108  CB        24.9710   48.0250   20.7320 C.3    77  ASP77       0.1436
    109  CG        23.6160   47.9910   21.3980 C.2    77  ASP77       0.3671
    110  OD1       22.8950   49.0170   21.3550 O.co2  77  ASP77      -0.2456
    111  OD2       23.2750   46.9170   21.9260 O.co2  77  ASP77      -0.2456
    112  N         28.3400   37.4200   16.3860 N.3    92  ASP92      -0.1225
    113  CA        26.9830   36.8870   16.3930 C.3    92  ASP92       0.1805
    114  C         26.9450   35.5720   15.6250 C.2    92  ASP92       0.2598
    115  O         27.6960   35.3820   14.6730 O.2    92  ASP92      -0.2718
    116  CB        25.9830   37.8730   15.7700 C.3    92  ASP92       0.1424
    117  CG        24.5690   37.6230   16.2310 C.2    92  ASP92       0.3668
    118  OD1       24.0650   38.4070   17.0680 O.co2  92  ASP92      -0.2456
    119  OD2       23.9580   36.6320   15.7840 O.co2  92  ASP92      -0.2456
    120  N         26.0270   34.6810   16.0330 N.am   93  LEU93      -0.1966
    121  CA        25.7490   33.4480   15.2960 C.3    93  LEU93       0.1728
    122  C         25.2630   33.7200   13.8810 C.2    93  LEU93       0.2616
    123  O         25.4660   32.8910   12.9820 O.2    93  LEU93      -0.2715
    124  CB        24.6440   32.6670   16.0070 C.3    93  LEU93       0.0311
    125  CG        24.9140   32.0870   17.3900 C.3    93  LEU93       0.0022
    126  CD1       23.6480   31.4130   17.8900 C.3    93  LEU93       0.0001
    127  CD2       26.0500   31.1000   17.3250 C.3    93  LEU93       0.0001
    128  N         24.5880   34.8470   13.6790 N.am   94  VAL94      -0.1977
    129  CA        23.9580   35.1870   12.4080 C.3    94  VAL94       0.1596
    130  C         24.6090   36.4540   11.8820 C.2    94  VAL94       0.2287
    131  O         24.6390   37.4780   12.5780 O.2    94  VAL94      -0.2864
    132  CB        22.4460   35.4220   12.5920 C.3    94  VAL94       0.0276
    133  CG1       21.8290   35.8710   11.2700 C.3    94  VAL94       0.0022
    134  CG2       21.7770   34.1550   13.1210 C.3    94  VAL94       0.0022
    135  N         30.4570   34.0280   14.6450 N.3   115  CYS115     -0.1221
    136  CA        30.7330   32.8170   15.4050 C.3   115  CYS115      0.1794
    137  C         29.9990   32.8610   16.7380 C.2   115  CYS115      0.2443
    138  O         29.5500   33.9270   17.1690 O.2   115  CYS115     -0.2733
    139  CB        32.2410   32.6510   15.6470 C.3   115  CYS115      0.0970
    140  SG        32.9630   33.8730   16.7750 S.3   115  CYS115     -0.0800
    141  N         29.8520   31.7210   17.4060 N.am  116  PRO116     -0.2718
    142  CA        29.3780   31.7530   18.7930 C.3   116  PRO116      0.1535
    143  C         30.3930   32.4490   19.6840 C.2   116  PRO116      0.2598
    144  O         31.6060   32.3700   19.4660 O.2   116  PRO116     -0.2715
    145  CB        29.2450   30.2710   19.1670 C.3   116  PRO116      0.0310
    146  CG        29.2850   29.5120   17.8610 C.3   116  PRO116      0.0237
    147  CD        30.1130   30.3480   16.9390 C.3   116  PRO116      0.0939
    148  N         29.8790   33.1290   20.7140 N.am  117  VAL117     -0.1964
    149  CA        30.7440   33.7380   21.7240 C.3   117  VAL117      0.1727
    150  C         31.7830   32.7440   22.2390 C.2   117  VAL117      0.2616
    151  O         32.9520   33.0920   22.4370 O.2   117  VAL117     -0.2715
    152  CB        29.8840   34.3200   22.8630 C.3   117  VAL117      0.0290
    153  CG1       30.7490   34.6110   24.0960 C.3   117  VAL117      0.0023
    154  CG2       29.1770   35.5720   22.3960 C.3   117  VAL117      0.0023
    155  N         31.3790   31.4860   22.4400 N.am  118  SER118     -0.1950
    156  CA        32.2820   30.4620   22.9650 C.3   118  SER118      0.1924
    157  C         33.4910   30.2170   22.0700 C.2   118  SER118      0.2314
    158  O         34.5130   29.7060   22.5560 O.2   118  SER118     -0.2863
    159  CB        31.5250   29.1460   23.1340 C.3   118  SER118      0.2116
    160  OG        31.1800   28.5970   21.8710 O.3   118  SER118     -0.2180
    161  N         23.7310   42.4450   25.1230 N.3   132  ASN132     -0.1225
    162  CA        22.4200   43.0770   25.0850 C.3   132  ASN132      0.1785
    163  C         21.4220   42.0350   24.5950 C.2   132  ASN132      0.2598
    164  O         21.0680   41.9680   23.4110 O.2   132  ASN132     -0.2718
    165  CB        22.4360   44.3290   24.2250 C.3   132  ASN132      0.1169
    166  CG        21.2570   45.2230   24.5090 C.2   132  ASN132      0.2627
    167  OD1       20.4030   44.8740   25.3260 O.2   132  ASN132     -0.2716
    168  ND2       21.1980   46.3720   23.8540 N.am  132  ASN132     -0.0877
    169  N         21.0070   41.1740   25.5180 N.am  133  GLY133     -0.1942
    170  CA        19.9800   40.1910   25.2340 C.3   133  GLY133      0.2014
    171  C         20.4430   38.9020   24.5930 C.2   133  GLY133      0.2639
    172  O         19.6680   38.2800   23.8600 O.2   133  GLY133     -0.2714
    173  N         21.6720   38.4660   24.8580 N.am  134  CYS134     -0.1967
    174  CA        22.1840   37.2060   24.3240 C.3   134  CYS134      0.1712
    175  C         22.2210   36.0980   25.3750 C.2   134  CYS134      0.2296
    176  O         21.6350   35.0270   25.1750 O.2   134  CYS134     -0.2864
    177  CB        23.5680   37.4460   23.7140 C.3   134  CYS134      0.0983
    178  SG        24.3070   36.0140   22.9230 S.3   134  CYS134     -0.0798
    179  N         19.2530   33.7990   26.4200 N.3   137  HIS137     -0.1226
    180  CA        18.8130   32.7560   25.5040 C.3   137  HIS137      0.1752
    181  C         19.6960   31.5210   25.5090 C.2   137  HIS137      0.2595
    182  O         19.3980   30.5720   24.7810 O.2   137  HIS137     -0.2718
    183  CB        18.7280   33.3080   24.0810 C.3   137  HIS137      0.0759
    184  CG        17.7020   34.3820   23.9280 C.ar  137  HIS137      0.0818
    185  ND1       16.4020   34.2220   24.3570 N.ar  137  HIS137     -0.2268
    186  CD2       17.7830   35.6300   23.4110 C.ar  137  HIS137      0.1154
    187  CE1       15.7200   35.3260   24.0970 C.ar  137  HIS137      0.1986
    188  NE2       16.5310   36.1900   23.5120 N.ar  137  HIS137     -0.2212
    189  N         20.7670   31.4940   26.2950 N.am  138  GLN138     -0.1979
    190  CA        21.6260   30.3230   26.2560 C.3   138  GLN138      0.1601
    191  C         21.0110   29.1660   27.0380 C.2   138  GLN138      0.2287
    192  O         20.1180   29.3410   27.8740 O.2   138  GLN138     -0.2864
    193  CB        23.0030   30.6470   26.8340 C.3   138  GLN138      0.0394
    194  CG        23.6900   31.8210   26.1590 C.3   138  GLN138      0.0908
    195  CD        23.6930   31.7160   24.6470 C.2   138  GLN138      0.2608
    196  OE1       24.2900   30.8040   24.0720 O.2   138  GLN138     -0.2717
    197  NE2       23.0160   32.6530   23.9960 N.am  138  GLN138     -0.0878
    198  N         29.8460   30.3950   29.0260 N.3   146  TYR146     -0.1241
    199  CA        29.6580   31.6470   28.3070 C.3   146  TYR146      0.1605
    200  C         30.2270   32.8180   29.1040 C.2   146  TYR146      0.2264
    201  O         31.0150   33.6180   28.5850 O.2   146  TYR146     -0.2867
    202  CB        28.1640   31.8260   28.0490 C.3   146  TYR146      0.0534
    203  CG        27.7980   33.0590   27.2780 C.ar  146  TYR146     -0.0201
    204  CD1       27.5490   32.9990   25.9140 C.ar  146  TYR146     -0.0009
    205  CD2       27.6670   34.2840   27.9190 C.ar  146  TYR146     -0.0009
    206  CE1       27.1920   34.1300   25.2050 C.ar  146  TYR146      0.0417
    207  CE2       27.3120   35.4240   27.2160 C.ar  146  TYR146      0.0417
    208  CZ        27.0830   35.3410   25.8570 C.ar  146  TYR146      0.1957
    209  OH        26.7430   36.4800   25.1570 O.3   146  TYR146     -0.2866
@<TRIPOS>BOND
     1    23    22    2
     2    91    90    1
     3    22    21    1
     4    92    90    1
     5    90    89    2
     6    21    24    1
     7    21    20    1
     8    89    88    1
     9    24    25    1
    10   133   132    1
    11    88    87    1
    12   130   129    1
    13   130   131    2
    14    87    86    1
    15   129   132    1
    16   129   128    1
    17    85    84    2
    18    25    26   ar
    19    25    27   ar
    20   132   134    1
    21    86    83    1
    22    26    28   ar
    23   123   122    2
    24    12    11    2
    25    83    84    1
    26    83    82    1
    27    27    29   ar
    28    11    10    1
    29   128   122   am
    30   122   121    1
    31    28    30   ar
    32    81    80    2
    33    82    80   am
    34   135   136    1
    35    52    50    1
    36   115   114    2
    37    29    30   ar
    38    80    79    1
    39    30    31    1
    40    10     9    1
    41    10    13    1
    42   121   124    1
    43   121   120    1
    44    51    50    1
    45    50    47    1
    46   136   139    1
    47   136   137    1
    48   114   120   am
    49   114   113    1
    50   139   140    1
    51   116   117    1
    52   116   113    1
    53   119   117   ar
    54    93    94    1
    55    13    14    1
    56    79    78    1
    57   124   125    1
    58   117   118   ar
    59   112   113    1
    60    94    97    1
    61    94    95    1
    62   137   138    2
    63   137   141   am
    64    78    75   am
    65    47    48    1
    66    47    46    1
    67    48    49    2
    68   147   141    1
    69   147   146    1
    70    97    98    1
    71    43    45   ar
    72    43    41   ar
    73     4     3    2
    74    76    75    2
    75    45    44   ar
    76    14    15   ar
    77    14    16   ar
    78   127   125    1
    79    75    74    1
    80    46    34   am
    81   125   126    1
    82   141   142    1
    83    15    17   ar
    84     3     2    1
    85    98    99    1
    86    96    95    2
    87    95   104   am
    88    40    41   ar
    89    40    38   ar
    90    77    74    1
    91    41    39   ar
    92   146   145    1
    93    44    42   ar
    94    74    73    1
    95    99   100    1
    96    16    18   ar
    97    32    33    1
    98    38    37   ar
    99   104   105    1
   100    39    42   ar
   101    39    37   ar
   102     1     2    1
   103    34    33    1
   104    34    35    2
   105    73    71   am
   106    17    19   ar
   107     2     5    1
   108   142   145    1
   109   142   143    1
   110   102   101    1
   111    37    36    1
   112   106   105    1
   113   106   107    2
   114    33    36    1
   115   144   143    2
   116   100   101    2
   117    71    72    2
   118    71    70    1
   119   105   108    1
   120    68    66   ar
   121    18    19   ar
   122   143   148   am
   123   101   103    1
   124     5     6    1
   125    64    63    2
   126    70    69    1
   127     6     7    1
   128     6     8    1
   129    65    66    1
   130    65    62    1
   131    66    67   ar
   132   148   149    1
   133   108   109    1
   134    63    62    1
   135   110   109   ar
   136   109   111   ar
   137    62    61    1
   138   149   150    1
   139   149   152    1
   140   160   159    1
   141   157   158    2
   142   157   156    1
   143   150   151    2
   144   150   155   am
   145   154   152    1
   146   155   156    1
   147    57    58    1
   148    57    54    1
   149    58    59    1
   150    60    59    1
   151   152   153    1
   152   178   177    1
   153   156   159    1
   154   164   163    2
   155   186   188   ar
   156   186   184   ar
   157   188   187   ar
   158   177   174    1
   159    55    54    1
   160    55    56    2
   161    54    53    1
   162   168   166   am
   163   172   171    2
   164   184   183    1
   165   184   185   ar
   166   197   195   am
   167   196   195    2
   168   183   180    1
   169   187   185   ar
   170   165   166    1
   171   165   162    1
   172   174   173    1
   173   174   175    1
   174   166   167    2
   175   171   173   am
   176   171   170    1
   177   163   162    1
   178   163   169   am
   179   195   194    1
   180   182   181    2
   181   162   161    1
   182   209   208    1
   183   176   175    2
   184   206   208   ar
   185   206   204   ar
   186   170   169    1
   187   180   181    1
   188   180   179    1
   189   181   189   am
   190   208   207   ar
   191   204   203   ar
   192   194   193    1
   193   190   189    1
   194   190   193    1
   195   190   191    1
   196   191   192    2
   197   207   205   ar
   198   203   205   ar
   199   203   202    1
   200   202   199    1
   201   199   198    1
   202   199   200    1
   203   201   200    2
