@<TRIPOS>MOLECULE
tmp/5ufrB00.pdb
 238 229 0 0 0
SMALL
GASTEIGER

@<TRIPOS>ATOM
      1  N         29.1130   30.5000   10.9020 N.3    21  CYS21      -0.1221
      2  CA        27.7300   30.9240   10.6750 C.3    21  CYS21       0.1808
      3  C         26.6800   29.9910   11.2770 C.2    21  CYS21       0.2601
      4  O         25.5250   30.4140   11.4350 O.2    21  CYS21      -0.2717
      5  CB        27.4710   31.1220    9.1720 C.3    21  CYS21       0.0970
      6  SG        27.0420   29.6560    8.2030 S.3    21  CYS21      -0.0800
      7  N         27.0330   28.7470   11.6070 N.am   22  GLN22      -0.1965
      8  CA        26.1770   27.8670   12.4120 C.3    22  GLN22       0.1733
      9  C         25.3950   26.8730   11.5460 C.2    22  GLN22       0.2616
     10  O         25.8270   25.7220   11.4100 O.2    22  GLN22      -0.2715
     11  CB        25.2460   28.6930   13.3190 C.3    22  GLN22       0.0408
     12  CG        24.4560   27.8770   14.3410 C.3    22  GLN22       0.0908
     13  CD        24.5020   28.4160   15.7950 C.2    22  GLN22       0.2608
     14  OE1       24.6960   29.6120   16.0610 O.2    22  GLN22      -0.2717
     15  NE2       24.2990   27.5120   16.7330 N.am   22  GLN22      -0.0878
     16  N         24.2600   27.2630   10.9620 N.am   23  LEU23      -0.1977
     17  CA        23.5840   26.3960   10.0030 C.3    23  LEU23       0.1596
     18  C         23.8650   26.8090    8.5530 C.2    23  LEU23       0.2287
     19  O         24.0310   27.9920    8.2400 O.2    23  LEU23      -0.2864
     20  CB        22.0770   26.3850   10.2390 C.3    23  LEU23       0.0297
     21  CG        21.7170   25.9130   11.6410 C.3    23  LEU23       0.0022
     22  CD1       20.2290   25.8710   11.8220 C.3    23  LEU23       0.0001
     23  CD2       22.3320   24.5490   11.9160 C.3    23  LEU23       0.0001
     24  N         18.8570   25.1250    5.4960 N.3    28  LEU28      -0.1245
     25  CA        17.6930   25.8830    5.9340 C.3    28  LEU28       0.1561
     26  C         16.6810   26.0300    4.8100 C.2    28  LEU28       0.2260
     27  O         15.4720   25.9010    5.0270 O.2    28  LEU28      -0.2867
     28  CB        18.1280   27.2590    6.4310 C.3    28  LEU28       0.0270
     29  CG        18.9160   27.2620    7.7270 C.3    28  LEU28       0.0019
     30  CD1       19.6880   28.5560    7.8560 C.3    28  LEU28       0.0001
     31  CD2       17.9370   27.0930    8.8820 C.3    28  LEU28       0.0001
     32  N         12.5810   27.5640   28.5100 N.3    53  TRP53      -0.1241
     33  CA        13.6440   28.5530   28.6050 C.3    53  TRP53       0.1605
     34  C         15.0110   27.8880   28.6810 C.2    53  TRP53       0.2264
     35  O         15.9770   28.3970   28.1080 O.2    53  TRP53      -0.2867
     36  CB        13.4300   29.4750   29.7890 C.3    53  TRP53       0.0550
     37  CG        12.6130   30.6390   29.4120 C.ar   53  TRP53       0.0003
     38  CD1       11.3130   30.8950   29.7960 C.ar   53  TRP53       0.0946
     39  CD2       13.0100   31.7270   28.5820 C.ar   53  TRP53       0.0152
     40  NE1       10.8920   32.0790   29.2380 N.ar   53  TRP53      -0.2442
     41  CE2       11.9090   32.6030   28.4820 C.ar   53  TRP53       0.0810
     42  CE3       14.1820   32.0290   27.8640 C.ar   53  TRP53       0.0012
     43  CZ2       11.9510   33.7740   27.7240 C.ar   53  TRP53       0.0191
     44  CZ3       14.2190   33.1920   27.1090 C.ar   53  TRP53       0.0001
     45  CH2       13.1070   34.0480   27.0420 C.ar   53  TRP53       0.0015
     46  N         15.6700   27.2430   24.9610 N.3    56  CYS56      -0.1235
     47  CA        15.9840   28.4390   24.1980 C.3    56  CYS56       0.1677
     48  C         17.2500   29.1050   24.7030 C.2    56  CYS56       0.2270
     49  O         18.0300   29.6270   23.9040 O.2    56  CYS56      -0.2867
     50  CB        14.8100   29.4020   24.2210 C.3    56  CYS56       0.0956
     51  SG        13.3930   28.6910   23.3610 S.3    56  CYS56      -0.0801
     52  N         20.2160   27.5360   23.1640 N.3    59  HIS59      -0.1226
     53  CA        20.4090   28.0090   21.7930 C.3    59  HIS59       0.1752
     54  C         21.0450   29.3940   21.7770 C.2    59  HIS59       0.2595
     55  O         21.9790   29.6420   21.0070 O.2    59  HIS59      -0.2718
     56  CB        19.0790   28.0320   21.0240 C.3    59  HIS59       0.0759
     57  CG        18.5980   26.6870   20.5690 C.ar   59  HIS59       0.0818
     58  ND1       19.2120   25.9750   19.5590 N.ar   59  HIS59      -0.2268
     59  CD2       17.5380   25.9420   20.9600 C.ar   59  HIS59       0.1154
     60  CE1       18.5640   24.8400   19.3660 C.ar   59  HIS59       0.1986
     61  NE2       17.5430   24.7950   20.2040 N.ar   59  HIS59      -0.2212
     62  N         20.5690   30.3040   22.6320 N.am   60  LEU60      -0.1980
     63  CA        21.0740   31.6770   22.6060 C.3    60  LEU60       0.1596
     64  C         22.5190   31.7530   23.0800 C.2    60  LEU60       0.2287
     65  O         23.3090   32.5600   22.5700 O.2    60  LEU60      -0.2864
     66  CB        20.1770   32.5710   23.4590 C.3    60  LEU60       0.0297
     67  CG        18.7920   32.8170   22.8590 C.3    60  LEU60       0.0022
     68  CD1       17.7920   33.3820   23.8920 C.3    60  LEU60       0.0001
     69  CD2       18.9180   33.7450   21.6800 C.3    60  LEU60       0.0001
     70  N         24.8010   29.2580   22.9220 N.3    62  GLU62      -0.1231
     71  CA        25.6370   28.6920   21.8670 C.3    62  GLU62       0.1699
     72  C         25.8040   29.6700   20.7080 C.2    62  GLU62       0.2592
     73  O         26.9050   29.8170   20.1670 O.2    62  GLU62      -0.2718
     74  CB        25.0650   27.3640   21.3710 C.3    62  GLU62       0.0402
     75  CG        25.9530   26.6860   20.3310 C.3    62  GLU62       0.1161
     76  CD        25.7520   25.1840   20.2690 C.2    62  GLU62       0.3649
     77  OE1       24.6060   24.7470   20.0210 O.co2  62  GLU62      -0.2457
     78  OE2       26.7380   24.4410   20.4780 O.co2  62  GLU62      -0.2457
     79  N         24.7300   30.3520   20.3070 N.am   63  ALA63      -0.1980
     80  CA        24.8740   31.3080   19.2080 C.3    63  ALA63       0.1597
     81  C         25.7820   32.4690   19.6020 C.2    63  ALA63       0.2287
     82  O         26.4960   33.0230   18.7600 O.2    63  ALA63      -0.2864
     83  CB        23.5050   31.8200   18.7590 C.3    63  ALA63       0.0319
     84  N         23.3470   37.9870   16.9660 N.3    97  VAL97      -0.1231
     85  CA        22.5860   36.7460   17.0140 C.3    97  VAL97       0.1692
     86  C         21.1770   36.9630   16.4780 C.2    97  VAL97       0.2591
     87  O         20.6170   36.0970   15.7890 O.2    97  VAL97      -0.2718
     88  CB        22.5490   36.1850   18.4450 C.3    97  VAL97       0.0266
     89  CG1       21.4540   35.1480   18.5310 C.3    97  VAL97       0.0020
     90  CG2       23.8900   35.5730   18.8090 C.3    97  VAL97       0.0020
     91  N         20.5680   38.1090   16.7960 N.am   98  LEU98      -0.1980
     92  CA        19.2370   38.3800   16.2560 C.3    98  LEU98       0.1596
     93  C         19.2820   38.5180   14.7430 C.2    98  LEU98       0.2287
     94  O         18.3860   38.0350   14.0370 O.2    98  LEU98      -0.2864
     95  CB        18.6500   39.6370   16.8880 C.3    98  LEU98       0.0297
     96  CG        18.2270   39.4610   18.3430 C.3    98  LEU98       0.0022
     97  CD1       17.9470   40.8130   18.9730 C.3    98  LEU98       0.0001
     98  CD2       16.9970   38.5570   18.4150 C.3    98  LEU98       0.0001
     99  N         21.4190   37.0450   12.7560 N.3   100  ARG100     -0.1231
    100  CA        21.6950   35.7220   12.2130 C.3   100  ARG100      0.1694
    101  C         20.4570   34.8460   12.2020 C.2   100  ARG100      0.2591
    102  O         20.2920   34.0210   11.2980 O.2   100  ARG100     -0.2718
    103  CB        22.7990   35.0520   13.0260 C.3   100  ARG100      0.0321
    104  CG        24.1120   35.7860   12.9820 C.3   100  ARG100      0.0489
    105  CD        25.1960   34.9810   13.6820 C.3   100  ARG100      0.2205
    106  NE        26.4940   35.1970   13.0610 N.pl3 100  ARG100     -0.0865
    107  CZ        27.5020   34.3390   13.1340 C.cat 100  ARG100      0.5346
    108  NH1       27.3460   33.2030   13.8030 N.pl3 100  ARG100      0.1354
    109  NH2       28.6570   34.6100   12.5250 N.pl3 100  ARG100      0.1354
    110  N         19.5880   34.9940   13.2020 N.am  101  MET101     -0.1979
    111  CA        18.3800   34.1740   13.2800 C.3   101  MET101      0.1605
    112  C         17.4550   34.4050   12.0950 C.2   101  MET101      0.2287
    113  O         16.6890   33.5100   11.7300 O.2   101  MET101     -0.2864
    114  CB        17.6390   34.4540   14.5840 C.3   101  MET101      0.0413
    115  CG        18.3830   33.9620   15.8160 C.3   101  MET101      0.0598
    116  SD        17.4760   34.2470   17.3550 S.3   101  MET101     -0.1393
    117  CE        18.3850   33.1720   18.4630 C.3   101  MET101      0.0692
    118  N         18.2170   34.2360    9.1830 N.3   103  ARG103     -0.1231
    119  CA        18.5410   33.2420    8.1620 C.3   103  ARG103      0.1694
    120  C         17.6530   32.0200    8.2880 C.2   103  ARG103      0.2591
    121  O         17.4010   31.3310    7.2950 O.2   103  ARG103     -0.2718
    122  CB        20.0130   32.8140    8.2570 C.3   103  ARG103      0.0321
    123  CG        21.0070   33.9410    8.1840 C.3   103  ARG103      0.0489
    124  CD        22.4590   33.4380    8.3570 C.3   103  ARG103      0.2205
    125  NE        22.8790   32.5050    7.3030 N.pl3 103  ARG103     -0.0865
    126  CZ        23.1000   31.2070    7.5070 C.cat 103  ARG103      0.5346
    127  NH1       22.9450   30.6930    8.7180 N.pl3 103  ARG103      0.1354
    128  NH2       23.4820   30.4180    6.5140 N.pl3 103  ARG103      0.1354
    129  N         17.1780   31.7330    9.5020 N.am  104  ALA104     -0.1980
    130  CA        16.3070   30.5920    9.7640 C.3   104  ALA104      0.1597
    131  C         14.8310   30.9030    9.5570 C.2   104  ALA104      0.2287
    132  O         13.9930   30.0270    9.8000 O.2   104  ALA104     -0.2864
    133  CB        16.5290   30.0920   11.2020 C.3   104  ALA104      0.0319
    134  N          9.9040   29.8150   11.5150 N.3   112  VAL112     -0.1231
    135  CA        11.3500   29.7850   11.6850 C.3   112  VAL112      0.1692
    136  C         11.7900   28.3420   11.8310 C.2   112  VAL112      0.2592
    137  O         11.0740   27.5090   12.3890 O.2   112  VAL112     -0.2718
    138  CB        11.8420   30.6010   12.8960 C.3   112  VAL112      0.0266
    139  CG1       11.4810   32.0620   12.7170 C.3   112  VAL112      0.0020
    140  CG2       11.2720   30.0300   14.2120 C.3   112  VAL112      0.0020
    141  N         12.9840   28.0440   11.3260 N.am  113  PHE113     -0.1962
    142  CA        13.5580   26.7330   11.5700 C.3   113  PHE113      0.1771
    143  C         13.9300   26.6400   13.0430 C.2   113  PHE113      0.2620
    144  O         14.6810   27.4780   13.5440 O.2   113  PHE113     -0.2715
    145  CB        14.7820   26.5190   10.6890 C.3   113  PHE113      0.0574
    146  CG        15.4520   25.1960   10.8950 C.ar  113  PHE113     -0.0200
    147  CD1       14.9930   24.0650   10.2390 C.ar  113  PHE113     -0.0042
    148  CD2       16.5550   25.0860   11.7330 C.ar  113  PHE113     -0.0042
    149  CE1       15.6180   22.8410   10.4250 C.ar  113  PHE113     -0.0003
    150  CE2       17.1890   23.8680   11.9240 C.ar  113  PHE113     -0.0003
    151  CZ        16.7220   22.7440   11.2690 C.ar  113  PHE113     -0.0000
    152  N         13.3890   25.6500   13.7490 N.am  114  PHE114     -0.1960
    153  CA        13.7350   25.4350   15.1580 C.3   114  PHE114      0.1771
    154  C         13.8610   23.9370   15.3890 C.2   114  PHE114      0.2619
    155  O         12.8680   23.2100   15.3280 O.2   114  PHE114     -0.2715
    156  CB        12.7000   26.0360   16.1160 C.3   114  PHE114      0.0574
    157  CG        13.1800   26.1010   17.5630 C.ar  114  PHE114     -0.0200
    158  CD1       12.6860   25.2290   18.5130 C.ar  114  PHE114     -0.0042
    159  CD2       14.1690   27.0090   17.9420 C.ar  114  PHE114     -0.0042
    160  CE1       13.1310   25.2860   19.8370 C.ar  114  PHE114     -0.0003
    161  CE2       14.6350   27.0660   19.2630 C.ar  114  PHE114     -0.0003
    162  CZ        14.1110   26.2070   20.2080 C.ar  114  PHE114     -0.0000
    163  N         15.0860   23.4680   15.6130 N.am  115  GLU115     -0.1977
    164  CA        15.3120   22.0980   16.0680 C.3   115  GLU115      0.1602
    165  C         14.7970   21.0550   15.0770 C.2   115  GLU115      0.2287
    166  O         14.2710   20.0120   15.4700 O.2   115  GLU115     -0.2864
    167  CB        14.6880   21.8850   17.4460 C.3   115  GLU115      0.0415
    168  CG        15.3020   22.7790   18.5130 C.3   115  GLU115      0.1163
    169  CD        14.8410   22.4290   19.9240 C.2   115  GLU115      0.3649
    170  OE1       15.6710   22.5230   20.8450 O.co2 115  GLU115     -0.2457
    171  OE2       13.6600   22.0630   20.1180 O.co2 115  GLU115     -0.2457
    172  N          6.7060   28.9560   20.4630 N.3   124  PHE124     -0.1241
    173  CA         7.3990   29.4570   21.6440 C.3   124  PHE124      0.1605
    174  C          6.4320   29.9000   22.7420 C.2   124  PHE124      0.2264
    175  O          6.8340   30.6060   23.6710 O.2   124  PHE124     -0.2867
    176  CB         8.3170   30.6060   21.2280 C.3   124  PHE124      0.0534
    177  CG         9.3380   30.2050   20.1970 C.ar  124  PHE124     -0.0203
    178  CD1       10.6050   29.7970   20.5760 C.ar  124  PHE124     -0.0042
    179  CD2        9.0150   30.2140   18.8410 C.ar  124  PHE124     -0.0042
    180  CE1       11.5350   29.4120   19.6270 C.ar  124  PHE124     -0.0003
    181  CE2        9.9450   29.8300   17.8830 C.ar  124  PHE124     -0.0003
    182  CZ        11.2020   29.4250   18.2730 C.ar  124  PHE124     -0.0000
    183  N          7.1860   29.8640   26.4730 N.3   127  LEU127     -0.1245
    184  CA         8.1000   30.8660   27.0230 C.3   127  LEU127      0.1561
    185  C          7.3540   31.9370   27.8090 C.2   127  LEU127      0.2260
    186  O          7.9260   32.5470   28.7260 O.2   127  LEU127     -0.2867
    187  CB         8.9230   31.5100   25.9000 C.3   127  LEU127      0.0270
    188  CG         9.9710   30.6310   25.2200 C.3   127  LEU127      0.0019
    189  CD1       10.6830   31.3710   24.0770 C.3   127  LEU127      0.0001
    190  CD2       10.9800   30.1410   26.2450 C.3   127  LEU127      0.0001
    191  N          7.6390   39.6580   23.0710 N.3   132  LEU132     -0.1231
    192  CA         9.0140   39.5200   22.5990 C.3   132  LEU132      0.1693
    193  C          9.0950   38.6340   21.3590 C.2   132  LEU132      0.2591
    194  O          9.7590   38.9830   20.3750 O.2   132  LEU132     -0.2718
    195  CB         9.8970   38.9520   23.7040 C.3   132  LEU132      0.0284
    196  CG        11.3320   38.7070   23.2170 C.3   132  LEU132      0.0019
    197  CD1       12.0210   40.0460   23.0040 C.3   132  LEU132      0.0001
    198  CD2       12.1220   37.8680   24.2080 C.3   132  LEU132      0.0001
    199  N          8.4670   37.4570   21.4050 N.am  133  ILE133     -0.1980
    200  CA         8.6080   36.5120   20.3010 C.3   133  ILE133      0.1595
    201  C          8.0520   37.1110   19.0130 C.2   133  ILE133      0.2287
    202  O          8.6780   37.0210   17.9550 O.2   133  ILE133     -0.2864
    203  CB         7.9300   35.1680   20.6280 C.3   133  ILE133      0.0276
    204  CG1        8.7090   34.3800   21.6850 C.3   133  ILE133      0.0022
    205  CG2        7.8630   34.3180   19.3730 C.3   133  ILE133      0.0022
    206  CD1        9.8970   35.1000   22.2540 C.3   133  ILE133      0.0001
    207  N         10.1250   39.7530   17.3750 N.3   136  ILE136     -0.1231
    208  CA        11.2700   39.1820   16.6800 C.3   136  ILE136      0.1692
    209  C         10.8600   38.6420   15.3180 C.2   136  ILE136      0.2592
    210  O         11.5860   38.8070   14.3300 O.2   136  ILE136     -0.2718
    211  CB        11.9240   38.0900   17.5440 C.3   136  ILE136      0.0266
    212  CG1       12.6730   38.7080   18.7280 C.3   136  ILE136      0.0019
    213  CG2       12.8670   37.2420   16.7070 C.3   136  ILE136      0.0020
    214  CD1       13.2660   37.6730   19.6580 C.3   136  ILE136      0.0001
    215  N          9.7150   37.9600   15.2450 N.am  137  PHE137     -0.1976
    216  CA         9.1900   37.5580   13.9460 C.3   137  PHE137      0.1639
    217  C          8.9370   38.7750   13.0750 C.2   137  PHE137      0.2290
    218  O          9.2730   38.7770   11.8870 O.2   137  PHE137     -0.2864
    219  CB         7.9060   36.7420   14.1040 C.3   137  PHE137      0.0560
    220  CG         8.1420   35.2720   14.3300 C.ar  137  PHE137     -0.0200
    221  CD1        8.7470   34.8220   15.4950 C.ar  137  PHE137     -0.0042
    222  CD2        7.7240   34.3370   13.3960 C.ar  137  PHE137     -0.0042
    223  CE1        8.9550   33.4670   15.7190 C.ar  137  PHE137     -0.0003
    224  CE2        7.9380   32.9770   13.6100 C.ar  137  PHE137     -0.0003
    225  CZ         8.5640   32.5460   14.7800 C.ar  137  PHE137     -0.0000
    226  N         12.4070   39.7920   11.8700 N.3   140  SER140     -0.1217
    227  CA        12.8700   38.8640   10.8470 C.3   140  SER140      0.1889
    228  C         12.0620   39.0140    9.5660 C.2   140  SER140      0.2288
    229  O         12.5950   38.8410    8.4600 O.2   140  SER140     -0.2866
    230  CB        12.7800   37.4320   11.3660 C.3   140  SER140      0.2089
    231  OG        13.4980   37.2930   12.5770 O.3   140  SER140     -0.2183
    232  N         15.8110   38.0310   27.4340 N.3   216  VAL216     -0.1245
    233  CA        16.9480   37.2550   26.9750 C.3   216  VAL216      0.1561
    234  C         18.2200   37.6370   27.7310 C.2   216  VAL216      0.2260
    235  O         19.3140   37.2640   27.3190 O.2   216  VAL216     -0.2867
    236  CB        17.1540   37.3860   25.4540 C.3   216  VAL216      0.0252
    237  CG1       15.8500   37.1240   24.7120 C.3   216  VAL216      0.0019
    238  CG2       17.7240   38.7550   25.1000 C.3   216  VAL216      0.0019
@<TRIPOS>BOND
     1    26    27    2
     2    26    25    1
     3    24    25    1
     4    25    28    1
     5    28    29    1
     6   128   126    1
     7   121   120    2
     8   125   126    2
     9   125   124    1
    10   126   127    1
    11    29    30    1
    12    29    31    1
    13   119   122    1
    14   119   120    1
    15   119   118    1
    16   123   122    1
    17   123   124    1
    18     6     5    1
    19    19    18    2
    20   120   129   am
    21   229   228    2
    22    18    17    1
    23     5     2    1
    24   129   130    1
    25   131   130    1
    26   131   132    2
    27   228   227    1
    28   130   133    1
    29    17    20    1
    30    17    16    1
    31   147   149   ar
    32   147   146   ar
    33    20    21    1
    34   149   151   ar
    35     2     1    1
    36     2     3    1
    37   145   146    1
    38   145   142    1
    39   227   230    1
    40   227   226    1
    41   146   148   ar
    42    16     9   am
    43   151   150   ar
    44     3     4    2
    45     3     7   am
    46   102   101    2
    47   141   142    1
    48   141   136   am
    49   230   231    1
    50    10     9    2
    51   134   135    1
    52     9     8    1
    53   142   143    1
    54     7     8    1
    55    21    22    1
    56    21    23    1
    57   135   136    1
    58   135   138    1
    59   113   112    2
    60   148   150   ar
    61   136   137    2
    62   218   217    2
    63   112   111    1
    64   101   100    1
    65   101   110   am
    66   100    99    1
    67   100   103    1
    68     8    11    1
    69   109   107    1
    70   139   138    1
    71   138   140    1
    72   104   103    1
    73   104   105    1
    74   143   144    2
    75   143   152   am
    76   106   107    2
    77   106   105    1
    78   217   216    1
    79   107   108    1
    80   110   111    1
    81   111   114    1
    82    11    12    1
    83   222   224   ar
    84   222   220   ar
    85   224   225   ar
    86   152   153    1
    87   216   219    1
    88   216   215    1
    89    94    93    2
    90   219   220    1
    91   210   209    2
    92   220   221   ar
    93    12    13    1
    94   114   115    1
    95    93    92    1
    96   225   223   ar
    97   165   166    2
    98   165   164    1
    99   153   154    1
   100   153   156    1
   101   215   209   am
   102   209   208    1
   103   155   154    2
   104   154   163   am
   105   221   223   ar
   106   163   164    1
   107    87    86    2
   108    13    14    2
   109    13    15   am
   110   115   116    1
   111   164   167    1
   112   156   157    1
   113    92    91    1
   114    92    95    1
   115    86    91   am
   116    86    85    1
   117   208   207    1
   118   208   211    1
   119   213   211    1
   120    95    96    1
   121    84    85    1
   122    85    88    1
   123   116   117    1
   124   167   168    1
   125   211   212    1
   126   157   159   ar
   127   157   158   ar
   128   181   182   ar
   129   181   179   ar
   130   159   161   ar
   131   202   201    2
   132   182   180   ar
   133    96    98    1
   134    96    97    1
   135    88    89    1
   136    88    90    1
   137   158   160   ar
   138   168   169    1
   139   212   214    1
   140    83    80    1
   141    82    81    2
   142   179   177   ar
   143   201   200    1
   144    80    81    1
   145    80    79    1
   146   161   162   ar
   147    60    58   ar
   148    60    61   ar
   149   205   203    1
   150    58    57   ar
   151   180   178   ar
   152   160   162   ar
   153   169   171   ar
   154   169   170   ar
   155    77    76   ar
   156    73    72    2
   157   177   178   ar
   158   177   176    1
   159    61    59   ar
   160    76    75    1
   161    76    78   ar
   162   200   203    1
   163   200   199    1
   164    79    72   am
   165    75    74    1
   166   194   193    2
   167   172   173    1
   168    57    59   ar
   169    57    56    1
   170   203   204    1
   171    72    71    1
   172    55    54    2
   173    56    53    1
   174   176   173    1
   175   193   199   am
   176   193   192    1
   177    74    71    1
   178   173   174    1
   179    69    67    1
   180   204   206    1
   181    54    53    1
   182    54    62   am
   183    53    52    1
   184    71    70    1
   185    65    64    2
   186   192   191    1
   187   192   195    1
   188    63    62    1
   189    63    64    1
   190    63    66    1
   191   174   175    2
   192    67    66    1
   193    67    68    1
   194   197   196    1
   195   196   195    1
   196   196   198    1
   197    51    50    1
   198    49    48    2
   199   189   188    1
   200    47    50    1
   201    47    48    1
   202    47    46    1
   203   237   236    1
   204   238   236    1
   205   188   187    1
   206   188   190    1
   207   236   233    1
   208   187   184    1
   209   183   184    1
   210   233   232    1
   211   233   234    1
   212   184   185    1
   213    45    44   ar
   214    45    43   ar
   215    44    42   ar
   216   235   234    2
   217    43    41   ar
   218   185   186    2
   219    42    39   ar
   220    35    34    2
   221    41    39   ar
   222    41    40   ar
   223    32    33    1
   224    39    37   ar
   225    33    34    1
   226    33    36    1
   227    40    38   ar
   228    37    36    1
   229    37    38   ar
