@<TRIPOS>MOLECULE
tmp/5ufsB01.pdb
 211 199 0 0 0
SMALL
GASTEIGER

@<TRIPOS>ATOM
      1  N         15.3150   45.7820   41.5910 N.3    32  MET32      -0.1245
      2  CA        13.8760   45.9040   41.8020 C.3    32  MET32       0.1570
      3  C         13.1340   46.0610   40.4810 C.2    32  MET32       0.2261
      4  O         12.0580   45.4810   40.2950 O.2    32  MET32      -0.2867
      5  CB        13.5750   47.0840   42.7250 C.3    32  MET32       0.0387
      6  CG        13.9160   46.8230   44.1870 C.3    32  MET32       0.0595
      7  SD        13.5050   48.2020   45.2770 S.3    32  MET32      -0.1393
      8  CE        14.6370   49.4590   44.6910 C.3    32  MET32       0.0692
      9  N         12.9530   42.7170   38.8140 N.3    35  LEU35      -0.1231
     10  CA        12.0090   41.8420   39.5000 C.3    35  LEU35       0.1693
     11  C         10.5680   42.2110   39.1670 C.2    35  LEU35       0.2592
     12  O          9.7210   41.3270   38.9960 O.2    35  LEU35      -0.2718
     13  CB        12.2460   41.8990   41.0100 C.3    35  LEU35       0.0284
     14  CG        13.5520   41.2770   41.5140 C.3    35  LEU35       0.0019
     15  CD1       13.7530   41.5830   42.9910 C.3    35  LEU35       0.0001
     16  CD2       13.5720   39.7760   41.2720 C.3    35  LEU35       0.0001
     17  N         10.2690   43.5090   39.0690 N.am   36  ASN36      -0.1974
     18  CA         8.9120   43.9270   38.7300 C.3    36  ASN36       0.1688
     19  C          8.5330   43.4820   37.3230 C.2    36  ASN36       0.2292
     20  O          7.4000   43.0450   37.0900 O.2    36  ASN36      -0.2864
     21  CB         8.7750   45.4410   38.8670 C.3    36  ASN36       0.1181
     22  CG         8.6120   45.8860   40.3100 C.2    36  ASN36       0.2629
     23  OD1        8.1380   45.1280   41.1560 O.2    36  ASN36      -0.2716
     24  ND2        8.9990   47.1270   40.5960 N.am   36  ASN36      -0.0877
     25  N          9.7540   40.8340   35.7510 N.3    38  LEU38      -0.1231
     26  CA         9.4960   39.4130   35.9480 C.3    38  LEU38       0.1693
     27  C          8.1570   39.1920   36.6390 C.2    38  LEU38       0.2592
     28  O          7.4080   38.2740   36.2830 O.2    38  LEU38      -0.2718
     29  CB        10.6330   38.7960   36.7640 C.3    38  LEU38       0.0284
     30  CG        10.5360   37.3070   37.0950 C.3    38  LEU38       0.0019
     31  CD1       10.6160   36.4700   35.8320 C.3    38  LEU38       0.0001
     32  CD2       11.6310   36.9130   38.0780 C.3    38  LEU38       0.0001
     33  N          7.8350   40.0290   37.6270 N.am   39  GLY39      -0.1957
     34  CA         6.5840   39.8590   38.3470 C.3    39  GLY39       0.1869
     35  C          5.3720   40.0560   37.4580 C.2    39  GLY39       0.2309
     36  O          4.4210   39.2710   37.4960 O.2    39  GLY39      -0.2863
     37  N          4.8350   36.9610   35.4790 N.3    42  GLN42      -0.1245
     38  CA         4.3210   35.8480   36.2750 C.3    42  GLN42       0.1566
     39  C          2.8390   36.0290   36.5810 C.2    42  GLN42       0.2260
     40  O          2.0870   35.0490   36.6340 O.2    42  GLN42      -0.2867
     41  CB         5.1180   35.7150   37.5750 C.3    42  GLN42       0.0367
     42  CG         6.5520   35.2510   37.3940 C.3    42  GLN42       0.0905
     43  CD         7.3270   35.2370   38.7020 C.2    42  GLN42       0.2608
     44  OE1        6.8100   35.6280   39.7500 O.2    42  GLN42      -0.2717
     45  NE2        8.5750   34.7870   38.6460 N.am   42  GLN42      -0.0878
     46  N         -2.5670   38.7830   44.1800 N.3    72  TRP72      -0.1227
     47  CA        -1.4520   38.5070   43.2780 C.3    72  TRP72       0.1737
     48  C         -0.1240   38.4440   44.0280 C.2    72  TRP72       0.2595
     49  O          0.7240   37.5970   43.7250 O.2    72  TRP72      -0.2718
     50  CB        -1.4020   39.5530   42.1610 C.3    72  TRP72       0.0564
     51  CG        -0.9790   40.9310   42.5870 C.ar   72  TRP72       0.0003
     52  CD1       -1.7900   41.9490   43.0010 C.ar   72  TRP72       0.0946
     53  CD2        0.3600   41.4460   42.6230 C.ar   72  TRP72       0.0152
     54  NE1       -1.0380   43.0620   43.2990 N.ar   72  TRP72      -0.2442
     55  CE2        0.2840   42.7780   43.0750 C.ar   72  TRP72       0.0810
     56  CE3        1.6130   40.9080   42.3180 C.ar   72  TRP72       0.0012
     57  CZ2        1.4130   43.5790   43.2290 C.ar   72  TRP72       0.0191
     58  CZ3        2.7350   41.7050   42.4740 C.ar   72  TRP72       0.0001
     59  CH2        2.6270   43.0250   42.9240 C.ar   72  TRP72       0.0015
     60  N          0.0760   39.3160   45.0180 N.am   73  MET73      -0.1979
     61  CA         1.3420   39.2980   45.7490 C.3    73  MET73       0.1605
     62  C          1.5050   38.0050   46.5410 C.2    73  MET73       0.2287
     63  O          2.6010   37.4340   46.5900 O.2    73  MET73      -0.2864
     64  CB         1.4390   40.5080   46.6790 C.3    73  MET73       0.0413
     65  CG         2.7710   40.6130   47.4190 C.3    73  MET73       0.0598
     66  SD         4.1750   41.0110   46.3500 S.3    73  MET73      -0.1393
     67  CE         3.8970   42.7600   46.0830 C.3    73  MET73       0.0692
     68  N          2.5130   35.1930   44.1500 N.3    76  MET76      -0.1230
     69  CA         3.9010   35.2700   43.7080 C.3    76  MET76       0.1702
     70  C          4.8630   34.9120   44.8360 C.2    76  MET76       0.2592
     71  O          5.8460   34.1970   44.6140 O.2    76  MET76      -0.2718
     72  CB         4.1990   36.6700   43.1710 C.3    76  MET76       0.0401
     73  CG         3.3240   37.0870   41.9950 C.3    76  MET76       0.0596
     74  SD         3.4790   36.0060   40.5610 S.3    76  MET76      -0.1393
     75  CE         2.1630   34.8240   40.8400 C.3    76  MET76       0.0692
     76  N          4.5960   35.3930   46.0520 N.am   77  ALA77      -0.1980
     77  CA         5.4830   35.1040   47.1760 C.3    77  ALA77       0.1597
     78  C          5.4210   33.6330   47.5700 C.2    77  ALA77       0.2287
     79  O          6.4380   33.0410   47.9490 O.2    77  ALA77      -0.2864
     80  CB         5.1210   35.9910   48.3660 C.3    77  ALA77       0.0319
     81  N          7.3930   31.7330   44.9530 N.3    80  LEU80      -0.1245
     82  CA         8.8050   31.9680   45.2340 C.3    80  LEU80       0.1561
     83  C          9.2740   31.0970   46.3910 C.2    80  LEU80       0.2260
     84  O         10.3320   30.4600   46.3180 O.2    80  LEU80      -0.2867
     85  CB         9.0320   33.4470   45.5430 C.3    80  LEU80       0.0270
     86  CG        10.4230   33.8430   46.0420 C.3    80  LEU80       0.0019
     87  CD1       11.4860   33.5350   45.0020 C.3    80  LEU80       0.0001
     88  CD2       10.4320   35.3130   46.4080 C.3    80  LEU80       0.0001
     89  N          9.7750   27.5110   45.0260 N.3    83  ARG83      -0.1245
     90  CA        10.9750   27.3730   44.2050 C.3    83  ARG83       0.1563
     91  C         12.2330   27.4150   45.0610 C.2    83  ARG83       0.2260
     92  O         13.1820   26.6580   44.8250 O.2    83  ARG83      -0.2867
     93  CB        11.0240   28.4730   43.1430 C.3    83  ARG83       0.0307
     94  CG         9.9510   28.3670   42.0730 C.3    83  ARG83       0.0489
     95  CD        10.2810   29.2520   40.8780 C.3    83  ARG83       0.2205
     96  NE        10.4270   30.6570   41.2530 N.pl3  83  ARG83      -0.0865
     97  CZ         9.4230   31.5280   41.3210 C.cat  83  ARG83       0.5346
     98  NH1        8.1810   31.1500   41.0440 N.pl3  83  ARG83       0.1354
     99  NH2        9.6600   32.7820   41.6730 N.pl3  83  ARG83       0.1354
    100  N         14.1070   33.6650   42.6790 N.3    95  PHE95      -0.1241
    101  CA        13.1700   34.4270   41.8600 C.3    95  PHE95       0.1605
    102  C         13.0670   33.8320   40.4620 C.2    95  PHE95       0.2264
    103  O         11.9710   33.7210   39.9010 O.2    95  PHE95      -0.2867
    104  CB        13.6060   35.8880   41.7860 C.3    95  PHE95       0.0534
    105  CG        13.4410   36.6380   43.0770 C.ar   95  PHE95      -0.0203
    106  CD1       12.2310   37.2250   43.3990 C.ar   95  PHE95      -0.0042
    107  CD2       14.4970   36.7620   43.9650 C.ar   95  PHE95      -0.0042
    108  CE1       12.0730   37.9190   44.5820 C.ar   95  PHE95      -0.0003
    109  CE2       14.3460   37.4560   45.1490 C.ar   95  PHE95      -0.0003
    110  CZ        13.1320   38.0360   45.4570 C.ar   95  PHE95      -0.0000
    111  N         16.6760   48.7650   50.6440 N.3   110  TYR110     -0.1227
    112  CA        15.3060   48.4300   50.2670 C.3   110  TYR110      0.1736
    113  C         15.0960   46.9310   50.0700 C.2   110  TYR110      0.2595
    114  O         13.9520   46.4740   49.9830 O.2   110  TYR110     -0.2718
    115  CB        14.9030   49.1840   48.9930 C.3   110  TYR110      0.0548
    116  CG        14.9070   50.6900   49.1440 C.ar  110  TYR110     -0.0200
    117  CD1       14.0190   51.3230   50.0050 C.ar  110  TYR110     -0.0009
    118  CD2       15.7920   51.4800   48.4210 C.ar  110  TYR110     -0.0009
    119  CE1       14.0160   52.6960   50.1480 C.ar  110  TYR110      0.0417
    120  CE2       15.7960   52.8560   48.5560 C.ar  110  TYR110      0.0417
    121  CZ        14.9050   53.4580   49.4210 C.ar  110  TYR110      0.1957
    122  OH        14.9030   54.8260   49.5610 O.3   110  TYR110     -0.2866
    123  N         16.1770   46.1510   50.0130 N.am  111  MET111     -0.1979
    124  CA        16.0700   44.7300   49.7000 C.3   111  MET111      0.1605
    125  C         15.9670   43.8510   50.9400 C.2   111  MET111      0.2287
    126  O         15.2060   42.8770   50.9430 O.2   111  MET111     -0.2864
    127  CB        17.2800   44.2800   48.8740 C.3   111  MET111      0.0413
    128  CG        17.3350   44.8350   47.4570 C.3   111  MET111      0.0598
    129  SD        15.9990   44.2640   46.3850 S.3   111  MET111     -0.1393
    130  CE        16.2620   42.4910   46.3830 C.3   111  MET111      0.0692
    131  N         12.5090   42.9730   53.0480 N.3   114  GLN114     -0.1231
    132  CA        11.5110   42.2450   52.2720 C.3   114  GLN114      0.1698
    133  C         11.9900   40.8370   51.9440 C.2   114  GLN114      0.2592
    134  O         11.2020   39.8840   51.9660 O.2   114  GLN114     -0.2718
    135  CB        11.1760   43.0130   50.9940 C.3   114  GLN114      0.0381
    136  CG        10.8690   44.4870   51.2190 C.3   114  GLN114      0.0905
    137  CD         9.9060   44.7190   52.3670 C.2   114  GLN114      0.2608
    138  OE1        8.9920   43.9260   52.5990 O.2   114  GLN114     -0.2717
    139  NE2       10.1130   45.8060   53.1000 N.am  114  GLN114     -0.0878
    140  N         13.2820   40.6790   51.6490 N.am  115  CYS115     -0.1970
    141  CA        13.8010   39.3580   51.3140 C.3   115  CYS115      0.1712
    142  C         13.8300   38.4370   52.5270 C.2   115  CYS115      0.2296
    143  O         13.6230   37.2270   52.3840 O.2   115  CYS115     -0.2864
    144  CB        15.1960   39.4820   50.6990 C.3   115  CYS115      0.0983
    145  SG        15.1890   40.1510   49.0120 S.3   115  CYS115     -0.0798
    146  N         10.4410   36.9320   52.8760 N.3   118  MET118     -0.1245
    147  CA        10.1630   35.8800   51.9070 C.3   118  MET118      0.1570
    148  C         10.9410   34.6020   52.2060 C.2   118  MET118      0.2261
    149  O         10.4650   33.5050   51.8900 O.2   118  MET118     -0.2867
    150  CB        10.4740   36.3820   50.4960 C.3   118  MET118      0.0387
    151  CG         9.4470   37.3760   49.9770 C.3   118  MET118      0.0595
    152  SD         9.7790   37.9900   48.3120 S.3   118  MET118     -0.1393
    153  CE        11.0900   39.1690   48.6160 C.3   118  MET118      0.0692
    154  N          5.1210   43.0960   52.3670 N.3   204  LEU204     -0.1245
    155  CA         5.5690   43.1040   50.9780 C.3   204  LEU204      0.1561
    156  C          4.7350   44.0620   50.1380 C.2   204  LEU204      0.2260
    157  O          5.2730   44.7930   49.2980 O.2   204  LEU204     -0.2867
    158  CB         5.5000   41.6940   50.3930 C.3   204  LEU204      0.0270
    159  CG         6.3510   40.6200   51.0700 C.3   204  LEU204      0.0019
    160  CD1        6.0730   39.2730   50.4180 C.3   204  LEU204      0.0001
    161  CD2        7.8330   40.9620   51.0040 C.3   204  LEU204      0.0001
    162  N          5.3820   47.7770   51.0070 N.3   207  PHE207     -0.1227
    163  CA         6.6230   48.2710   50.4250 C.3   207  PHE207      0.1736
    164  C          6.5140   48.3990   48.9110 C.2   207  PHE207      0.2595
    165  O          7.0970   49.3140   48.3200 O.2   207  PHE207     -0.2718
    166  CB         7.7860   47.3550   50.8000 C.3   207  PHE207      0.0547
    167  CG         9.1200   47.9390   50.4730 C.ar  207  PHE207     -0.0202
    168  CD1        9.6800   47.7560   49.2220 C.ar  207  PHE207     -0.0042
    169  CD2        9.8010   48.6990   51.4060 C.ar  207  PHE207     -0.0042
    170  CE1       10.9000   48.3090   48.9140 C.ar  207  PHE207     -0.0003
    171  CE2       11.0210   49.2520   51.1030 C.ar  207  PHE207     -0.0003
    172  CZ        11.5690   49.0570   49.8560 C.ar  207  PHE207     -0.0000
    173  N          5.7750   47.4940   48.2690 N.am  208  CYS208     -0.1970
    174  CA         5.5280   47.6220   46.8380 C.3   208  CYS208      0.1712
    175  C          4.8370   48.9430   46.5240 C.2   208  CYS208      0.2296
    176  O          5.2440   49.6710   45.6110 O.2   208  CYS208     -0.2864
    177  CB         4.6890   46.4430   46.3500 C.3   208  CYS208      0.0983
    178  SG         4.2480   46.5210   44.6050 S.3   208  CYS208     -0.0798
    179  N          7.4050   51.8960   46.8120 N.3   211  THR211     -0.1218
    180  CA         8.2660   52.0760   45.6490 C.3   211  THR211      0.1862
    181  C          7.4900   52.5300   44.4180 C.2   211  THR211      0.2287
    182  O          8.0760   53.1550   43.5280 O.2   211  THR211     -0.2866
    183  CB         9.0100   50.7750   45.3320 C.3   211  THR211      0.1770
    184  OG1        8.0670   49.7100   45.1500 O.3   211  THR211     -0.2211
    185  CG2        9.9700   50.4160   46.4570 C.3   211  THR211      0.0375
    186  N         12.2680   53.3080   40.3620 N.3   219  VAL219     -0.1245
    187  CA        11.9060   51.9010   40.2290 C.3   219  VAL219      0.1561
    188  C         10.8580   51.7730   39.1320 C.2   219  VAL219      0.2260
    189  O          9.8210   52.4460   39.1650 O.2   219  VAL219     -0.2867
    190  CB        11.3860   51.3370   41.5630 C.3   219  VAL219      0.0252
    191  CG1       10.8940   49.9020   41.3910 C.3   219  VAL219      0.0019
    192  CG2       12.4740   51.4020   42.6240 C.3   219  VAL219      0.0019
    193  N          7.9890   49.8450   36.9080 N.3   221  PHE221     -0.1241
    194  CA         6.9300   48.8570   36.9940 C.3   221  PHE221      0.1605
    195  C          6.3490   48.5960   35.6100 C.2   221  PHE221      0.2264
    196  O          6.1740   49.5380   34.8300 O.2   221  PHE221     -0.2867
    197  CB         5.8020   49.3240   37.9280 C.3   221  PHE221      0.0534
    198  CG         6.1430   49.2380   39.3880 C.ar  221  PHE221     -0.0203
    199  CD1        5.6950   48.1750   40.1530 C.ar  221  PHE221     -0.0042
    200  CD2        6.9030   50.2220   39.9970 C.ar  221  PHE221     -0.0042
    201  CE1        6.0020   48.0920   41.4970 C.ar  221  PHE221     -0.0003
    202  CE2        7.2150   50.1450   41.3400 C.ar  221  PHE221     -0.0003
    203  CZ         6.7630   49.0790   42.0910 C.ar  221  PHE221     -0.0000
    204  N          1.3750   45.5360   36.2620 N.3   225  LEU225     -0.1245
    205  CA         1.3950   45.7880   37.7000 C.3   225  LEU225      0.1561
    206  C          1.0050   47.2240   38.0260 C.2   225  LEU225      0.2260
    207  O          0.3290   47.4710   39.0300 O.2   225  LEU225     -0.2867
    208  CB         2.7790   45.4790   38.2730 C.3   225  LEU225      0.0270
    209  CG         3.2630   44.0300   38.1780 C.3   225  LEU225      0.0019
    210  CD1        4.6500   43.9060   38.7880 C.3   225  LEU225      0.0001
    211  CD2        2.2930   43.0700   38.8550 C.3   225  LEU225      0.0001
@<TRIPOS>BOND
     1   196   195    2
     2    37    38    1
     3   195   194    1
     4    25    26    1
     5    31    30    1
     6    26    27    1
     7    26    29    1
     8   204   205    1
     9    38    39    1
    10    38    41    1
    11    28    27    2
    12    39    40    2
    13    27    33   am
    14    29    30    1
    15   193   194    1
    16   194   197    1
    17    20    19    2
    18    30    32    1
    19    19    18    1
    20    42    41    1
    21    42    43    1
    22    35    36    2
    23    35    34    1
    24    33    34    1
    25   205   206    1
    26   205   208    1
    27   197   198    1
    28   206   207    2
    29   209   208    1
    30   209   210    1
    31   209   211    1
    32    45    43   am
    33    43    44    2
    34    18    21    1
    35    18    17    1
    36     9    10    1
    37    21    22    1
    38    12    11    2
    39    17    11   am
    40   188   189    2
    41   188   187    1
    42    11    10    1
    43   198   200   ar
    44   198   199   ar
    45    10    13    1
    46   103   102    2
    47   200   202   ar
    48   199   201   ar
    49   187   186    1
    50   187   190    1
    51     4     3    2
    52    22    24   am
    53    22    23    2
    54   102   101    1
    55     3     2    1
    56    74    75    1
    57    74    73    1
    58    95    96    1
    59    95    94    1
    60    13    14    1
    61    98    97    1
    62    96    97    2
    63    16    14    1
    64    97    99    1
    65   202   203   ar
    66   191   190    1
    67   201   203   ar
    68    14    15    1
    69   190   192    1
    70     1     2    1
    71   104   101    1
    72   104   105    1
    73     2     5    1
    74   101   100    1
    75    73    72    1
    76    94    93    1
    77    50    51    1
    78    50    47    1
    79    56    58   ar
    80    56    53   ar
    81    58    59   ar
    82    51    53   ar
    83    51    52   ar
    84    53    55   ar
    85     5     6    1
    86    59    57   ar
    87    52    54   ar
    88    55    57   ar
    89    55    54   ar
    90   105   106   ar
    91   105   107   ar
    92    93    90    1
    93    72    69    1
    94    47    48    1
    95    47    46    1
    96   106   108   ar
    97   182   181    2
    98    69    68    1
    99    69    70    1
   100    49    48    2
   101   107   109   ar
   102    48    60   am
   103     6     7    1
   104    90    89    1
   105    90    91    1
   106   181   180    1
   107   108   110   ar
   108   178   177    1
   109    71    70    2
   110     8     7    1
   111    92    91    2
   112    70    76   am
   113    81    82    1
   114    87    86    1
   115    60    61    1
   116   109   110   ar
   117   184   183    1
   118    82    85    1
   119    82    83    1
   120   183   180    1
   121   183   185    1
   122    85    86    1
   123   176   175    2
   124   180   179    1
   125    61    62    1
   126    61    64    1
   127    86    88    1
   128    76    77    1
   129    67    66    1
   130    84    83    2
   131   177   174    1
   132    66    65    1
   133   130   129    1
   134   129   128    1
   135   175   174    1
   136    62    63    2
   137    64    65    1
   138   174   173    1
   139    77    78    1
   140    77    80    1
   141   128   127    1
   142    78    79    2
   143   173   164   am
   144   152   153    1
   145   152   151    1
   146   165   164    2
   147   118   120   ar
   148   118   116   ar
   149   120   121   ar
   150   127   124    1
   151   164   163    1
   152   170   168   ar
   153   170   172   ar
   154   115   116    1
   155   115   112    1
   156   145   144    1
   157   116   117   ar
   158   168   167   ar
   159   157   156    2
   160   121   122    1
   161   121   119   ar
   162   124   123    1
   163   124   125    1
   164   172   171   ar
   165   151   150    1
   166   114   113    2
   167   117   119   ar
   168   123   113   am
   169   113   112    1
   170   156   155    1
   171   112   111    1
   172   158   155    1
   173   158   159    1
   174   160   159    1
   175   163   166    1
   176   163   162    1
   177   167   166    1
   178   167   169   ar
   179   150   147    1
   180   144   141    1
   181   125   126    2
   182   155   154    1
   183   135   136    1
   184   135   132    1
   185   161   159    1
   186   171   169   ar
   187   136   137    1
   188   141   140    1
   189   141   142    1
   190   140   133   am
   191   149   148    2
   192   147   148    1
   193   147   146    1
   194   133   134    2
   195   133   132    1
   196   132   131    1
   197   137   138    2
   198   137   139   am
   199   143   142    2
