@<TRIPOS>MOLECULE
tmp/5ufuA01.pdb
 120 114 0 0 0
SMALL
GASTEIGER

@<TRIPOS>ATOM
      1  N         -5.2790   26.6830  -39.5610 N.3     3  VAL3       -0.1245
      2  CA        -6.3460   27.6800  -39.4900 C.3     3  VAL3        0.1561
      3  C         -6.2890   28.3420  -38.1070 C.2     3  VAL3        0.2260
      4  O         -6.6050   27.7080  -37.0950 O.2     3  VAL3       -0.2867
      5  CB        -7.7250   27.0640  -39.8080 C.3     3  VAL3        0.0252
      6  CG1       -8.8390   28.0930  -39.6800 C.3     3  VAL3        0.0019
      7  CG2       -7.7360   26.4500  -41.1970 C.3     3  VAL3        0.0019
      8  N         -7.1830   26.4560  -34.6790 N.3    10  LEU10      -0.1231
      9  CA        -8.5090   25.8610  -34.5580 C.3    10  LEU10       0.1693
     10  C         -8.3980   24.3670  -34.8400 C.2    10  LEU10       0.2593
     11  O         -7.7110   23.9620  -35.7840 O.2    10  LEU10      -0.2718
     12  CB        -9.5020   26.5040  -35.5360 C.3    10  LEU10       0.0284
     13  CG       -10.0940   27.8290  -35.1290 C.3    10  LEU10       0.0019
     14  CD1      -10.8760   28.4180  -36.2580 C.3    10  LEU10       0.0001
     15  CD2      -10.9900   27.6790  -33.9310 C.3    10  LEU10       0.0001
     16  N         -9.0320   23.5700  -33.9930 N.am   11  GLY11      -0.1942
     17  CA        -9.0140   22.1220  -34.1010 C.3    11  GLY11       0.2014
     18  C        -10.4040   21.5530  -34.1150 C.2    11  GLY11       0.2638
     19  O        -11.3460   22.2340  -34.5160 O.2    11  GLY11      -0.2714
     20  N        -10.5260   20.3100  -33.6380 N.am   12  ASP12      -0.1971
     21  CA       -11.7520   19.5020  -33.5700 C.3    12  ASP12       0.1709
     22  C        -12.9540   20.2230  -32.9330 C.2    12  ASP12       0.2293
     23  O        -12.7860   20.9530  -31.9560 O.2    12  ASP12      -0.2864
     24  CB       -11.4800   18.1860  -32.8120 C.3    12  ASP12       0.1436
     25  CG       -10.2430   17.4260  -33.2750 C.2    12  ASP12       0.3671
     26  OD1      -10.3860   16.5250  -34.1440 O.co2  12  ASP12      -0.2456
     27  OD2       -9.1340   17.7200  -32.7550 O.co2  12  ASP12      -0.2456
     28  N        -26.4170   28.2110  -30.0520 N.3    19  PHE19      -0.1227
     29  CA       -26.3280   28.9770  -31.2930 C.3    19  PHE19       0.1736
     30  C        -25.1120   28.7160  -32.2270 C.2    19  PHE19       0.2596
     31  O        -25.2710   28.8720  -33.4560 O.2    19  PHE19      -0.2718
     32  CB       -26.4370   30.4880  -31.0170 C.3    19  PHE19       0.0547
     33  CG       -27.7080   30.9080  -30.3200 C.ar   19  PHE19      -0.0202
     34  CD1      -28.9500   30.7570  -30.9420 C.ar   19  PHE19      -0.0042
     35  CD2      -27.6660   31.4790  -29.0450 C.ar   19  PHE19      -0.0042
     36  CE1      -30.1250   31.1320  -30.2820 C.ar   19  PHE19      -0.0003
     37  CE2      -28.8410   31.8940  -28.4070 C.ar   19  PHE19      -0.0003
     38  CZ       -30.0590   31.7120  -29.0320 C.ar   19  PHE19      -0.0000
     39  N        -23.9410   28.3640  -31.6860 N.am   20  GLY20      -0.1942
     40  CA       -22.7930   28.1510  -32.5720 C.3    20  GLY20       0.2014
     41  C        -22.0470   26.8310  -32.5070 C.2    20  GLY20       0.2638
     42  O        -22.3920   25.9370  -31.7290 O.2    20  GLY20      -0.2714
     43  N        -21.0200   26.7130  -33.3550 N.am   21  LYS21      -0.1977
     44  CA       -20.0760   25.6020  -33.3760 C.3    21  LYS21       0.1596
     45  C        -19.0420   25.9330  -32.2800 C.2    21  LYS21       0.2287
     46  O        -18.7150   27.1130  -32.0900 O.2    21  LYS21      -0.2864
     47  CB       -19.3330   25.5960  -34.7210 C.3    21  LYS21       0.0298
     48  CG       -19.7060   24.4840  -35.6700 C.3    21  LYS21       0.0038
     49  CD       -19.3450   24.8610  -37.1070 C.3    21  LYS21       0.0206
     50  CE       -18.8310   23.6680  -37.8820 C.3    21  LYS21       0.1093
     51  NZ       -18.3600   24.0210  -39.2550 N.3    21  LYS21      -0.1314
     52  N        -15.1330   24.8520  -31.1590 N.3    23  LYS23      -0.1245
     53  CA       -13.9530   24.0720  -31.5470 C.3    23  LYS23       0.1561
     54  C        -12.7970   24.3020  -30.5820 C.2    23  LYS23       0.2260
     55  O        -12.7750   25.3360  -29.9060 O.2    23  LYS23      -0.2867
     56  CB       -13.5070   24.4420  -32.9640 C.3    23  LYS23       0.0271
     57  CG       -14.5340   24.1630  -34.0450 C.3    23  LYS23       0.0035
     58  CD       -14.0760   24.6910  -35.4020 C.3    23  LYS23       0.0206
     59  CE       -14.6250   23.8710  -36.5290 C.3    23  LYS23       0.1093
     60  NZ       -13.9330   22.5630  -36.6350 N.3    23  LYS23      -0.1314
     61  N        -17.8680   29.7100  -32.3820 N.3    38  ILE38      -0.1231
     62  CA       -18.0480   30.3820  -33.6790 C.3    38  ILE38       0.1692
     63  C        -19.5450   30.6950  -33.8730 C.2    38  ILE38       0.2592
     64  O        -20.3630   29.7880  -33.7570 O.2    38  ILE38      -0.2718
     65  CB       -17.5040   29.5430  -34.8880 C.3    38  ILE38       0.0266
     66  CG1      -16.0780   29.0090  -34.6410 C.3    38  ILE38       0.0019
     67  CG2      -17.6010   30.3230  -36.2330 C.3    38  ILE38       0.0020
     68  CD1      -15.5180   28.0700  -35.8090 C.3    38  ILE38       0.0001
     69  N        -19.8950   31.9570  -34.2060 N.am   39  LEU39      -0.1966
     70  CA       -21.2770   32.3870  -34.4580 C.3    39  LEU39       0.1728
     71  C        -21.3670   33.1020  -35.7960 C.2    39  LEU39       0.2616
     72  O        -20.9120   34.2420  -35.9040 O.2    39  LEU39      -0.2715
     73  CB       -21.7490   33.3460  -33.3620 C.3    39  LEU39       0.0311
     74  CG       -21.9680   32.7660  -31.9940 C.3    39  LEU39       0.0022
     75  CD1      -21.5920   33.7670  -30.9430 C.3    39  LEU39       0.0001
     76  CD2      -23.3910   32.3310  -31.8330 C.3    39  LEU39       0.0001
     77  N        -21.9430   32.4510  -36.8210 N.am   40  ASN40      -0.1972
     78  CA       -22.0830   33.1000  -38.1180 C.3    40  ASN40       0.1688
     79  C        -22.9800   34.3020  -37.9540 C.2    40  ASN40       0.2292
     80  O        -24.0900   34.1740  -37.4400 O.2    40  ASN40      -0.2864
     81  CB       -22.6610   32.1660  -39.1700 C.3    40  ASN40       0.1181
     82  CG       -22.6360   32.7260  -40.5710 C.2    40  ASN40       0.2629
     83  OD1      -22.6890   33.9340  -40.8100 O.2    40  ASN40      -0.2716
     84  ND2      -22.5190   31.8580  -41.5440 N.am   40  ASN40      -0.0877
     85  N        -26.1420   33.8510  -39.9950 N.3    43  LYS43      -0.1231
     86  CA       -27.0170   32.9100  -39.2890 C.3    43  LYS43       0.1693
     87  C        -27.6530   33.5510  -38.0470 C.2    43  LYS43       0.2591
     88  O        -28.8590   33.4120  -37.8820 O.2    43  LYS43      -0.2718
     89  CB       -26.3010   31.5680  -38.9780 C.3    43  LYS43       0.0285
     90  CG       -27.0360   30.6780  -37.9720 C.3    43  LYS43       0.0035
     91  CD       -26.8570   29.1830  -38.1680 C.3    43  LYS43       0.0206
     92  CE       -26.9970   28.4900  -36.8220 C.3    43  LYS43       0.1093
     93  NZ       -27.3090   27.0400  -36.9440 N.3    43  LYS43      -0.1314
     94  N        -26.8660   34.2520  -37.1800 N.am   44  ILE44      -0.1980
     95  CA       -27.4290   34.8920  -35.9760 C.3    44  ILE44       0.1595
     96  C        -28.4270   35.9720  -36.3840 C.2    44  ILE44       0.2287
     97  O        -29.4300   36.1300  -35.7060 O.2    44  ILE44      -0.2864
     98  CB       -26.4490   35.3820  -34.8470 C.3    44  ILE44       0.0276
     99  CG1      -25.4240   36.4310  -35.3190 C.3    44  ILE44       0.0022
    100  CG2      -25.7580   34.2230  -34.1600 C.3    44  ILE44       0.0022
    101  CD1      -25.8450   37.9270  -35.1770 C.3    44  ILE44       0.0001
    102  N        -18.0870   35.8710  -39.4360 N.3    80  ASP80      -0.1239
    103  CA       -18.5200   35.3140  -38.1490 C.3    80  ASP80       0.1674
    104  C        -17.9450   36.0620  -36.9270 C.2    80  ASP80       0.2266
    105  O        -17.2130   37.0370  -37.0700 O.2    80  ASP80      -0.2867
    106  CB       -18.1270   33.8150  -38.0700 C.3    80  ASP80       0.1410
    107  CG       -18.2620   33.0560  -39.3850 C.2    80  ASP80       0.3668
    108  OD1      -19.3880   32.6430  -39.7160 O.co2  80  ASP80      -0.2456
    109  OD2      -17.2440   32.9300  -40.1120 O.co2  80  ASP80      -0.2456
    110  N        -16.1070   35.1660  -33.1430 N.3    82  PHE82      -0.1241
    111  CA       -15.3980   34.0960  -32.4580 C.3    82  PHE82       0.1605
    112  C        -15.3050   34.3930  -30.9880 C.2    82  PHE82       0.2264
    113  O        -14.7760   35.4390  -30.6290 O.2    82  PHE82      -0.2867
    114  CB       -14.0000   33.9180  -33.0640 C.3    82  PHE82       0.0534
    115  CG       -13.9740   33.3710  -34.4710 C.ar   82  PHE82      -0.0203
    116  CD1      -13.9470   32.0020  -34.7000 C.ar   82  PHE82      -0.0042
    117  CD2      -13.9330   34.2250  -35.5640 C.ar   82  PHE82      -0.0042
    118  CE1      -13.8790   31.4970  -35.9940 C.ar   82  PHE82      -0.0003
    119  CE2      -13.8840   33.7170  -36.8590 C.ar   82  PHE82      -0.0003
    120  CZ       -13.8520   32.3560  -37.0660 C.ar   82  PHE82      -0.0000
@<TRIPOS>BOND
     1    84    82   am
     2     7     5    1
     3    83    82    2
     4    82    81    1
     5   109   107   ar
     6    85    86    1
     7     5     6    1
     8     5     2    1
     9   108   107   ar
    10     1     2    1
    11     2     3    1
    12   102   103    1
    13   107   106    1
    14    86    89    1
    15    86    87    1
    16    51    50    1
    17    81    78    1
    18    89    90    1
    19    91    90    1
    20    91    92    1
    21   103   106    1
    22   103   104    1
    23    78    79    1
    24    78    77    1
    25     3     4    2
    26    87    88    2
    27    87    94   am
    28    79    80    2
    29    50    49    1
    30    94    95    1
    31    49    48    1
    32   105   104    2
    33   120   119   ar
    34   120   118   ar
    35    93    92    1
    36   119   117   ar
    37    77    71   am
    38    60    59    1
    39    59    58    1
    40    96    95    1
    41    96    97    2
    42    14    13    1
    43    67    65    1
    44   118   116   ar
    45    95    98    1
    46    72    71    2
    47    68    66    1
    48    71    70    1
    49    11    10    2
    50    48    47    1
    51   117   115   ar
    52    12    13    1
    53    12     9    1
    54    58    57    1
    55    99   101    1
    56    99    98    1
    57    13    15    1
    58    65    66    1
    59    65    62    1
    60    98   100    1
    61    10     9    1
    62    10    16   am
    63    47    44    1
    64   116   115   ar
    65     8     9    1
    66    19    18    2
    67   115   114    1
    68    70    69    1
    69    70    73    1
    70    69    63   am
    71    26    25   ar
    72    18    17    1
    73    18    20   am
    74    17    16    1
    75    57    56    1
    76    63    64    2
    77    63    62    1
    78    62    61    1
    79    20    21    1
    80    21    22    1
    81    21    24    1
    82    31    30    2
    83    44    43    1
    84    44    45    1
    85    73    74    1
    86    43    41   am
    87    25    24    1
    88    25    27   ar
    89   110   111    1
    90   114   111    1
    91    56    53    1
    92    22    23    2
    93    40    41    1
    94    40    39    1
    95    41    42    2
    96   111   112    1
    97    45    46    2
    98    30    39   am
    99    30    29    1
   100    74    76    1
   101    74    75    1
   102    53    52    1
   103    53    54    1
   104    29    32    1
   105    29    28    1
   106    32    33    1
   107   112   113    2
   108    34    33   ar
   109    34    36   ar
   110    54    55    2
   111    33    35   ar
   112    36    38   ar
   113    35    37   ar
   114    38    37   ar
