@<TRIPOS>MOLECULE
tmp/5ufwB00.pdb
 231 220 0 0 0
SMALL
GASTEIGER

@<TRIPOS>ATOM
      1  N         24.2460  -52.2740   13.7530 N.3    35  MET35      -0.1245
      2  CA        23.8940  -51.9040   15.1200 C.3    35  MET35       0.1570
      3  C         24.8090  -52.5970   16.1230 C.2    35  MET35       0.2261
      4  O         25.1110  -52.0460   17.1750 O.2    35  MET35      -0.2867
      5  CB        22.4310  -52.2390   15.4300 C.3    35  MET35       0.0387
      6  CG        21.4430  -51.1780   14.9800 C.3    35  MET35       0.0595
      7  SD        21.9420  -49.5360   15.5180 S.3    35  MET35      -0.1393
      8  CE        21.9190  -49.7310   17.2940 C.3    35  MET35       0.0692
      9  N         27.8900  -50.4570   16.0610 N.3    38  LEU38      -0.1231
     10  CA        27.5830  -49.1750   16.6870 C.3    38  LEU38       0.1693
     11  C         27.4010  -49.3140   18.1970 C.2    38  LEU38       0.2592
     12  O         27.8980  -48.4900   18.9630 O.2    38  LEU38      -0.2718
     13  CB        26.3320  -48.5640   16.0590 C.3    38  LEU38       0.0284
     14  CG        26.4850  -48.2570   14.5680 C.3    38  LEU38       0.0019
     15  CD1       25.2290  -47.6260   14.0000 C.3    38  LEU38       0.0001
     16  CD2       27.6930  -47.3670   14.3400 C.3    38  LEU38       0.0001
     17  N         26.6880  -50.3540   18.6240 N.am   39  THR39      -0.1953
     18  CA        26.4530  -50.5650   20.0510 C.3    39  THR39       0.1897
     19  C         27.7740  -50.7890   20.7820 C.2    39  THR39       0.2313
     20  O         28.0000  -50.2180   21.8520 O.2    39  THR39      -0.2863
     21  CB        25.5120  -51.7620   20.3210 C.3    39  THR39       0.1794
     22  OG1       24.2000  -51.4690   19.8210 O.3    39  THR39      -0.2208
     23  CG2       25.4180  -52.0450   21.8120 C.3    39  THR39       0.0378
     24  N         30.7060  -49.7610   19.9200 N.3    41  LEU41      -0.1231
     25  CA        31.4480  -48.5090   19.8940 C.3    41  LEU41       0.1693
     26  C         30.8880  -47.5380   20.9280 C.2    41  LEU41       0.2592
     27  O         31.6460  -46.9520   21.7050 O.2    41  LEU41      -0.2718
     28  CB        31.3920  -47.9010   18.4900 C.3    41  LEU41       0.0284
     29  CG        32.2630  -46.6930   18.1720 C.3    41  LEU41       0.0019
     30  CD1       33.7420  -47.0450   18.2860 C.3    41  LEU41       0.0001
     31  CD2       31.9300  -46.1980   16.7760 C.3    41  LEU41       0.0001
     32  N         29.5650  -47.3650   20.9360 N.am   42  ALA42      -0.1966
     33  CA        28.9180  -46.4600   21.8900 C.3    42  ALA42       0.1728
     34  C         29.2550  -46.8360   23.3250 C.2    42  ALA42       0.2616
     35  O         29.5540  -45.9710   24.1550 O.2    42  ALA42      -0.2715
     36  CB        27.3960  -46.4580   21.6870 C.3    42  ALA42       0.0334
     37  N         29.2070  -48.1300   23.6130 N.am   43  ASP43      -0.1971
     38  CA        29.4660  -48.6060   24.9680 C.3    43  ASP43       0.1709
     39  C         30.9080  -48.3410   25.3840 C.2    43  ASP43       0.2293
     40  O         31.1650  -48.0280   26.5460 O.2    43  ASP43      -0.2864
     41  CB        29.1530  -50.0980   25.0890 C.3    43  ASP43       0.1436
     42  CG        27.6660  -50.3910   24.9640 C.2    43  ASP43       0.3671
     43  OD1       26.8740  -49.4310   24.8580 O.co2  43  ASP43      -0.2456
     44  OD2       27.2920  -51.5830   24.9780 O.co2  43  ASP43      -0.2456
     45  N         32.7760  -45.8490   24.0450 N.3    45  GLU45      -0.1231
     46  CA        32.8570  -44.3880   24.1010 C.3    45  GLU45       0.1699
     47  C         32.3750  -43.8560   25.4410 C.2    45  GLU45       0.2592
     48  O         32.9120  -42.8750   25.9710 O.2    45  GLU45      -0.2718
     49  CB        32.0190  -43.7580   22.9890 C.3    45  GLU45       0.0402
     50  CG        32.6430  -43.7380   21.6290 C.3    45  GLU45       0.1161
     51  CD        31.9370  -42.7560   20.7030 C.2    45  GLU45       0.3649
     52  OE1       30.9440  -43.1360   20.0320 O.co2  45  GLU45      -0.2457
     53  OE2       32.3660  -41.5940   20.6890 O.co2  45  GLU45      -0.2457
     54  N         31.3340  -44.4930   25.9690 N.am   46  LEU46      -0.1980
     55  CA        30.7260  -44.0680   27.2270 C.3    46  LEU46       0.1596
     56  C         31.7460  -44.0300   28.3610 C.2    46  LEU46       0.2287
     57  O         31.7480  -43.1160   29.1890 O.2    46  LEU46      -0.2864
     58  CB        29.5630  -44.9940   27.5940 C.3    46  LEU46       0.0297
     59  CG        28.8550  -44.6450   28.9040 C.3    46  LEU46       0.0022
     60  CD1       28.1740  -43.2860   28.7940 C.3    46  LEU46       0.0001
     61  CD2       27.8620  -45.7210   29.3100 C.3    46  LEU46       0.0001
     62  N         24.0100  -38.5700   28.3410 N.3    75  TRP75      -0.1227
     63  CA        24.9940  -39.4070   27.6490 C.3    75  TRP75       0.1737
     64  C         24.7500  -39.5140   26.1370 C.2    75  TRP75       0.2595
     65  O         25.7010  -39.4500   25.3570 O.2    75  TRP75      -0.2718
     66  CB        25.0550  -40.8140   28.2800 C.3    75  TRP75       0.0564
     67  CG        23.8400  -41.6480   28.0570 C.ar   75  TRP75       0.0003
     68  CD1       22.7240  -41.6960   28.8470 C.ar   75  TRP75       0.0946
     69  CD2       23.6030  -42.5530   26.9710 C.ar   75  TRP75       0.0152
     70  NE1       21.8050  -42.5690   28.3120 N.ar   75  TRP75      -0.2442
     71  CE2       22.3180  -43.1050   27.1600 C.ar   75  TRP75       0.0810
     72  CE3       24.3420  -42.9320   25.8440 C.ar   75  TRP75       0.0012
     73  CZ2       21.7640  -44.0280   26.2760 C.ar   75  TRP75       0.0191
     74  CZ3       23.7880  -43.8590   24.9650 C.ar   75  TRP75       0.0001
     75  CH2       22.5120  -44.3930   25.1880 C.ar   75  TRP75       0.0015
     76  N         23.4940  -39.6420   25.7120 N.am   76  LEU76      -0.1980
     77  CA        23.2330  -39.8350   24.2830 C.3    76  LEU76       0.1596
     78  C         23.4600  -38.5340   23.5220 C.2    76  LEU76       0.2287
     79  O         24.0280  -38.5390   22.4270 O.2    76  LEU76      -0.2864
     80  CB        21.8150  -40.3550   24.0350 C.3    76  LEU76       0.0297
     81  CG        21.5310  -40.6910   22.5640 C.3    76  LEU76       0.0022
     82  CD1       22.5930  -41.6510   21.9970 C.3    76  LEU76       0.0001
     83  CD2       20.1340  -41.2650   22.4230 C.3    76  LEU76       0.0001
     84  N         27.1990  -38.2690   23.1510 N.3    79  LEU79      -0.1231
     85  CA        27.6440  -39.1570   22.0720 C.3    79  LEU79       0.1693
     86  C         27.3400  -38.5200   20.7290 C.2    79  LEU79       0.2591
     87  O         28.1660  -38.5570   19.8090 O.2    79  LEU79      -0.2718
     88  CB        26.9710  -40.5290   22.1500 C.3    79  LEU79       0.0284
     89  CG        27.4500  -41.5180   23.2180 C.3    79  LEU79       0.0019
     90  CD1       26.7530  -42.8620   23.0250 C.3    79  LEU79       0.0001
     91  CD2       28.9690  -41.6970   23.1810 C.3    79  LEU79       0.0001
     92  N         26.1560  -37.9260   20.6130 N.am   80  MET80      -0.1979
     93  CA        25.7510  -37.3830   19.3330 C.3    80  MET80       0.1605
     94  C         26.5470  -36.1500   18.9410 C.2    80  MET80       0.2287
     95  O         26.9960  -36.0560   17.8020 O.2    80  MET80      -0.2864
     96  CB        24.2600  -37.0740   19.3410 C.3    80  MET80       0.0413
     97  CG        23.4260  -38.3210   19.2000 C.3    80  MET80       0.0598
     98  SD        21.6880  -37.9000   19.2930 S.3    80  MET80      -0.1393
     99  CE        20.9200  -39.4260   18.7460 C.3    80  MET80       0.0692
    100  N         29.9270  -37.1960   17.7530 N.3    83  LEU83      -0.1245
    101  CA        29.8580  -37.7910   16.4250 C.3    83  LEU83       0.1561
    102  C         29.7440  -36.7120   15.3460 C.2    83  LEU83       0.2260
    103  O         30.4060  -36.7710   14.3050 O.2    83  LEU83      -0.2867
    104  CB        28.6720  -38.7530   16.3410 C.3    83  LEU83       0.0270
    105  CG        28.3780  -39.3010   14.9440 C.3    83  LEU83       0.0019
    106  CD1       29.5380  -40.1590   14.4530 C.3    83  LEU83       0.0001
    107  CD2       27.0860  -40.0860   14.9420 C.3    83  LEU83       0.0001
    108  N         33.2140  -34.8600   14.8920 N.3    86  ARG86      -0.1245
    109  CA        34.2530  -35.5310   14.1130 C.3    86  ARG86       0.1563
    110  C         33.8050  -35.8290   12.6750 C.2    86  ARG86       0.2260
    111  O         34.6160  -36.2270   11.8370 O.2    86  ARG86      -0.2867
    112  CB        34.7200  -36.8160   14.8130 C.3    86  ARG86       0.0307
    113  CG        33.6880  -37.9050   15.0260 C.3    86  ARG86       0.0489
    114  CD        34.3670  -39.0680   15.7420 C.3    86  ARG86       0.2205
    115  NE        33.4600  -40.1560   16.0870 N.pl3  86  ARG86      -0.0865
    116  CZ        32.9570  -40.3500   17.3040 C.cat  86  ARG86       0.5346
    117  NH1       33.2570  -39.5190   18.2940 N.pl3  86  ARG86       0.1354
    118  NH2       32.1560  -41.3790   17.5330 N.pl3  86  ARG86       0.1354
    119  N         31.6680  -42.5020   12.5550 N.3    96  PHE96      -0.1241
    120  CA        31.4470  -43.1790   13.8340 C.3    96  PHE96       0.1605
    121  C         32.7900  -43.5710   14.4220 C.2    96  PHE96       0.2264
    122  O         33.0160  -43.4370   15.6200 O.2    96  PHE96      -0.2867
    123  CB        30.5500  -44.4050   13.6730 C.3    96  PHE96       0.0534
    124  CG        29.1010  -44.0720   13.4660 C.ar   96  PHE96      -0.0203
    125  CD1       28.2600  -43.8680   14.5510 C.ar   96  PHE96      -0.0042
    126  CD2       28.5800  -43.9600   12.1880 C.ar   96  PHE96      -0.0042
    127  CE1       26.9240  -43.5670   14.3650 C.ar   96  PHE96      -0.0003
    128  CE2       27.2430  -43.6500   12.0010 C.ar   96  PHE96      -0.0003
    129  CZ        26.4170  -43.4550   13.0900 C.ar   96  PHE96      -0.0000
    130  N         16.4730  -45.9310   10.9580 N.3   113  MET113     -0.1245
    131  CA        17.7870  -45.3450   11.1810 C.3   113  MET113      0.1570
    132  C         18.0520  -44.1080   10.3240 C.2   113  MET113      0.2261
    133  O         18.6660  -43.1450   10.7900 O.2   113  MET113     -0.2867
    134  CB        18.8740  -46.3890   10.9200 C.3   113  MET113      0.0387
    135  CG        20.2770  -45.8270   10.9170 C.3   113  MET113      0.0595
    136  SD        20.8660  -45.5060   12.5780 S.3   113  MET113     -0.1393
    137  CE        21.2050  -47.1740   13.1200 C.3   113  MET113      0.0692
    138  N         17.2490  -40.6610   11.6830 N.3   116  ILE116     -0.1231
    139  CA        18.1650  -40.1060   12.6690 C.3   116  ILE116      0.1692
    140  C         19.4990  -39.7600   12.0160 C.2   116  ILE116      0.2592
    141  O         20.1040  -38.7340   12.3430 O.2   116  ILE116     -0.2718
    142  CB        18.3480  -41.0650   13.8550 C.3   116  ILE116      0.0266
    143  CG1       17.1170  -40.9760   14.7560 C.3   116  ILE116      0.0019
    144  CG2       19.5670  -40.6950   14.6780 C.3   116  ILE116      0.0020
    145  CD1       16.3370  -42.2420   14.8270 C.3   116  ILE116      0.0001
    146  N         19.9430  -40.5970   11.0780 N.am  117  PHE117     -0.1976
    147  CA        21.1210  -40.2850   10.2790 C.3   117  PHE117      0.1639
    148  C         21.0030  -38.8920    9.6480 C.2   117  PHE117      0.2290
    149  O         21.9230  -38.0800    9.7380 O.2   117  PHE117     -0.2864
    150  CB        21.3340  -41.3470    9.1860 C.3   117  PHE117      0.0560
    151  CG        22.3800  -42.3800    9.5270 C.ar  117  PHE117     -0.0200
    152  CD1       22.4430  -42.9380   10.7920 C.ar  117  PHE117     -0.0042
    153  CD2       23.2900  -42.8020    8.5710 C.ar  117  PHE117     -0.0042
    154  CE1       23.4050  -43.8910   11.1030 C.ar  117  PHE117     -0.0003
    155  CE2       24.2490  -43.7520    8.8740 C.ar  117  PHE117     -0.0003
    156  CZ        24.3050  -44.3010   10.1390 C.ar  117  PHE117     -0.0000
    157  N         21.4600  -36.0700   12.1000 N.3   120  LEU120     -0.1245
    158  CA        22.8520  -35.9430   12.4910 C.3   120  LEU120      0.1561
    159  C         23.6580  -35.2730   11.3850 C.2   120  LEU120      0.2260
    160  O         24.4620  -34.3830   11.6480 O.2   120  LEU120     -0.2867
    161  CB        23.4280  -37.3140   12.8300 C.3   120  LEU120      0.0270
    162  CG        22.8950  -37.9080   14.1370 C.3   120  LEU120      0.0019
    163  CD1       23.1210  -39.4050   14.1680 C.3   120  LEU120      0.0001
    164  CD2       23.5450  -37.2340   15.3430 C.3   120  LEU120      0.0001
    165  N         16.2620  -40.4800   19.0000 N.3   204  GLY204     -0.1225
    166  CA        17.2040  -41.5840   19.0080 C.3   204  GLY204      0.1811
    167  C         16.8560  -42.5850   20.0900 C.2   204  GLY204      0.2280
    168  O         16.9250  -43.7950   19.8720 O.2   204  GLY204     -0.2866
    169  N         13.9850  -44.5810   18.9850 N.3   207  HIS207     -0.1226
    170  CA        14.4110  -45.5250   17.9600 C.3   207  HIS207      0.1752
    171  C         15.1440  -46.7140   18.5800 C.2   207  HIS207      0.2595
    172  O         14.8870  -47.8680   18.2250 O.2   207  HIS207     -0.2718
    173  CB        15.3000  -44.8180   16.9390 C.3   207  HIS207      0.0759
    174  CG        15.7880  -45.7050   15.8390 C.ar  207  HIS207      0.0818
    175  ND1       17.0940  -45.6880   15.3970 N.ar  207  HIS207     -0.2268
    176  CD2       15.1460  -46.6270   15.0820 C.ar  207  HIS207      0.1154
    177  CE1       17.2350  -46.5610   14.4170 C.ar  207  HIS207      0.1986
    178  NE2       16.0690  -47.1490   14.2090 N.ar  207  HIS207     -0.2212
    179  N         16.0470  -46.4310   19.5200 N.am  208  LEU208     -0.1980
    180  CA        16.8070  -47.4900   20.1720 C.3   208  LEU208      0.1596
    181  C         15.8720  -48.4100   20.9570 C.2   208  LEU208      0.2287
    182  O         16.0200  -49.6280   20.9170 O.2   208  LEU208     -0.2864
    183  CB        17.8790  -46.8990   21.0900 C.3   208  LEU208      0.0297
    184  CG        19.0330  -46.1820   20.3840 C.3   208  LEU208      0.0022
    185  CD1       19.9310  -45.5080   21.3970 C.3   208  LEU208      0.0001
    186  CD2       19.8390  -47.1690   19.5400 C.3   208  LEU208      0.0001
    187  N         19.2660  -53.9600   26.5930 N.3   215  ASN215     -0.1225
    188  CA        19.1510  -52.7150   27.3580 C.3   215  ASN215      0.1785
    189  C         19.3760  -51.4990   26.4590 C.2   215  ASN215      0.2597
    190  O         19.8930  -51.6370   25.3520 O.2   215  ASN215     -0.2718
    191  CB        20.1600  -52.6840   28.5210 C.3   215  ASN215      0.1169
    192  CG        20.0700  -53.8980   29.4350 C.2   215  ASN215      0.2627
    193  OD1       20.9650  -54.1350   30.2450 O.2   215  ASN215     -0.2716
    194  ND2       18.9540  -54.6070   29.3820 N.am  215  ASN215     -0.0877
    195  N         18.9930  -50.3110   26.9260 N.am  216  VAL216     -0.1966
    196  CA        19.3270  -49.0850   26.1980 C.3   216  VAL216      0.1727
    197  C         20.1300  -48.1090   27.0580 C.2   216  VAL216      0.2616
    198  O         21.2210  -47.6850   26.6680 O.2   216  VAL216     -0.2715
    199  CB        18.0770  -48.3510   25.6750 C.3   216  VAL216      0.0290
    200  CG1       18.4790  -47.0140   25.0660 C.3   216  VAL216      0.0023
    201  CG2       17.3440  -49.2040   24.6440 C.3   216  VAL216      0.0023
    202  N         19.5920  -47.7420   28.2170 N.am  217  VAL217     -0.1964
    203  CA        20.2640  -46.7710   29.0750 C.3   217  VAL217      0.1712
    204  C         21.2720  -47.4590   29.9900 C.2   217  VAL217      0.2458
    205  O         21.0530  -48.5880   30.4360 O.2   217  VAL217     -0.2730
    206  CB        19.2650  -45.9620   29.9350 C.3   217  VAL217      0.0289
    207  CG1       18.3270  -45.1670   29.0480 C.3   217  VAL217      0.0023
    208  CG2       18.4830  -46.8780   30.8580 C.3   217  VAL217      0.0023
    209  N         22.4030  -46.7880   30.2470 N.am  218  PRO218     -0.2727
    210  CA        23.3360  -47.3050   31.2500 C.3   218  PRO218      0.1402
    211  C         22.7240  -47.2050   32.6380 C.2   218  PRO218      0.2269
    212  O         22.1320  -46.1840   32.9730 O.2   218  PRO218     -0.2865
    213  CB        24.5540  -46.3860   31.1110 C.3   218  PRO218      0.0296
    214  CG        23.9990  -45.1120   30.5640 C.3   218  PRO218      0.0237
    215  CD        22.8450  -45.5050   29.6750 C.3   218  PRO218      0.0939
    216  N         26.1520  -48.9190   36.8240 N.3   222  LEU222     -0.1245
    217  CA        27.2000  -48.9210   35.8100 C.3   222  LEU222      0.1561
    218  C         27.9270  -47.5750   35.7800 C.2   222  LEU222      0.2260
    219  O         29.1620  -47.5250   35.7930 O.2   222  LEU222     -0.2867
    220  CB        26.6200  -49.2290   34.4330 C.3   222  LEU222      0.0270
    221  CG        27.6350  -49.1420   33.3010 C.3   222  LEU222      0.0019
    222  CD1       28.6780  -50.2410   33.4180 C.3   222  LEU222      0.0001
    223  CD2       26.9370  -49.1970   31.9430 C.3   222  LEU222      0.0001
    224  N         31.8630  -46.6580   36.8540 N.3   226  MET226     -0.1245
    225  CA        32.7760  -45.9760   35.9400 C.3   226  MET226      0.1570
    226  C         33.3400  -44.7020   36.5670 C.2   226  MET226      0.2261
    227  O         34.4770  -44.3170   36.2880 O.2   226  MET226     -0.2867
    228  CB        32.0790  -45.6330   34.6260 C.3   226  MET226      0.0387
    229  CG        31.7440  -46.8230   33.7460 C.3   226  MET226      0.0595
    230  SD        30.9530  -46.2490   32.2230 S.3   226  MET226     -0.1393
    231  CE        30.5530  -47.8010   31.4350 C.3   226  MET226      0.0692
@<TRIPOS>BOND
     1   153   155   ar
     2   153   151   ar
     3   155   156   ar
     4   150   151    1
     5   150   147    1
     6   151   152   ar
     7   148   149    2
     8   148   147    1
     9   156   154   ar
    10   147   146    1
    11   132   133    2
    12   132   131    1
    13   152   154   ar
    14   135   134    1
    15   135   136    1
    16   134   131    1
    17   130   131    1
    18   146   140   am
    19   159   160    2
    20   159   158    1
    21   138   139    1
    22   111   110    2
    23   128   126   ar
    24   128   129   ar
    25   140   141    2
    26   140   139    1
    27   157   158    1
    28   126   124   ar
    29   158   161    1
    30   119   120    1
    31   136   137    1
    32   139   142    1
    33   110   109    1
    34   161   162    1
    35   129   127   ar
    36   124   123    1
    37   124   125   ar
    38   123   120    1
    39     1     2    1
    40   120   121    1
    41   142   144    1
    42   142   143    1
    43    15    14    1
    44   109   112    1
    45   109   108    1
    46   162   163    1
    47   162   164    1
    48   178   177   ar
    49   178   176   ar
    50   103   102    2
    51    16    14    1
    52   127   125   ar
    53   177   175   ar
    54   121   122    2
    55   106   105    1
    56    14    13    1
    57   143   145    1
    58   112   113    1
    59   107   105    1
    60   105   104    1
    61     6     5    1
    62     6     7    1
    63   113   114    1
    64   176   174   ar
    65     2     5    1
    66     2     3    1
    67   102   101    1
    68   175   174   ar
    69     7     8    1
    70   114   115    1
    71   174   173    1
    72    13    10    1
    73     9    10    1
    74   115   116    2
    75     3     4    2
    76   104   101    1
    77   101   100    1
    78    10    11    1
    79    31    29    1
    80   173   170    1
    81   116   118    1
    82   116   117    1
    83    95    94    2
    84   170   171    1
    85   170   169    1
    86    29    30    1
    87    29    28    1
    88    11    17   am
    89    11    12    2
    90   172   171    2
    91    28    25    1
    92   171   179   am
    93    17    18    1
    94    99    98    1
    95    94    93    1
    96   165   166    1
    97   166   167    1
    98    97    98    1
    99    97    96    1
   100    93    96    1
   101    93    92    1
   102   179   180    1
   103   186   184    1
   104    87    86    2
   105    22    21    1
   106   168   167    2
   107    25    24    1
   108    25    26    1
   109    52    51   ar
   110    18    21    1
   111    18    19    1
   112   180   181    1
   113   180   183    1
   114    21    23    1
   115   184   183    1
   116   184   185    1
   117    92    86   am
   118    53    51   ar
   119    51    50    1
   120    86    85    1
   121    19    20    2
   122   182   181    2
   123    26    32   am
   124    26    27    2
   125    32    33    1
   126    50    49    1
   127    36    33    1
   128    33    34    1
   129    82    81    1
   130    85    88    1
   131    85    84    1
   132    88    89    1
   133    83    81    1
   134    79    78    2
   135    81    80    1
   136    49    46    1
   137    90    89    1
   138    91    89    1
   139    34    37   am
   140    34    35    2
   141    78    77    1
   142    37    38    1
   143    80    77    1
   144    45    46    1
   145    46    47    1
   146    77    76    1
   147   201   199    1
   148    43    42   ar
   149    42    44   ar
   150    42    41    1
   151    74    75   ar
   152    74    72   ar
   153    38    41    1
   154    38    39    1
   155   200   199    1
   156    75    73   ar
   157   190   189    2
   158    65    64    2
   159    39    40    2
   160    47    54   am
   161    47    48    2
   162   199   196    1
   163    76    64   am
   164    72    69   ar
   165    54    55    1
   166    64    63    1
   167   196   195    1
   168   196   197    1
   169    73    71   ar
   170   189   195   am
   171   189   188    1
   172   187   188    1
   173   198   197    2
   174    69    71   ar
   175    69    67   ar
   176   197   202   am
   177    71    70   ar
   178    55    58    1
   179    55    56    1
   180   188   191    1
   181    58    59    1
   182    63    66    1
   183    63    62    1
   184    67    66    1
   185    67    68   ar
   186   202   203    1
   187    70    68   ar
   188    56    57    2
   189   191   192    1
   190    60    59    1
   191    59    61    1
   192   207   206    1
   193   203   206    1
   194   203   204    1
   195   194   192   am
   196   192   193    2
   197   215   209    1
   198   215   214    1
   199   206   208    1
   200   204   209   am
   201   204   205    2
   202   209   210    1
   203   214   213    1
   204   213   210    1
   205   210   211    1
   206   231   230    1
   207   223   221    1
   208   230   229    1
   209   211   212    2
   210   221   222    1
   211   221   220    1
   212   229   228    1
   213   220   217    1
   214   228   225    1
   215   218   219    2
   216   218   217    1
   217   217   216    1
   218   225   226    1
   219   225   224    1
   220   227   226    2
