@<TRIPOS>MOLECULE
tmp/5ufzB00.pdb
 101 95 0 0 0
SMALL
GASTEIGER

@<TRIPOS>ATOM
      1  N         27.9440   11.5740   16.6560 N.3    23  LEU23      -0.1245
      2  CA        26.9500   11.9770   15.6760 C.3    23  LEU23       0.1561
      3  C         26.6950   13.4800   15.7680 C.2    23  LEU23       0.2260
      4  O         26.3980   13.9920   16.8490 O.2    23  LEU23      -0.2867
      5  CB        25.6610   11.2130   15.9670 C.3    23  LEU23       0.0270
      6  CG        24.4280   11.4400   15.1000 C.3    23  LEU23       0.0019
      7  CD1       24.6870   10.9020   13.7120 C.3    23  LEU23       0.0001
      8  CD2       23.2240   10.7480   15.7470 C.3    23  LEU23       0.0001
      9  N         24.4500   16.3760   15.7420 N.3    25  ASP25      -0.1239
     10  CA        23.0460   16.2540   16.1170 C.3    25  ASP25       0.1674
     11  C         22.4070   17.6230   16.3370 C.2    25  ASP25       0.2266
     12  O         22.3920   18.1570   17.4480 O.2    25  ASP25      -0.2867
     13  CB        22.9400   15.3900   17.3830 C.3    25  ASP25       0.1410
     14  CG        21.5140   14.9880   17.7140 C.2    25  ASP25       0.3668
     15  OD1       20.5610   15.4500   17.0460 O.co2  25  ASP25      -0.2456
     16  OD2       21.3530   14.1990   18.6730 O.co2  25  ASP25      -0.2456
     17  N         19.4190   18.3370   16.5520 N.3    27  GLY27      -0.1210
     18  CA        18.2370   18.2480   17.3980 C.3    27  GLY27       0.1956
     19  C         18.5620   18.1370   18.8820 C.2    27  GLY27       0.2612
     20  O         17.6590   18.0130   19.7220 O.2    27  GLY27      -0.2717
     21  N         19.8480   18.1920   19.2090 N.am   28  ALA28      -0.1965
     22  CA        20.2830   18.1390   20.6020 C.3    28  ALA28       0.1728
     23  C         20.7580   19.5190   21.0480 C.2    28  ALA28       0.2616
     24  O         21.6290   20.1100   20.4060 O.2    28  ALA28      -0.2715
     25  CB        21.4140   17.1220   20.7440 C.3    28  ALA28       0.0334
     26  N         20.1970   20.0400   22.1400 N.am   29  ASP29      -0.1957
     27  CA        20.7170   21.2750   22.7290 C.3    29  ASP29       0.1840
     28  C         22.1240   21.0510   23.2690 C.2    29  ASP29       0.2622
     29  O         22.9980   21.9360   23.1880 O.2    29  ASP29      -0.2715
     30  CB        19.8650   21.7140   23.9220 C.3    29  ASP29       0.1450
     31  CG        18.4240   22.0530   23.5570 C.2    29  ASP29       0.3671
     32  OD1       18.0970   22.1890   22.3590 O.co2  29  ASP29      -0.2456
     33  OD2       17.6190   22.2060   24.5140 O.co2  29  ASP29      -0.2456
     34  N         22.3230   19.8660   23.8440 N.am   30  ASP30      -0.1971
     35  CA        23.5250   19.5420   24.6050 C.3    30  ASP30       0.1709
     36  C         24.2930   18.4020   23.9730 C.2    30  ASP30       0.2293
     37  O         23.7410   17.5820   23.2390 O.2    30  ASP30      -0.2864
     38  CB        23.1570   19.1080   26.0370 C.3    30  ASP30       0.1436
     39  CG        22.3270   20.1340   26.7730 C.2    30  ASP30       0.3671
     40  OD1       22.6010   21.3420   26.6270 O.co2  30  ASP30      -0.2456
     41  OD2       21.4030   19.7270   27.5160 O.co2  30  ASP30      -0.2456
     42  N         26.0940   14.9400   24.5280 N.3    32  VAL32      -0.1245
     43  CA        25.9530   13.8320   25.4660 C.3    32  VAL32       0.1561
     44  C         26.8530   12.6910   25.0220 C.2    32  VAL32       0.2260
     45  O         26.7480   12.2010   23.8900 O.2    32  VAL32      -0.2867
     46  CB        24.4920   13.3320   25.5690 C.3    32  VAL32       0.0252
     47  CG1       24.3760   12.2790   26.6820 C.3    32  VAL32       0.0019
     48  CG2       23.5420   14.4950   25.8540 C.3    32  VAL32       0.0019
     49  N         17.9010   15.9930   31.7150 N.3    47  ILE47      -0.1231
     50  CA        17.6060   16.2520   30.3140 C.3    47  ILE47       0.1692
     51  C         16.4320   15.3820   29.9020 C.2    47  ILE47       0.2593
     52  O         16.1700   14.3550   30.5300 O.2    47  ILE47      -0.2718
     53  CB        18.8390   16.0350   29.3860 C.3    47  ILE47       0.0266
     54  CG1       19.3460   14.5910   29.4380 C.3    47  ILE47       0.0019
     55  CG2       19.9680   17.0200   29.7560 C.3    47  ILE47       0.0020
     56  CD1       20.5100   14.3060   28.4920 C.3    47  ILE47       0.0001
     57  N         15.7230   15.7990   28.8600 N.am   48  GLY48      -0.1942
     58  CA        14.5830   15.0380   28.3850 C.3    48  GLY48       0.2014
     59  C         14.7950   14.5960   26.9530 C.2    48  GLY48       0.2639
     60  O         14.9060   15.4340   26.0590 O.2    48  GLY48      -0.2714
     61  N         14.8480   13.2860   26.7400 N.am   49  GLY49      -0.1939
     62  CA        15.0290   12.7480   25.4040 C.3    49  GLY49       0.2014
     63  C         13.7360   12.1480   24.8890 C.2    49  GLY49       0.2638
     64  O         12.6660   12.3820   25.4560 O.2    49  GLY49      -0.2714
     65  N         13.8280   11.3700   23.8150 N.am   50  ILE50      -0.1977
     66  CA        12.6220   10.8540   23.1840 C.3    50  ILE50       0.1596
     67  C         11.8530    9.9210   24.1210 C.2    50  ILE50       0.2287
     68  O         10.6200    9.8410   24.0520 O.2    50  ILE50      -0.2864
     69  CB        12.9180   10.1600   21.8350 C.3    50  ILE50       0.0276
     70  CG1       11.6230   10.0430   21.0150 C.3    50  ILE50       0.0022
     71  CG2       13.5630    8.7900   22.0640 C.3    50  ILE50       0.0022
     72  CD1       11.8190   10.0810   19.5190 C.3    50  ILE50       0.0001
     73  N         23.3460    6.9940   26.3930 N.3    80  THR80      -0.1204
     74  CA        22.9330    7.4550   25.0840 C.3    80  THR80       0.1979
     75  C         23.2840    6.3780   24.0720 C.2    80  THR80       0.2460
     76  O         24.2910    5.6770   24.2390 O.2    80  THR80      -0.2732
     77  CB        23.6430    8.7770   24.7320 C.3    80  THR80       0.1783
     78  OG1       23.2780    9.1640   23.4040 O.3    80  THR80      -0.2211
     79  CG2       25.1630    8.6150   24.8130 C.3    80  THR80       0.0376
     80  N         22.4550    6.2180   23.0250 N.am   81  PRO81      -0.2717
     81  CA        22.7540    5.2210   21.9940 C.3    81  PRO81       0.1535
     82  C         24.1070    5.4650   21.3340 C.2    81  PRO81       0.2598
     83  O         24.7560    4.5270   20.8940 O.2    81  PRO81      -0.2715
     84  CB        21.6360    5.4370   20.9630 C.3    81  PRO81       0.0310
     85  CG        20.5340    6.0400   21.7360 C.3    81  PRO81       0.0237
     86  CD        21.1770    6.9080   22.7700 C.3    81  PRO81       0.0939
     87  N         24.5250    6.7240   21.2530 N.am   82  VAL82      -0.1978
     88  CA        25.7880    7.0670   20.6240 C.3    82  VAL82       0.1596
     89  C         26.1830    8.4420   21.1410 C.2    82  VAL82       0.2287
     90  O         25.3120    9.2250   21.5300 O.2    82  VAL82      -0.2864
     91  CB        25.6560    7.0970   19.0670 C.3    82  VAL82       0.0276
     92  CG1       24.6510    8.1660   18.6280 C.3    82  VAL82       0.0022
     93  CG2       27.0020    7.3130   18.3870 C.3    82  VAL82       0.0022
     94  N         26.6560   12.1060   21.0430 N.3    84  ILE84      -0.1245
     95  CA        26.0400   13.1340   20.2060 C.3    84  ILE84       0.1561
     96  C         26.6610   14.4940   20.4540 C.2    84  ILE84       0.2260
     97  O         26.8510   14.9070   21.5970 O.2    84  ILE84      -0.2867
     98  CB        24.5010   13.2100   20.3640 C.3    84  ILE84       0.0252
     99  CG1       24.1050   13.4440   21.8180 C.3    84  ILE84       0.0019
    100  CG2       23.8420   11.9280   19.8500 C.3    84  ILE84       0.0019
    101  CD1       22.5750   13.5130   22.0230 C.3    84  ILE84       0.0001
@<TRIPOS>BOND
     1     7     6    1
     2     6     8    1
     3     6     5    1
     4     2     3    1
     5     2     5    1
     6     2     1    1
     7     9    10    1
     8     3     4    2
     9    10    11    1
    10    10    13    1
    11    11    12    2
    12    17    18    1
    13    15    14   ar
    14    13    14    1
    15    18    19    1
    16    14    16   ar
    17    93    91    1
    18    92    91    1
    19    19    21   am
    20    19    20    2
    21    91    88    1
    22    21    22    1
    23    72    70    1
    24   100    98    1
    25    95    98    1
    26    95    96    1
    27    95    94    1
    28    98    99    1
    29    24    23    2
    30    96    97    2
    31    22    25    1
    32    22    23    1
    33    88    89    1
    34    88    87    1
    35    83    82    2
    36    84    85    1
    37    84    81    1
    38    70    69    1
    39    23    26   am
    40    89    90    2
    41    87    82   am
    42    82    81    1
    43    85    86    1
    44    99   101    1
    45    69    71    1
    46    69    66    1
    47    81    80    1
    48    26    27    1
    49    32    31   ar
    50    27    28    1
    51    27    30    1
    52    86    80    1
    53    80    75   am
    54    66    65    1
    55    66    67    1
    56    29    28    2
    57    37    36    2
    58    28    34   am
    59    78    77    1
    60    31    30    1
    61    31    33   ar
    62    65    63   am
    63    34    35    1
    64    45    44    2
    65    36    35    1
    66    68    67    2
    67    75    76    2
    68    75    74    1
    69    42    43    1
    70    35    38    1
    71    77    79    1
    72    77    74    1
    73    63    62    1
    74    63    64    2
    75    44    43    1
    76    74    73    1
    77    62    61    1
    78    43    46    1
    79    46    48    1
    80    46    47    1
    81    38    39    1
    82    60    59    2
    83    40    39   ar
    84    61    59   am
    85    39    41   ar
    86    59    58    1
    87    58    57    1
    88    56    54    1
    89    57    51   am
    90    53    54    1
    91    53    55    1
    92    53    50    1
    93    51    50    1
    94    51    52    2
    95    50    49    1
