@<TRIPOS>MOLECULE
tmp/5ug2A01.pdb
 117 115 0 0 0
SMALL
GASTEIGER

@<TRIPOS>ATOM
      1  N         15.3030  -63.7220  105.1400 N.3   171  ALA171     -0.1231
      2  CA        15.9560  -64.6210  106.0990 C.3   171  ALA171      0.1694
      3  C         16.6040  -65.8210  105.4010 C.2   171  ALA171      0.2592
      4  O         17.4670  -66.4790  105.9740 O.2   171  ALA171     -0.2718
      5  CB        14.9680  -65.0910  107.1560 C.3   171  ALA171      0.0304
      6  N         16.2050  -66.1090  104.1650 N.am  172  HIS172     -0.1962
      7  CA        16.8210  -67.1950  103.3990 C.3   172  HIS172      0.1787
      8  C         18.2520  -66.9280  102.9300 C.2   172  HIS172      0.2620
      9  O         18.8690  -67.7900  102.3180 O.2   172  HIS172     -0.2715
     10  CB        15.9240  -67.6260  102.2420 C.3   172  HIS172      0.0785
     11  CG        14.8660  -68.5790  102.6760 C.ar  172  HIS172      0.0821
     12  ND1       13.9980  -69.1930  101.8020 N.ar  172  HIS172     -0.2267
     13  CD2       14.5600  -69.0560  103.9030 C.ar  172  HIS172      0.1154
     14  CE1       13.1960  -69.9950  102.4740 C.ar  172  HIS172      0.1986
     15  NE2       13.5180  -69.9260  103.7480 N.ar  172  HIS172     -0.2212
     16  N         18.7900  -65.7620  103.2600 N.am  173  ALA173     -0.1963
     17  CA        20.2300  -65.5540  103.1620 C.3   173  ALA173      0.1728
     18  C         20.9760  -66.3670  104.2260 C.2   173  ALA173      0.2616
     19  O         22.1570  -66.6700  104.0690 O.2   173  ALA173     -0.2715
     20  CB        20.5560  -64.0870  103.3270 C.3   173  ALA173      0.0334
     21  N         20.2850  -66.7160  105.3050 N.am  174  LEU174     -0.1963
     22  CA        20.9110  -67.3810  106.4390 C.3   174  LEU174      0.1728
     23  C         20.9340  -68.8990  106.3050 C.2   174  LEU174      0.2617
     24  O         20.0210  -69.4940  105.7400 O.2   174  LEU174     -0.2715
     25  CB        20.1340  -67.0520  107.7090 C.3   174  LEU174      0.0311
     26  CG        19.9630  -65.5730  108.0650 C.3   174  LEU174      0.0022
     27  CD1       18.9300  -65.4350  109.2000 C.3   174  LEU174      0.0001
     28  CD2       21.3010  -64.9320  108.4400 C.3   174  LEU174      0.0001
     29  N         21.9530  -69.5230  106.8850 N.am  175  GLY175     -0.1940
     30  CA        22.0070  -70.9660  106.9930 C.3   175  GLY175      0.2014
     31  C         22.0630  -71.6360  105.6340 C.2   175  GLY175      0.2639
     32  O         22.6740  -71.1130  104.7010 O.2   175  GLY175     -0.2714
     33  N         21.4270  -72.8000  105.5150 N.am  176  LYS176     -0.1963
     34  CA        21.4230  -73.5430  104.2570 C.3   176  LYS176      0.1728
     35  C         20.3330  -74.6010  104.2940 C.2   176  LYS176      0.2616
     36  O         19.7710  -74.8940  105.3520 O.2   176  LYS176     -0.2715
     37  CB        22.7780  -74.2140  104.0320 C.3   176  LYS176      0.0311
     38  CG        23.1200  -75.3040  105.0570 C.3   176  LYS176      0.0038
     39  CD        24.5200  -75.8680  104.8480 C.3   176  LYS176      0.0206
     40  CE        24.6260  -76.6510  103.5500 C.3   176  LYS176      0.1093
     41  NZ        23.8700  -77.9390  103.5760 N.3   176  LYS176     -0.1314
     42  N         20.0350  -75.1750  103.1360 N.am  177  THR177     -0.1951
     43  CA        19.1820  -76.3530  103.0670 C.3   177  THR177      0.1897
     44  C         20.0220  -77.6000  103.3570 C.2   177  THR177      0.2313
     45  O         21.2280  -77.6230  103.0970 O.2   177  THR177     -0.2863
     46  CB        18.4910  -76.4790  101.6890 C.3   177  THR177      0.1794
     47  OG1       19.4700  -76.5320  100.6440 O.3   177  THR177     -0.2208
     48  CG2       17.5640  -75.2920  101.4370 C.3   177  THR177      0.0378
     49  N         22.2750  -77.4540   99.1110 N.3   186  GLY186     -0.1210
     50  CA        23.2450  -76.5780   98.4770 C.3   186  GLY186      0.1956
     51  C         23.2150  -75.1060   98.8120 C.2   186  GLY186      0.2612
     52  O         22.7390  -74.7110   99.8700 O.2   186  GLY186     -0.2717
     53  N         23.7570  -74.2930   97.9100 N.am  187  GLY187     -0.1942
     54  CA        23.6910  -72.8500   98.0520 C.3   187  GLY187      0.2014
     55  C         24.6710  -72.2610   99.0460 C.2   187  GLY187      0.2639
     56  O         24.5260  -71.1170   99.4760 O.2   187  GLY187     -0.2714
     57  N         25.6890  -73.0300   99.4010 N.am  188  GLY188     -0.1939
     58  CA        26.6660  -72.5270  100.3380 C.3   188  GLY188      0.2014
     59  C         25.9660  -72.2620  101.6560 C.2   188  GLY188      0.2639
     60  O         25.0160  -72.9700  102.0090 O.2   188  GLY188     -0.2714
     61  N         26.3930  -71.2220  102.3660 N.am  189  ALA189     -0.1963
     62  CA        26.0190  -71.0830  103.7630 C.3   189  ALA189      0.1728
     63  C         26.5080  -69.7650  104.3360 C.2   189  ALA189      0.2616
     64  O         27.5190  -69.2170  103.9140 O.2   189  ALA189     -0.2715
     65  CB        26.5870  -72.2380  104.5610 C.3   189  ALA189      0.0334
     66  N         25.7910  -69.2620  105.3240 N.am  190  ASN190     -0.1972
     67  CA        26.0440  -67.9130  105.7830 C.3   190  ASN190      0.1688
     68  C         25.4670  -67.6900  107.1790 C.2   190  ASN190      0.2292
     69  O         24.3950  -68.2100  107.4990 O.2   190  ASN190     -0.2864
     70  CB        25.4000  -66.9760  104.7870 C.3   190  ASN190      0.1181
     71  CG        25.4220  -65.5640  105.2380 C.2   190  ASN190      0.2629
     72  OD1       26.4730  -65.0350  105.6300 O.2   190  ASN190     -0.2716
     73  ND2       24.2490  -64.9240  105.2120 N.am  190  ASN190     -0.0877
     74  N         25.0790  -71.2980   94.2640 N.3   224  TYR224     -0.1227
     75  CA        23.9460  -70.9160   95.0960 C.3   224  TYR224      0.1736
     76  C         22.6730  -71.6290   94.6480 C.2   224  TYR224      0.2595
     77  O         22.6270  -72.1890   93.5460 O.2   224  TYR224     -0.2718
     78  CB        23.7230  -69.4220   95.0080 C.3   224  TYR224      0.0548
     79  CG        24.9020  -68.5860   95.4210 C.ar  224  TYR224     -0.0200
     80  CD1       25.0110  -67.2890   94.9770 C.ar  224  TYR224     -0.0009
     81  CD2       25.8960  -69.0750   96.2670 C.ar  224  TYR224     -0.0009
     82  CE1       26.0590  -66.4930   95.3370 C.ar  224  TYR224      0.0417
     83  CE2       26.9630  -68.2690   96.6350 C.ar  224  TYR224      0.0417
     84  CZ        27.0260  -66.9720   96.1610 C.ar  224  TYR224      0.1957
     85  OH        28.0620  -66.1220   96.4900 O.3   224  TYR224     -0.2866
     86  N         21.6400  -71.5930   95.4910 N.am  225  MET225     -0.1965
     87  CA        20.3630  -72.2180   95.1620 C.3   225  MET225      0.1736
     88  C         19.2010  -71.3820   95.6570 C.2   225  MET225      0.2616
     89  O         19.3270  -70.6200   96.6290 O.2   225  MET225     -0.2715
     90  CB        20.2570  -73.6430   95.7250 C.3   225  MET225      0.0427
     91  CG        20.1010  -73.7540   97.2310 C.3   225  MET225      0.0599
     92  SD        18.4090  -73.5980   97.8440 S.3   225  MET225     -0.1393
     93  CE        17.6630  -75.1240   97.2890 C.3   225  MET225      0.0692
     94  N         18.0700  -71.5490   94.9740 N.am  226  MET226     -0.1963
     95  CA        16.7980  -70.9610   95.3860 C.3   226  MET226      0.1736
     96  C         15.7080  -72.0290   95.3310 C.2   226  MET226      0.2616
     97  O         15.6530  -72.8130   94.3830 O.2   226  MET226     -0.2715
     98  CB        16.4280  -69.8130   94.4480 C.3   226  MET226      0.0427
     99  CG        17.3420  -68.6020   94.5510 C.3   226  MET226      0.0599
    100  SD        17.0430  -67.6650   96.0650 S.3   226  MET226     -0.1393
    101  CE        18.5850  -66.7420   96.1650 C.3   226  MET226      0.0692
    102  N         14.8530  -72.0800   96.3470 N.am  227  LEU227     -0.1977
    103  CA        13.6550  -72.9110   96.2730 C.3   227  LEU227      0.1596
    104  C         12.7340  -72.3600   95.1910 C.2   227  LEU227      0.2287
    105  O         12.8080  -71.1820   94.8550 O.2   227  LEU227     -0.2864
    106  CB        12.9000  -72.8910   97.5970 C.3   227  LEU227      0.0297
    107  CG        13.6420  -73.3330   98.8590 C.3   227  LEU227      0.0022
    108  CD1       12.7950  -73.0470  100.0870 C.3   227  LEU227      0.0001
    109  CD2       14.0060  -74.8150   98.7920 C.3   227  LEU227      0.0001
    110  N         11.2380  -69.3700   96.5930 N.3   230  ASP230     -0.1239
    111  CA        12.1670  -68.2260   96.6170 C.3   230  ASP230      0.1674
    112  C         12.1570  -67.5590   95.2420 C.2   230  ASP230      0.2266
    113  O         12.0350  -66.3360   95.1170 O.2   230  ASP230     -0.2867
    114  CB        13.6070  -68.6700   96.8640 C.3   230  ASP230      0.1410
    115  CG        13.8700  -69.1800   98.2720 C.2   230  ASP230      0.3668
    116  OD1       13.1970  -68.7650   99.2400 O.co2 230  ASP230     -0.2456
    117  OD2       14.8070  -70.0020   98.3960 O.co2 230  ASP230     -0.2456
@<TRIPOS>BOND
     1    77    76    2
     2    74    75    1
     3    97    96    2
     4    98    99    1
     5    98    95    1
     6    99   100    1
     7    76    75    1
     8    76    86   am
     9   105   104    2
    10    94    95    1
    11    94    88   am
    12    80    82   ar
    13    80    79   ar
    14    78    75    1
    15    78    79    1
    16   113   112    2
    17    87    86    1
    18    87    88    1
    19    87    90    1
    20   104   103    1
    21   112   111    1
    22    96    95    1
    23    96   102   am
    24    82    84   ar
    25    79    81   ar
    26    88    89    2
    27    90    91    1
    28   100   101    1
    29    84    85    1
    30    84    83   ar
    31    81    83   ar
    32   103   102    1
    33   103   106    1
    34   110   111    1
    35   111   114    1
    36   114   115    1
    37    91    92    1
    38    93    92    1
    39   106   107    1
    40    53    54    1
    41    53    51   am
    42    54    55    1
    43   115   117   ar
    44   115   116   ar
    45    50    51    1
    46    50    49    1
    47   109   107    1
    48    51    52    2
    49   107   108    1
    50    55    57   am
    51    55    56    2
    52    57    58    1
    53    58    59    1
    54    47    46    1
    55    48    46    1
    56    59    60    2
    57    59    61   am
    58    46    43    1
    59    12    14   ar
    60    12    11   ar
    61    10    11    1
    62    10     7    1
    63     9     8    2
    64    61    62    1
    65    14    15   ar
    66    11    13   ar
    67     8    16   am
    68     8     7    1
    69    43    42    1
    70    43    44    1
    71    45    44    2
    72    42    35   am
    73    17    16    1
    74    17    20    1
    75    17    18    1
    76     7     6    1
    77    40    41    1
    78    40    39    1
    79    15    13   ar
    80    62    63    1
    81    62    65    1
    82    64    63    2
    83    37    34    1
    84    37    38    1
    85    19    18    2
    86     6     3   am
    87    18    21   am
    88    34    35    1
    89    34    33    1
    90    35    36    2
    91    63    66   am
    92    32    31    2
    93    70    71    1
    94    70    67    1
    95    39    38    1
    96     1     2    1
    97    73    71   am
    98    71    72    2
    99    21    22    1
   100    66    67    1
   101     3     4    2
   102     3     2    1
   103    33    31   am
   104    31    30    1
   105    24    23    2
   106    67    68    1
   107     2     5    1
   108    23    22    1
   109    23    29   am
   110    22    25    1
   111    29    30    1
   112    68    69    2
   113    25    26    1
   114    26    28    1
   115    26    27    1
