@<TRIPOS>MOLECULE
tmp/5ug9A00.pdb
 188 178 0 0 0
SMALL
GASTEIGER

@<TRIPOS>ATOM
      1  N        -21.6150   12.6510  -34.9350 N.3    15  LYS15      -0.1245
      2  CA       -22.2910   13.3150  -33.8260 C.3    15  LYS15       0.1561
      3  C        -21.3770   14.2980  -33.1040 C.2    15  LYS15       0.2260
      4  O        -20.1530   14.2140  -33.2060 O.2    15  LYS15      -0.2867
      5  CB       -22.8080   12.2760  -32.8290 C.3    15  LYS15       0.0271
      6  CG       -21.7190   11.4280  -32.1960 C.3    15  LYS15       0.0035
      7  CD       -22.2740   10.5580  -31.0820 C.3    15  LYS15       0.0206
      8  CE       -21.1670    9.7840  -30.3850 C.3    15  LYS15       0.1093
      9  NZ       -21.6840    8.9680  -29.2520 N.3    15  LYS15      -0.1314
     10  N        -19.4510   15.8930  -29.9740 N.3    17  LEU17      -0.1231
     11  CA       -18.8370   15.4170  -28.7410 C.3    17  LEU17       0.1693
     12  C        -18.7670   16.5570  -27.7310 C.2    17  LEU17       0.2593
     13  O        -18.7790   16.3330  -26.5190 O.2    17  LEU17      -0.2718
     14  CB       -17.4310   14.8890  -29.0310 C.3    17  LEU17       0.0284
     15  CG       -17.3770   13.7430  -30.0450 C.3    17  LEU17       0.0019
     16  CD1      -15.9310   13.3380  -30.2960 C.3    17  LEU17       0.0001
     17  CD2      -18.1850   12.5700  -29.5200 C.3    17  LEU17       0.0001
     18  N        -18.6960   17.7790  -28.2480 N.am   18  GLY18      -0.1942
     19  CA       -18.6440   18.9560  -27.3990 C.3    18  GLY18       0.2014
     20  C        -18.3140   20.1880  -28.2210 C.2    18  GLY18       0.2639
     21  O        -18.0510   20.0850  -29.4190 O.2    18  GLY18      -0.2714
     22  N        -18.3280   21.3570  -27.5880 N.am   19  SER19      -0.1949
     23  CA       -18.0160   22.5940  -28.2950 C.3    19  SER19       0.1924
     24  C        -17.6000   23.7100  -27.3450 C.2    19  SER19       0.2314
     25  O        -17.5720   23.5310  -26.1280 O.2    19  SER19      -0.2863
     26  CB       -19.2220   23.0530  -29.1190 C.3    19  SER19       0.2116
     27  OG       -20.2810   23.4710  -28.2770 O.3    19  SER19      -0.2180
     28  N        -13.8490   27.7750  -29.2490 N.3    22  PHE22      -0.1241
     29  CA       -12.9420   27.3080  -30.2890 C.3    22  PHE22       0.1605
     30  C        -13.7270   26.7990  -31.4930 C.2    22  PHE22       0.2264
     31  O        -13.2740   26.9030  -32.6320 O.2    22  PHE22      -0.2867
     32  CB       -12.0510   26.1850  -29.7490 C.3    22  PHE22       0.0534
     33  CG       -12.8010   24.9320  -29.3960 C.ar   22  PHE22      -0.0203
     34  CD1      -13.0100   23.9420  -30.3460 C.ar   22  PHE22      -0.0042
     35  CD2      -13.3020   24.7420  -28.1190 C.ar   22  PHE22      -0.0042
     36  CE1      -13.7030   22.7910  -30.0290 C.ar   22  PHE22      -0.0003
     37  CE2      -13.9960   23.5900  -27.7960 C.ar   22  PHE22      -0.0003
     38  CZ       -14.1980   22.6130  -28.7530 C.ar   22  PHE22      -0.0000
     39  N        -16.4270   19.8960  -31.7880 N.3    25  VAL25      -0.1245
     40  CA       -15.7900   18.6080  -32.0440 C.3    25  VAL25       0.1561
     41  C        -16.8320   17.5360  -32.3370 C.2    25  VAL25       0.2260
     42  O        -17.8070   17.3850  -31.6000 O.2    25  VAL25      -0.2867
     43  CB       -14.9350   18.1480  -30.8390 C.3    25  VAL25       0.0252
     44  CG1      -14.4000   16.7390  -31.0850 C.3    25  VAL25       0.0019
     45  CG2      -13.7830   19.1160  -30.6200 C.3    25  VAL25       0.0019
     46  N        -17.5060   13.3090  -33.4550 N.3    27  LYS27      -0.1245
     47  CA       -17.0490   11.9680  -33.7880 C.3    27  LYS27       0.1561
     48  C        -17.2990   11.7800  -35.2770 C.2    27  LYS27       0.2260
     49  O        -18.3340   12.2020  -35.7940 O.2    27  LYS27      -0.2867
     50  CB       -17.8280   10.9160  -32.9980 C.3    27  LYS27       0.0271
     51  CG       -17.4040    9.4870  -33.2970 C.3    27  LYS27       0.0035
     52  CD       -18.1760    8.4930  -32.4460 C.3    27  LYS27       0.0206
     53  CE       -17.7900    7.0600  -32.7720 C.3    27  LYS27       0.1093
     54  NZ       -18.5490    6.0860  -31.9400 N.3    27  LYS27      -0.1314
     55  N        -11.7850   12.1820  -34.7020 N.3    42  ALA42      -0.1245
     56  CA       -12.4920   13.3320  -34.1610 C.3    42  ALA42       0.1562
     57  C        -12.3040   14.5090  -35.1030 C.2    42  ALA42       0.2260
     58  O        -11.1860   14.8210  -35.5090 O.2    42  ALA42      -0.2867
     59  CB       -11.9600   13.6780  -32.7830 C.3    42  ALA42       0.0290
     60  N        -12.5350   18.4130  -35.5320 N.3    44  LYS44      -0.1245
     61  CA       -12.6290   19.6920  -34.8450 C.3    44  LYS44       0.1561
     62  C        -12.8410   20.7950  -35.8710 C.2    44  LYS44       0.2260
     63  O        -11.9170   21.1800  -36.5830 O.2    44  LYS44      -0.2867
     64  CB       -11.3510   19.9530  -34.0430 C.3    44  LYS44       0.0271
     65  CG       -11.3760   21.2450  -33.2390 C.3    44  LYS44       0.0035
     66  CD       -10.3250   21.2340  -32.1360 C.3    44  LYS44       0.0206
     67  CE        -8.9280   21.0570  -32.7020 C.3    44  LYS44       0.1093
     68  NZ        -7.8820   21.2580  -31.6570 N.3    44  LYS44      -0.1314
     69  N         -2.4300   14.2580  -28.5230 N.3    70  CYS70      -0.1235
     70  CA        -3.3270   13.9460  -29.6290 C.3    70  CYS70       0.1677
     71  C         -2.7830   14.4760  -30.9440 C.2    70  CYS70       0.2270
     72  O         -2.3730   15.6320  -31.0370 O.2    70  CYS70      -0.2867
     73  CB        -4.7070   14.5460  -29.3760 C.3    70  CYS70       0.0956
     74  SG        -5.6140   13.7240  -28.0690 S.3    70  CYS70      -0.0801
     75  N         -8.5330   14.6460  -36.3330 N.3    85  MET85      -0.1230
     76  CA        -7.5770   14.2450  -35.3160 C.3    85  MET85       0.1702
     77  C         -7.8870   12.8670  -34.7680 C.2    85  MET85       0.2592
     78  O         -8.9760   12.3310  -34.9750 O.2    85  MET85      -0.2718
     79  CB        -7.5770   15.2620  -34.1780 C.3    85  MET85       0.0401
     80  CG        -7.3000   16.6760  -34.6370 C.3    85  MET85       0.0596
     81  SD        -7.2720   17.8230  -33.2640 S.3    85  MET85      -0.1393
     82  CE        -5.7810   17.2920  -32.4150 C.3    85  MET85       0.0692
     83  N         -6.9170   12.2970  -34.0630 N.am   86  GLN86      -0.1966
     84  CA        -7.1220   11.0240  -33.3890 C.3    86  GLN86       0.1733
     85  C         -8.3370   11.1210  -32.4800 C.2    86  GLN86       0.2616
     86  O         -8.4980   12.0980  -31.7430 O.2    86  GLN86      -0.2715
     87  CB        -5.8950   10.6610  -32.5530 C.3    86  GLN86       0.0408
     88  CG        -4.6320   10.4340  -33.3650 C.3    86  GLN86       0.0908
     89  CD        -3.4160   10.1850  -32.4920 C.2    86  GLN86       0.2608
     90  OE1       -3.2370   10.8260  -31.4560 O.2    86  GLN86      -0.2717
     91  NE2       -2.5700    9.2500  -32.9090 N.am   86  GLN86      -0.0878
     92  N         -9.1910   10.1060  -32.5330 N.am   87  LEU87      -0.1963
     93  CA       -10.3580   10.0500  -31.6670 C.3    87  LEU87       0.1728
     94  C         -9.9930    9.4100  -30.3340 C.2    87  LEU87       0.2616
     95  O         -9.3700    8.3480  -30.2870 O.2    87  LEU87      -0.2715
     96  CB       -11.4750    9.2440  -32.3360 C.3    87  LEU87       0.0311
     97  CG       -12.7510    9.0280  -31.5190 C.3    87  LEU87       0.0022
     98  CD1      -13.4400   10.3600  -31.2680 C.3    87  LEU87       0.0001
     99  CD2      -13.6760    8.0830  -32.2740 C.3    87  LEU87       0.0001
    100  N        -10.3830   10.0680  -29.2480 N.am   88  MET88      -0.1964
    101  CA       -10.2010    9.5260  -27.9110 C.3    88  MET88       0.1722
    102  C        -11.5650    9.0770  -27.3950 C.2    88  MET88       0.2458
    103  O        -12.3610    9.8890  -26.9180 O.2    88  MET88      -0.2730
    104  CB        -9.6050   10.5990  -26.9960 C.3    88  MET88       0.0427
    105  CG        -8.2700   11.1460  -27.4860 C.3    88  MET88       0.0599
    106  SD        -6.9480    9.9230  -27.3920 S.3    88  MET88      -0.1393
    107  CE        -6.5590    9.6980  -29.1220 C.3    88  MET88       0.0692
    108  N        -11.8520    7.7700  -27.4910 N.am   89  PRO89      -0.2716
    109  CA       -13.2110    7.2390  -27.3290 C.3    89  PRO89       0.1536
    110  C        -13.8480    7.4670  -25.9600 C.2    89  PRO89       0.2599
    111  O        -15.0700    7.4030  -25.8240 O.2    89  PRO89      -0.2715
    112  CB       -13.0570    5.7480  -27.6370 C.3    89  PRO89       0.0310
    113  CG       -11.8210    5.6540  -28.4530 C.3    89  PRO89       0.0237
    114  CD       -10.9090    6.7230  -27.9190 C.3    89  PRO89       0.0939
    115  N        -13.0310    7.7220  -24.9430 N.am   90  PHE90      -0.1960
    116  CA       -13.5530    7.8600  -23.5870 C.3    90  PHE90       0.1771
    117  C        -13.6860    9.3100  -23.1250 C.2    90  PHE90       0.2620
    118  O        -14.0500    9.5680  -21.9770 O.2    90  PHE90      -0.2715
    119  CB       -12.6810    7.0760  -22.6010 C.3    90  PHE90       0.0574
    120  CG       -12.8220    5.5850  -22.7240 C.ar   90  PHE90      -0.0200
    121  CD1      -12.0210    4.8700  -23.5990 C.ar   90  PHE90      -0.0042
    122  CD2      -13.7660    4.9000  -21.9750 C.ar   90  PHE90      -0.0042
    123  CE1      -12.1600    3.4990  -23.7290 C.ar   90  PHE90      -0.0003
    124  CE2      -13.9100    3.5270  -22.0990 C.ar   90  PHE90      -0.0003
    125  CZ       -13.1050    2.8270  -22.9780 C.ar   90  PHE90      -0.0000
    126  N        -13.3960   10.2550  -24.0140 N.am   91  GLY91      -0.1940
    127  CA       -13.6410   11.6520  -23.6980 C.3    91  GLY91       0.2014
    128  C        -12.6220   12.2870  -22.7730 C.2    91  GLY91       0.2639
    129  O        -11.5280   11.7600  -22.5840 O.2    91  GLY91      -0.2714
    130  N        -12.9780   13.4290  -22.1920 N.am   92  CYS92      -0.1967
    131  CA       -12.0390   14.1580  -21.3530 C.3    92  CYS92       0.1712
    132  C        -11.8280   13.4660  -20.0150 C.2    92  CYS92       0.2296
    133  O        -12.7380   12.8490  -19.4610 O.2    92  CYS92      -0.2864
    134  CB       -12.5150   15.5990  -21.1260 C.3    92  CYS92       0.0983
    135  SG       -14.0830   15.6860  -20.2430 S.3    92  CYS92      -0.0798
    136  N        -11.3380   14.7630  -17.1200 N.3    94  LEU94      -0.1231
    137  CA       -12.1180   15.3760  -16.0480 C.3    94  LEU94       0.1693
    138  C        -13.4260   14.6200  -15.8270 C.2    94  LEU94       0.2592
    139  O        -13.7400   14.2260  -14.7060 O.2    94  LEU94      -0.2718
    140  CB       -12.4270   16.8390  -16.3740 C.3    94  LEU94       0.0284
    141  CG       -13.3010   17.5630  -15.3420 C.3    94  LEU94       0.0019
    142  CD1      -12.5730   17.6190  -14.0010 C.3    94  LEU94       0.0001
    143  CD2      -13.6330   18.9620  -15.8360 C.3    94  LEU94       0.0001
    144  N        -14.1790   14.4070  -16.9020 N.am   95  ASP95      -0.1974
    145  CA       -15.4550   13.7060  -16.7930 C.3    95  ASP95       0.1709
    146  C        -15.2440   12.2440  -16.4350 C.2    95  ASP95       0.2293
    147  O        -16.0570   11.6430  -15.7350 O.2    95  ASP95      -0.2864
    148  CB       -16.2300   13.7920  -18.1060 C.3    95  ASP95       0.1436
    149  CG       -16.8250   15.1590  -18.3430 C.2    95  ASP95       0.3671
    150  OD1      -17.3030   15.4050  -19.4710 O.co2  95  ASP95      -0.2456
    151  OD2      -16.8180   15.9830  -17.4040 O.co2  95  ASP95      -0.2456
    152  N         -9.7140   18.9060  -18.1020 N.3   136  ARG136     -0.1245
    153  CA       -10.6670   18.9530  -19.2090 C.3   136  ARG136      0.1563
    154  C         -9.9570   18.8560  -20.5610 C.2   136  ARG136      0.2260
    155  O        -10.5740   18.4980  -21.5640 O.2   136  ARG136     -0.2867
    156  CB       -11.4970   20.2420  -19.1490 C.3   136  ARG136      0.0307
    157  CG       -10.6760   21.4990  -19.3720 C.3   136  ARG136      0.0489
    158  CD       -11.4810   22.7920  -19.2310 C.3   136  ARG136      0.2205
    159  NE       -10.5960   23.9520  -19.3230 N.pl3 136  ARG136     -0.0865
    160  CZ       -10.0120   24.5370  -18.2810 C.cat 136  ARG136      0.5346
    161  NH1      -10.2280   24.0850  -17.0530 N.pl3 136  ARG136      0.1354
    162  NH2       -9.1800   25.5540  -18.4680 N.pl3 136  ARG136      0.1354
    163  N         -7.3300   13.9050  -22.6110 N.3   139  LEU139     -0.1245
    164  CA        -8.3560   13.0150  -23.1430 C.3   139  LEU139      0.1561
    165  C         -7.9840   11.5580  -22.9240 C.2   139  LEU139      0.2260
    166  O         -6.8150   11.2290  -22.7220 O.2   139  LEU139     -0.2867
    167  CB        -8.5570   13.2810  -24.6320 C.3   139  LEU139      0.0270
    168  CG        -8.8690   14.7370  -24.9890 C.3   139  LEU139      0.0019
    169  CD1       -8.9870   14.8580  -26.4950 C.3   139  LEU139      0.0001
    170  CD2      -10.1520   15.1940  -24.3080 C.3   139  LEU139      0.0001
    171  N         -4.4010   17.4950  -25.3090 N.3   149  THR149     -0.1218
    172  CA        -4.7310   18.1970  -26.5430 C.3   149  THR149      0.1862
    173  C         -4.7830   19.7040  -26.3120 C.2   149  THR149      0.2287
    174  O         -4.5580   20.1800  -25.1940 O.2   149  THR149     -0.2866
    175  CB        -6.0710   17.6990  -27.1370 C.3   149  THR149      0.1770
    176  OG1       -6.2050   18.1770  -28.4830 O.3   149  THR149     -0.2211
    177  CG2       -7.2460   18.1880  -26.3090 C.3   149  THR149      0.0375
    178  N         -6.6210   23.5830  -27.6970 N.3   151  PHE151     -0.1241
    179  CA        -7.7590   24.2050  -28.3580 C.3   151  PHE151      0.1605
    180  C         -7.4710   25.6330  -28.7920 C.2   151  PHE151      0.2264
    181  O         -8.3890   26.4370  -28.9640 O.2   151  PHE151     -0.2867
    182  CB        -8.9850   24.1580  -27.4450 C.3   151  PHE151      0.0534
    183  CG        -9.5270   22.7750  -27.2520 C.ar  151  PHE151     -0.0203
    184  CD1      -10.3790   22.2150  -28.1910 C.ar  151  PHE151     -0.0042
    185  CD2       -9.1520   22.0160  -26.1560 C.ar  151  PHE151     -0.0042
    186  CE1      -10.8420   20.9220  -28.0420 C.ar  151  PHE151     -0.0003
    187  CE2       -9.6110   20.7250  -26.0020 C.ar  151  PHE151     -0.0003
    188  CZ       -10.4560   20.1760  -26.9460 C.ar  151  PHE151     -0.0000
@<TRIPOS>BOND
     1    63    62    2
     2    75    76    1
     3    62    61    1
     4    49    48    2
     5    60    61    1
     6    58    57    2
     7    76    77    1
     8    76    79    1
     9    48    47    1
    10    57    56    1
    11    78    77    2
    12     1     2    1
    13    61    64    1
    14    77    83   am
    15    55    56    1
    16    80    79    1
    17    80    81    1
    18    56    59    1
    19    83    84    1
    20    64    65    1
    21     2     3    1
    22     2     5    1
    23    47    46    1
    24    47    50    1
    25    84    87    1
    26    84    85    1
    27    88    87    1
    28    88    89    1
    29    51    50    1
    30    51    52    1
    31    81    82    1
    32    65    66    1
    33     4     3    2
    34    91    89   am
    35     5     6    1
    36    53    52    1
    37    53    54    1
    38    67    66    1
    39    67    68    1
    40    31    30    2
    41    92    85   am
    42    92    93    1
    43    89    90    2
    44    85    86    2
    45    41    40    1
    46    41    42    2
    47    96    93    1
    48    96    97    1
    49    99    97    1
    50     6     7    1
    51    40    39    1
    52    40    43    1
    53    93    94    1
    54    97    98    1
    55    30    29    1
    56    44    43    1
    57     7     8    1
    58    72    71    2
    59    71    70    1
    60    43    45    1
    61     8     9    1
    62    34    36   ar
    63    34    33   ar
    64    94    95    2
    65    94   100   am
    66    16    15    1
    67    29    32    1
    68    29    28    1
    69    15    17    1
    70    15    14    1
    71    36    38   ar
    72    10    11    1
    73    32    33    1
    74    70    73    1
    75    70    69    1
    76    21    20    2
    77    33    35   ar
    78    73    74    1
    79   100   101    1
    80   107   106    1
    81    26    23    1
    82    26    27    1
    83    14    11    1
    84   181   180    2
    85   180   179    1
    86    38    37   ar
    87    11    12    1
    88   176   175    1
    89   113   114    1
    90   113   112    1
    91   179   178    1
    92   179   182    1
    93    23    22    1
    94    23    24    1
    95    18    12   am
    96    18    19    1
    97    20    22   am
    98    20    19    1
    99   184   186   ar
   100   184   183   ar
   101    35    37   ar
   102   186   188   ar
   103   114   108    1
   104   101   102    1
   105   101   104    1
   106    12    13    2
   107   112   109    1
   108   108   102   am
   109   108   109    1
   110   105   106    1
   111   105   104    1
   112   182   183    1
   113   102   103    2
   114    24    25    2
   115   109   110    1
   116   183   185   ar
   117   175   172    1
   118   175   177    1
   119   188   187   ar
   120   172   173    1
   121   172   171    1
   122   169   168    1
   123   173   174    2
   124   185   187   ar
   125   110   111    2
   126   110   115   am
   127   168   167    1
   128   168   170    1
   129   115   116    1
   130   167   164    1
   131   126   127    1
   132   126   117   am
   133   123   121   ar
   134   123   125   ar
   135   127   128    1
   136   121   120   ar
   137   116   117    1
   138   116   119    1
   139   164   165    1
   140   164   163    1
   141   117   118    2
   142   125   124   ar
   143   165   166    2
   144   128   129    2
   145   128   130   am
   146   120   119    1
   147   120   122   ar
   148   130   131    1
   149   124   122   ar
   150   155   154    2
   151   131   134    1
   152   131   132    1
   153   134   135    1
   154   154   153    1
   155   132   133    2
   156   150   149   ar
   157   157   158    1
   158   157   156    1
   159   159   158    1
   160   159   160    2
   161   153   156    1
   162   153   152    1
   163   162   160    1
   164   149   148    1
   165   149   151   ar
   166   160   161    1
   167   148   145    1
   168   136   137    1
   169   144   145    1
   170   144   138   am
   171   145   146    1
   172   146   147    2
   173   140   137    1
   174   140   141    1
   175   137   138    1
   176   143   141    1
   177   138   139    2
   178   141   142    1
