@<TRIPOS>MOLECULE
tmp/5ugbA00.pdb
 176 165 0 0 0
SMALL
GASTEIGER

@<TRIPOS>ATOM
      1  N         -9.8230  -46.2540  -18.5540 N.3    22  LYS22      -0.1245
      2  CA        -8.6860  -45.7600  -17.7990 C.3    22  LYS22       0.1561
      3  C         -7.4670  -45.7320  -18.7080 C.2    22  LYS22       0.2260
      4  O         -7.2370  -46.6620  -19.4780 O.2    22  LYS22      -0.2867
      5  CB        -8.4450  -46.6870  -16.6030 C.3    22  LYS22       0.0271
      6  CG        -7.2580  -46.3490  -15.7130 C.3    22  LYS22       0.0035
      7  CD        -7.3050  -47.1990  -14.4430 C.3    22  LYS22       0.0206
      8  CE        -5.9400  -47.3280  -13.7800 C.3    22  LYS22       0.1093
      9  NZ        -5.9290  -48.4080  -12.7430 N.3    22  LYS22      -0.1314
     10  N         -3.6540  -46.3300  -19.2340 N.3    24  LEU24      -0.1231
     11  CA        -2.7980  -47.3390  -18.6440 C.3    24  LEU24       0.1693
     12  C         -1.3800  -46.8170  -18.7700 C.2    24  LEU24       0.2593
     13  O         -0.5960  -46.8470  -17.8250 O.2    24  LEU24      -0.2718
     14  CB        -2.9550  -48.6480  -19.4160 C.3    24  LEU24       0.0284
     15  CG        -3.0260  -49.9580  -18.6380 C.3    24  LEU24       0.0019
     16  CD1       -3.7890  -49.7650  -17.3470 C.3    24  LEU24       0.0001
     17  CD2       -3.6990  -50.9960  -19.5070 C.3    24  LEU24       0.0001
     18  N         -1.0620  -46.3220  -19.9560 N.am   25  GLY25      -0.1942
     19  CA         0.2710  -45.8220  -20.2010 C.3    25  GLY25       0.2014
     20  C          0.2370  -44.7090  -21.2190 C.2    25  GLY25       0.2639
     21  O         -0.6500  -44.6540  -22.0710 O.2    25  GLY25      -0.2714
     22  N          1.2080  -43.8130  -21.1300 N.am   26  SER26      -0.1949
     23  CA         1.2600  -42.6770  -22.0290 C.3    26  SER26       0.1924
     24  C          2.6910  -42.1900  -22.1810 C.2    26  SER26       0.2314
     25  O          3.5730  -42.5490  -21.3960 O.2    26  SER26      -0.2863
     26  CB         0.3780  -41.5450  -21.4960 C.3    26  SER26       0.2116
     27  OG         0.3550  -40.4480  -22.3960 O.3    26  SER26      -0.2180
     28  N          5.1860  -41.8920  -28.5970 N.3    29  PHE29      -0.1241
     29  CA         4.1710  -42.4490  -29.4960 C.3    29  PHE29       0.1605
     30  C          2.7300  -41.9960  -29.2190 C.2    29  PHE29       0.2264
     31  O          2.3290  -40.8790  -29.5670 O.2    29  PHE29      -0.2867
     32  CB         4.2470  -43.9890  -29.4670 C.3    29  PHE29       0.0534
     33  CG         4.1860  -44.5860  -28.0750 C.ar   29  PHE29      -0.0203
     34  CD1        3.0690  -45.3050  -27.6590 C.ar   29  PHE29      -0.0042
     35  CD2        5.2350  -44.4170  -27.1810 C.ar   29  PHE29      -0.0042
     36  CE1        2.9990  -45.8400  -26.3790 C.ar   29  PHE29      -0.0003
     37  CE2        5.1710  -44.9480  -25.8990 C.ar   29  PHE29      -0.0003
     38  CZ         4.0510  -45.6610  -25.4980 C.ar   29  PHE29      -0.0000
     39  N         -1.7380  -45.9460  -24.1550 N.3    32  VAL32      -0.1245
     40  CA        -2.3680  -47.2550  -24.0890 C.3    32  VAL32       0.1561
     41  C         -3.4870  -47.2430  -23.0550 C.2    32  VAL32       0.2260
     42  O         -3.3050  -46.7660  -21.9390 O.2    32  VAL32      -0.2867
     43  CB        -1.3410  -48.3340  -23.7200 C.3    32  VAL32       0.0252
     44  CG1       -1.9870  -49.7070  -23.7530 C.3    32  VAL32       0.0019
     45  CG2       -0.1770  -48.2710  -24.6810 C.3    32  VAL32       0.0019
     46  N         -6.5240  -54.1470  -23.9420 N.3    49  ALA49      -0.1245
     47  CA        -5.7650  -52.9130  -23.9800 C.3    49  ALA49       0.1562
     48  C         -5.9490  -52.3030  -25.3660 C.2    49  ALA49       0.2260
     49  O         -5.9820  -53.0180  -26.3700 O.2    49  ALA49      -0.2867
     50  CB        -4.3050  -53.1930  -23.7190 C.3    49  ALA49       0.0290
     51  N         -4.4660  -49.4340  -27.9980 N.3    51  LYS51      -0.1245
     52  CA        -3.2520  -48.6580  -28.2110 C.3    51  LYS51       0.1561
     53  C         -3.3770  -47.7540  -29.4300 C.2    51  LYS51       0.2260
     54  O         -3.6170  -48.2280  -30.5410 O.2    51  LYS51      -0.2867
     55  CB        -2.0680  -49.6040  -28.3820 C.3    51  LYS51       0.0271
     56  CG        -0.7750  -48.9310  -28.7590 C.3    51  LYS51       0.0035
     57  CD         0.2830  -49.9760  -29.0300 C.3    51  LYS51       0.0206
     58  CE         1.5040  -49.3630  -29.6650 C.3    51  LYS51       0.1093
     59  NZ         2.5740  -50.3750  -29.7790 N.3    51  LYS51      -0.1314
     60  N          1.3480  -58.4720  -35.7160 N.3    70  MET70      -0.1245
     61  CA         0.6360  -59.0030  -34.5530 C.3    70  MET70       0.1570
     62  C         -0.5020  -59.9430  -34.9260 C.2    70  MET70       0.2261
     63  O         -0.8860  -60.8010  -34.1290 O.2    70  MET70      -0.2867
     64  CB         0.0580  -57.8800  -33.7000 C.3    70  MET70       0.0387
     65  CG         1.0610  -57.0860  -32.9030 C.3    70  MET70       0.0595
     66  SD         0.1890  -56.0050  -31.7430 S.3    70  MET70      -0.1393
     67  CE        -0.5250  -57.2450  -30.6110 C.3    70  MET70       0.0692
     68  N          1.9220  -61.8460  -27.6570 N.3    79  CYS79      -0.1235
     69  CA         0.6700  -61.0750  -27.6850 C.3    79  CYS79       0.1677
     70  C          0.1830  -60.9320  -29.1150 C.2    79  CYS79       0.2270
     71  O          0.8860  -60.3760  -29.9550 O.2    79  CYS79      -0.2867
     72  CB         0.8820  -59.6600  -27.1360 C.3    79  CYS79       0.0956
     73  SG         1.2070  -59.5180  -25.3680 S.3    79  CYS79      -0.0801
     74  N         -5.7620  -55.2520  -28.1830 N.3    94  THR94      -0.1203
     75  CA        -5.0590  -56.4390  -27.7240 C.3    94  THR94       0.1994
     76  C         -5.6840  -56.9370  -26.4400 C.2    94  THR94       0.2618
     77  O         -6.4840  -56.2520  -25.8110 O.2    94  THR94      -0.2717
     78  CB        -3.5880  -56.1460  -27.4190 C.3    94  THR94       0.1784
     79  OG1       -3.5120  -55.1850  -26.3570 O.3    94  THR94      -0.2211
     80  CG2       -2.8820  -55.6070  -28.6480 C.3    94  THR94       0.0376
     81  N         -5.3020  -58.1460  -26.0600 N.am   95  GLN95      -0.1965
     82  CA        -5.6810  -58.6990  -24.7830 C.3    95  GLN95       0.1733
     83  C         -4.9840  -57.8860  -23.7000 C.2    95  GLN95       0.2616
     84  O         -3.8160  -57.5260  -23.8370 O.2    95  GLN95      -0.2715
     85  CB        -5.2490  -60.1620  -24.7280 C.3    95  GLN95       0.0408
     86  CG        -5.1900  -60.7560  -23.3380 C.3    95  GLN95       0.0908
     87  CD        -4.3800  -62.0350  -23.3050 C.2    95  GLN95       0.2608
     88  OE1       -3.3620  -62.1580  -23.9960 O.2    95  GLN95      -0.2717
     89  NE2       -4.8270  -62.9980  -22.5040 N.am   95  GLN95      -0.0878
     90  N         -5.7050  -57.5870  -22.6270 N.am   96  LEU96      -0.1963
     91  CA        -5.1130  -56.8870  -21.4920 C.3    96  LEU96       0.1728
     92  C         -4.1360  -57.8110  -20.7560 C.2    96  LEU96       0.2616
     93  O         -4.4660  -58.9470  -20.4290 O.2    96  LEU96      -0.2715
     94  CB        -6.2150  -56.4190  -20.5300 C.3    96  LEU96       0.0311
     95  CG        -5.7580  -55.7200  -19.2460 C.3    96  LEU96       0.0022
     96  CD1       -4.9210  -54.5020  -19.5810 C.3    96  LEU96       0.0001
     97  CD2       -6.9690  -55.3140  -18.4360 C.3    96  LEU96       0.0001
     98  N         -2.9300  -57.3170  -20.5180 N.am   97  MET97      -0.1964
     99  CA        -1.9540  -58.0060  -19.6820 C.3    97  MET97       0.1722
    100  C         -1.9270  -57.2960  -18.3320 C.2    97  MET97       0.2458
    101  O         -1.2340  -56.2910  -18.1510 O.2    97  MET97      -0.2730
    102  CB        -0.5760  -57.9520  -20.3430 C.3    97  MET97       0.0427
    103  CG        -0.5330  -58.6320  -21.7000 C.3    97  MET97       0.0599
    104  SD        -0.8660  -60.4120  -21.5940 S.3    97  MET97      -0.1393
    105  CE         0.7710  -61.0080  -21.2160 C.3    97  MET97       0.0692
    106  N         -2.7000  -57.8130  -17.3670 N.am   98  PRO98      -0.2716
    107  CA        -3.1330  -57.0380  -16.1980 C.3    98  PRO98       0.1536
    108  C         -2.0060  -56.5450  -15.2970 C.2    98  PRO98       0.2599
    109  O         -2.1780  -55.5630  -14.5810 O.2    98  PRO98      -0.2715
    110  CB        -4.0790  -57.9900  -15.4570 C.3    98  PRO98       0.0310
    111  CG        -4.5140  -58.9710  -16.4980 C.3    98  PRO98       0.0237
    112  CD        -3.3290  -59.1450  -17.4030 C.3    98  PRO98       0.0939
    113  N         -0.8600  -57.2170  -15.3170 N.am   99  PHE99      -0.1960
    114  CA         0.2090  -56.8850  -14.3830 C.3    99  PHE99       0.1771
    115  C          1.2820  -55.9830  -14.9730 C.2    99  PHE99       0.2620
    116  O          2.3010  -55.7170  -14.3300 O.2    99  PHE99      -0.2715
    117  CB         0.8380  -58.1600  -13.8330 C.3    99  PHE99       0.0574
    118  CG        -0.0690  -58.9230  -12.9170 C.ar   99  PHE99      -0.0200
    119  CD1       -0.9240  -59.8930  -13.4160 C.ar   99  PHE99      -0.0042
    120  CD2       -0.0800  -58.6580  -11.5550 C.ar   99  PHE99      -0.0042
    121  CE1       -1.7790  -60.5870  -12.5810 C.ar   99  PHE99      -0.0003
    122  CE2       -0.9300  -59.3480  -10.7090 C.ar   99  PHE99      -0.0003
    123  CZ        -1.7840  -60.3150  -11.2240 C.ar   99  PHE99      -0.0000
    124  N          1.0470  -55.5110  -16.1940 N.am  100  GLY100     -0.1940
    125  CA         1.9460  -54.5490  -16.8000 C.3   100  GLY100      0.2014
    126  C          3.1470  -55.2240  -17.4140 C.2   100  GLY100      0.2639
    127  O          3.1570  -56.4440  -17.5610 O.2   100  GLY100     -0.2714
    128  N          4.1600  -54.4410  -17.7770 N.am  101  CYS101     -0.1967
    129  CA         5.3770  -55.0090  -18.3410 C.3   101  CYS101      0.1712
    130  C          6.2730  -55.5830  -17.2380 C.2   101  CYS101      0.2296
    131  O          6.1560  -55.2130  -16.0690 O.2   101  CYS101     -0.2864
    132  CB         6.1410  -53.9580  -19.1560 C.3   101  CYS101      0.0983
    133  SG         7.1740  -52.8450  -18.1900 S.3   101  CYS101     -0.0798
    134  N          9.0000  -53.2590  -15.0130 N.3   104  ASP104     -0.1239
    135  CA         8.4240  -52.5890  -13.8580 C.3   104  ASP104      0.1674
    136  C          8.0100  -53.6090  -12.8060 C.2   104  ASP104      0.2266
    137  O          7.9760  -53.2980  -11.6220 O.2   104  ASP104     -0.2867
    138  CB         7.2080  -51.7450  -14.2680 C.3   104  ASP104      0.1410
    139  CG         7.5630  -50.6520  -15.2690 C.2   104  ASP104      0.3668
    140  OD1        6.6510  -50.1860  -15.9960 O.co2 104  ASP104     -0.2456
    141  OD2        8.7510  -50.2600  -15.3280 O.co2 104  ASP104     -0.2456
    142  N          9.2440  -53.5790   -8.9580 N.3   108  GLU108     -0.1245
    143  CA         8.2430  -53.3460   -7.9420 C.3   108  GLU108      0.1567
    144  C          8.2200  -54.4720   -6.9230 C.2   108  GLU108      0.2260
    145  O          7.9930  -54.2290   -5.7440 O.2   108  GLU108     -0.2867
    146  CB         6.8710  -53.1990   -8.5950 C.3   108  GLU108      0.0388
    147  CG         5.7990  -52.6400   -7.6900 C.3   108  GLU108      0.1160
    148  CD         4.5690  -52.1940   -8.4710 C.2   108  GLU108      0.3649
    149  OE1        3.4550  -52.1900   -7.8870 O.co2 108  GLU108     -0.2457
    150  OE2        4.7210  -51.8480   -9.6700 O.co2 108  GLU108     -0.2457
    151  N         11.3150  -54.4460  -20.9510 N.3   145  ARG145     -0.1245
    152  CA        10.1930  -53.5200  -21.1160 C.3   145  ARG145      0.1563
    153  C          9.1560  -54.0500  -22.1100 C.2   145  ARG145      0.2260
    154  O          7.9870  -53.7020  -22.0210 O.2   145  ARG145     -0.2867
    155  CB        10.6800  -52.1410  -21.5820 C.3   145  ARG145      0.0307
    156  CG        11.1820  -52.1170  -23.0060 C.3   145  ARG145      0.0489
    157  CD        11.7320  -50.7580  -23.4180 C.3   145  ARG145      0.2205
    158  NE        12.5650  -50.9160  -24.6040 N.pl3 145  ARG145     -0.0865
    159  CZ        13.8730  -51.1530  -24.5670 C.cat 145  ARG145      0.5346
    160  NH1       14.5030  -51.2410  -23.4010 N.pl3 145  ARG145      0.1354
    161  NH2       14.5490  -51.3560  -25.6920 N.pl3 145  ARG145      0.1354
    162  N          5.3470  -58.6790  -21.3100 N.3   148  LEU148     -0.1245
    163  CA         4.2360  -58.3340  -20.4330 C.3   148  LEU148      0.1561
    164  C          3.7860  -59.5010  -19.5850 C.2   148  LEU148      0.2260
    165  O          4.0570  -60.6590  -19.9060 O.2   148  LEU148     -0.2867
    166  CB         3.0510  -57.7980  -21.2380 C.3   148  LEU148      0.0270
    167  CG         3.3900  -56.6670  -22.2170 C.3   148  LEU148      0.0019
    168  CD1        2.1080  -56.2550  -22.8720 C.3   148  LEU148      0.0001
    169  CD2        4.0500  -55.4680  -21.5220 C.3   148  LEU148      0.0001
    170  N          5.9240  -58.7520  -26.5290 N.3   158  THR158     -0.1218
    171  CA         5.0860  -57.7530  -27.1550 C.3   158  THR158      0.1862
    172  C          5.9340  -56.8170  -28.0040 C.2   158  THR158      0.2287
    173  O          7.1520  -56.9890  -28.1100 O.2   158  THR158     -0.2866
    174  CB         4.3470  -56.9290  -26.0910 C.3   158  THR158      0.1770
    175  OG1        3.3090  -56.1690  -26.7110 O.3   158  THR158     -0.2211
    176  CG2        5.3100  -55.9620  -25.4100 C.3   158  THR158      0.0375
@<TRIPOS>BOND
     1    60    61    1
     2    62    61    1
     3    62    63    2
     4    61    64    1
     5    64    65    1
     6    65    66    1
     7    66    67    1
     8    54    53    2
     9    71    70    2
    10    59    58    1
    11    58    57    1
    12    31    30    2
    13    29    32    1
    14    29    30    1
    15    29    28    1
    16    32    33    1
    17    53    52    1
    18    70    69    1
    19    57    56    1
    20    56    55    1
    21    80    78    1
    22    55    52    1
    23    52    51    1
    24    74    75    1
    25   173   172    2
    26    33    34   ar
    27    33    35   ar
    28   172   171    1
    29    75    78    1
    30    75    76    1
    31    69    68    1
    32    69    72    1
    33    34    36   ar
    34    78    79    1
    35    35    37   ar
    36   171   170    1
    37   171   174    1
    38    72    73    1
    39   175   174    1
    40    76    81   am
    41    76    77    2
    42    36    38   ar
    43    49    48    2
    44   174   176    1
    45    81    82    1
    46    37    38   ar
    47   161   159    1
    48    48    47    1
    49    82    85    1
    50    82    83    1
    51    85    86    1
    52    45    43    1
    53   158   159    2
    54   158   157    1
    55   159   160    1
    56    39    40    1
    57    40    43    1
    58    40    41    1
    59    88    87    2
    60    47    46    1
    61    47    50    1
    62    84    83    2
    63    44    43    1
    64    83    90   am
    65   157   156    1
    66    86    87    1
    67    87    89   am
    68    41    42    2
    69   156   155    1
    70   168   167    1
    71    90    91    1
    72    27    26    1
    73   167   169    1
    74   167   166    1
    75    24    23    1
    76    24    25    2
    77   153   154    2
    78   153   152    1
    79    21    20    2
    80    23    26    1
    81    23    22    1
    82   103   104    1
    83   103   102    1
    84   104   105    1
    85   155   152    1
    86    91    92    1
    87    91    94    1
    88   162   163    1
    89   166   163    1
    90    20    22   am
    91    20    19    1
    92   152   151    1
    93    92    98   am
    94    92    93    2
    95    94    95    1
    96    98    99    1
    97   163   164    1
    98   102    99    1
    99    19    18    1
   100    18    12   am
   101   165   164    2
   102    99   100    1
   103    96    95    1
   104    17    15    1
   105     4     3    2
   106    14    11    1
   107    14    15    1
   108    95    97    1
   109    10    11    1
   110   132   129    1
   111   132   133    1
   112    12    11    1
   113    12    13    2
   114     3     2    1
   115    15    16    1
   116     1     2    1
   117   129   128    1
   118   129   130    1
   119   100   101    2
   120   100   106   am
   121     2     5    1
   122   128   126   am
   123   127   126    2
   124   126   125    1
   125   112   106    1
   126   112   111    1
   127   106   107    1
   128   130   131    2
   129   125   124    1
   130     5     6    1
   131   111   110    1
   132   107   110    1
   133   107   108    1
   134   124   115   am
   135   140   139   ar
   136     6     7    1
   137   141   139   ar
   138   113   108   am
   139   113   114    1
   140   108   109    2
   141   139   138    1
   142   134   135    1
   143   115   114    1
   144   115   116    2
   145     7     8    1
   146   114   117    1
   147   138   135    1
   148   135   136    1
   149   117   118    1
   150     8     9    1
   151   119   118   ar
   152   119   121   ar
   153   118   120   ar
   154   136   137    2
   155   121   123   ar
   156   120   122   ar
   157   123   122   ar
   158   150   148   ar
   159   142   143    1
   160   146   143    1
   161   146   147    1
   162   148   149   ar
   163   148   147    1
   164   143   144    1
   165   144   145    2
