@<TRIPOS>MOLECULE
tmp/5ugdA00.pdb
 162 160 0 0 0
SMALL
GASTEIGER

@<TRIPOS>ATOM
      1  N          5.1400   -5.8530  137.8340 N.3    36  THR36      -0.1218
      2  CA         4.3040   -7.0490  137.7940 C.3    36  THR36       0.1862
      3  C          2.9020   -6.6550  138.3220 C.2    36  THR36       0.2287
      4  O          2.7070   -5.5360  138.8070 O.2    36  THR36      -0.2866
      5  CB         4.8800   -8.1320  138.7130 C.3    36  THR36       0.1770
      6  OG1        4.8160   -7.6830  140.0710 O.3    36  THR36      -0.2211
      7  CG2        6.3030   -8.5400  138.3430 C.3    36  THR36       0.0375
      8  N          8.6880   -3.5150  140.7260 N.3    41  HIS41      -0.1226
      9  CA         9.4580   -2.9100  139.6370 C.3    41  HIS41       0.1752
     10  C         10.4190   -3.9260  139.0210 C.2    41  HIS41       0.2596
     11  O         11.1500   -4.6080  139.7300 O.2    41  HIS41      -0.2718
     12  CB        10.2660   -1.7400  140.1780 C.3    41  HIS41       0.0759
     13  CG        11.2060   -1.1500  139.1680 C.ar   41  HIS41       0.0818
     14  ND1       10.8150   -0.1190  138.3410 N.ar   41  HIS41      -0.2268
     15  CD2       12.4860   -1.4850  138.8830 C.ar   41  HIS41       0.1154
     16  CE1       11.8720    0.1580  137.5880 C.ar   41  HIS41       0.1986
     17  NE2       12.9020   -0.6420  137.8790 N.ar   41  HIS41      -0.2212
     18  N         10.4590   -3.9760  137.6810 N.am   42  PHE42      -0.1962
     19  CA        11.4570   -4.8100  137.0100 C.3    42  PHE42       0.1771
     20  C         12.0940   -4.1380  135.8080 C.2    42  PHE42       0.2619
     21  O         13.0680   -4.6670  135.2900 O.2    42  PHE42      -0.2715
     22  CB        10.9390   -6.2000  136.6310 C.3    42  PHE42       0.0574
     23  CG         9.8130   -6.2190  135.6380 C.ar   42  PHE42      -0.0200
     24  CD1       10.0670   -6.1650  134.2660 C.ar   42  PHE42      -0.0042
     25  CD2        8.5000   -6.2880  136.0640 C.ar   42  PHE42      -0.0042
     26  CE1        9.0160   -6.1930  133.3490 C.ar   42  PHE42      -0.0003
     27  CE2        7.4490   -6.3290  135.1440 C.ar   42  PHE42      -0.0003
     28  CZ         7.7120   -6.2520  133.7930 C.ar   42  PHE42      -0.0000
     29  N         11.5690   -2.9800  135.3570 N.am   43  CYS43      -0.1968
     30  CA        12.1380   -2.3260  134.1940 C.3    43  CYS43       0.1712
     31  C         11.6710   -0.8990  134.1940 C.2    43  CYS43       0.2296
     32  O         10.6500   -0.5550  134.7940 O.2    43  CYS43      -0.2864
     33  CB        11.6620   -3.0270  132.9150 C.3    43  CYS43       0.0983
     34  SG        12.7780   -4.3230  132.2870 S.3    43  CYS43      -0.0798
     35  N         13.4410   -7.0250  125.9190 N.3    58  HIS58      -0.1226
     36  CA        13.8110   -8.0650  126.9020 C.3    58  HIS58       0.1752
     37  C         12.9800   -7.9820  128.1980 C.2    58  HIS58       0.2596
     38  O         12.8540   -8.9810  128.9170 O.2    58  HIS58      -0.2718
     39  CB        15.3220   -8.1010  127.2060 C.3    58  HIS58       0.0759
     40  CG        15.8110   -6.9610  128.0290 C.ar   58  HIS58       0.0818
     41  ND1       16.5710   -5.9500  127.4810 N.ar   58  HIS58      -0.2268
     42  CD2       15.6480   -6.7150  129.3540 C.ar   58  HIS58       0.1154
     43  CE1       16.8550   -5.1310  128.4820 C.ar   58  HIS58       0.1986
     44  NE2       16.3000   -5.5450  129.6250 N.ar   58  HIS58      -0.2212
     45  N         12.3870   -6.8100  128.4690 N.am   59  CYS59      -0.1970
     46  CA        11.5340   -6.6150  129.6410 C.3    59  CYS59       0.1712
     47  C         10.2250   -7.3820  129.5010 C.2    59  CYS59       0.2296
     48  O          9.5250   -7.5810  130.4920 O.2    59  CYS59      -0.2864
     49  CB        11.2430   -5.1300  129.8100 C.3    59  CYS59       0.0983
     50  SG        12.6950   -4.1410  130.2590 S.3    59  CYS59      -0.0798
     51  N          9.3090  -12.6810  128.8030 N.3    62  LYS62      -0.1245
     52  CA         8.7950  -13.7690  129.6560 C.3    62  LYS62       0.1561
     53  C          7.2700  -13.9310  129.5720 C.2    62  LYS62       0.2260
     54  O          6.7450  -15.0070  129.8920 O.2    62  LYS62      -0.2867
     55  CB         9.2070  -13.5450  131.1170 C.3    62  LYS62       0.0271
     56  CG        10.6860  -13.8170  131.3910 C.3    62  LYS62       0.0035
     57  CD        11.1200  -13.2910  132.7570 C.3    62  LYS62       0.0206
     58  CE        12.6140  -13.3980  132.9820 C.3    62  LYS62       0.1093
     59  NZ        13.3890  -12.4640  132.1150 N.3    62  LYS62      -0.1314
     60  N          1.3740   -7.0620  133.1680 N.3    69  TYR69      -0.1241
     61  CA         2.1220   -5.8200  133.3420 C.3    69  TYR69       0.1605
     62  C          1.2690   -4.6460  133.7310 C.2    69  TYR69       0.2264
     63  O          0.1700   -4.4610  133.2090 O.2    69  TYR69      -0.2867
     64  CB         2.8190   -5.4350  131.9910 C.3    69  TYR69       0.0534
     65  CG         3.6800   -6.5060  131.3490 C.ar   69  TYR69      -0.0201
     66  CD1        4.9720   -6.7450  131.7940 C.ar   69  TYR69      -0.0009
     67  CD2        3.1920   -7.2970  130.3110 C.ar   69  TYR69      -0.0009
     68  CE1        5.7400   -7.7780  131.2690 C.ar   69  TYR69       0.0417
     69  CE2        3.9600   -8.3260  129.7650 C.ar   69  TYR69       0.0417
     70  CZ         5.2490   -8.5390  130.2270 C.ar   69  TYR69       0.1957
     71  OH         6.0510   -9.5330  129.7170 O.3    69  TYR69      -0.2866
     72  N         26.7420    5.1730  135.5720 N.3   190  ASP190     -0.1225
     73  CA        26.1380    4.3420  134.5310 C.3   190  ASP190      0.1805
     74  C         24.7480    3.9210  134.9030 C.2   190  ASP190      0.2598
     75  O         24.3530    4.0110  136.0680 O.2   190  ASP190     -0.2718
     76  CB        26.9570    3.0380  134.4000 C.3   190  ASP190      0.1424
     77  CG        26.9480    2.3060  133.0700 C.2   190  ASP190      0.3668
     78  OD1       26.1090    2.6370  132.2070 O.co2 190  ASP190     -0.2456
     79  OD2       27.7940    1.4170  132.8860 O.co2 190  ASP190     -0.2456
     80  N         24.0080    3.4020  133.9140 N.am  191  SER191     -0.1938
     81  CA        22.7410    2.7290  134.1770 C.3   191  SER191      0.2055
     82  C         23.1190    1.3510  134.6850 C.2   191  SER191      0.2643
     83  O         24.2290    0.8580  134.4170 O.2   191  SER191     -0.2714
     84  CB        21.9120    2.6090  132.9050 C.3   191  SER191      0.2130
     85  OG        22.7010    2.1160  131.8300 O.3   191  SER191     -0.2179
     86  N         22.2410    0.7320  135.4750 N.am  192  CYS192     -0.1953
     87  CA        22.5270   -0.5540  136.0840 C.3   192  CYS192      0.1843
     88  C         21.2830   -1.4100  136.2030 C.2   192  CYS192      0.2625
     89  O         20.2300   -1.0290  135.7000 O.2   192  CYS192     -0.2714
     90  CB        23.2290   -0.3480  137.4290 C.3   192  CYS192      0.0997
     91  SG        24.3030   -1.7330  137.9450 S.3   192  CYS192     -0.0797
     92  N         21.4100   -2.6130  136.7800 N.am  193  GLN193     -0.1963
     93  CA        20.2980   -3.5570  136.8300 C.3   193  GLN193      0.1733
     94  C         19.0400   -2.9060  137.3700 C.2   193  GLN193      0.2616
     95  O         19.0550   -2.3760  138.4780 O.2   193  GLN193     -0.2715
     96  CB        20.6760   -4.7780  137.6740 C.3   193  GLN193      0.0408
     97  CG        21.6630   -5.7230  137.0060 C.3   193  GLN193      0.0908
     98  CD        23.1000   -5.2730  137.1370 C.2   193  GLN193      0.2608
     99  OE1       23.5750   -4.9160  138.2190 O.2   193  GLN193     -0.2717
    100  NE2       23.8340   -5.3210  136.0430 N.am  193  GLN193     -0.0878
    101  N         17.9700   -2.9500  136.5950 N.am  194  GLY194     -0.1955
    102  CA        16.7170   -2.3240  136.9950 C.3   194  GLY194      0.1869
    103  C         16.4410   -1.0550  136.2230 C.2   194  GLY194      0.2309
    104  O         15.3300   -0.5200  136.2860 O.2   194  GLY194     -0.2863
    105  N         17.0920   -0.9880  132.7880 N.3   196  SER196     -0.1217
    106  CA        16.8050   -1.3090  131.4050 C.3   196  SER196      0.1889
    107  C         15.3780   -0.9990  131.0310 C.2   196  SER196      0.2288
    108  O         14.4740   -1.0740  131.8710 O.2   196  SER196     -0.2866
    109  CB        17.1770   -2.7400  131.0470 C.3   196  SER196      0.2089
    110  OG        16.2560   -3.6560  131.6230 O.3   196  SER196     -0.2183
    111  N         17.5940    2.0820  127.3870 N.3   214  THR214     -0.1203
    112  CA        18.6190    1.3330  128.1260 C.3   214  THR214      0.1994
    113  C         18.5120   -0.1560  127.8210 C.2   214  THR214      0.2619
    114  O         17.4600   -0.7550  128.0520 O.2   214  THR214     -0.2717
    115  CB        18.5020    1.6560  129.6050 C.3   214  THR214      0.1784
    116  OG1       18.5600    3.0740  129.7430 O.3   214  THR214     -0.2211
    117  CG2       19.6170    0.9980  130.4410 C.3   214  THR214      0.0376
    118  N         19.6050   -0.7520  127.3190 N.am  215  SER215     -0.1937
    119  CA        19.5610   -2.1270  126.8560 C.3   215  SER215      0.2055
    120  C         20.5160   -3.0750  127.5770 C.2   215  SER215      0.2643
    121  O         20.0290   -3.9900  128.2570 O.2   215  SER215     -0.2714
    122  CB        19.7700   -2.1530  125.3420 C.3   215  SER215      0.2130
    123  OG        19.6690   -3.4450  124.7800 O.3   215  SER215     -0.2179
    124  N         21.8360   -2.8800  127.4540 N.am  216  TRP216     -0.1959
    125  CA        22.7480   -3.8320  128.0640 C.3   216  TRP216      0.1771
    126  C         24.0960   -3.1930  128.3080 C.2   216  TRP216      0.2620
    127  O         24.3490   -2.0730  127.8760 O.2   216  TRP216     -0.2715
    128  CB        22.9260   -5.0920  127.1590 C.3   216  TRP216      0.0590
    129  CG        23.5200   -4.8410  125.7980 C.ar  216  TRP216      0.0006
    130  CD1       22.8440   -4.4710  124.6740 C.ar  216  TRP216      0.0946
    131  CD2       24.9060   -4.9520  125.4160 C.ar  216  TRP216      0.0152
    132  NE1       23.7110   -4.4080  123.5960 N.ar  216  TRP216     -0.2442
    133  CE2       24.9850   -4.6590  124.0350 C.ar  216  TRP216      0.0810
    134  CE3       26.0790   -5.3450  126.0900 C.ar  216  TRP216      0.0012
    135  CZ2       26.1970   -4.6940  123.3240 C.ar  216  TRP216      0.0191
    136  CZ3       27.2850   -5.3550  125.3920 C.ar  216  TRP216      0.0001
    137  CH2       27.3320   -5.0610  124.0220 C.ar  216  TRP216      0.0015
    138  N         24.9680   -3.9310  128.9750 N.am  217  GLY217     -0.1954
    139  CA        26.3380   -3.4910  129.1580 C.3   217  GLY217      0.1869
    140  C         27.1530   -4.6450  129.6720 C.2   217  GLY217      0.2309
    141  O         26.6020   -5.6980  130.0040 O.2   217  GLY217     -0.2863
    142  N         28.6970   -5.3190  132.6590 N.3   219  GLY219     -0.1210
    143  CA        28.6460   -4.7860  134.0120 C.3   219  GLY219      0.1956
    144  C         28.1390   -3.3490  133.9980 C.2   219  GLY219      0.2612
    145  O         27.6190   -2.8680  132.9700 O.2   219  GLY219     -0.2717
    146  N         28.2650   -2.6580  135.1420 N.am  220  CYS220     -0.1970
    147  CA        27.8790   -1.2500  135.2970 C.3   220  CYS220      0.1712
    148  C         29.0620   -0.4450  135.7450 C.2   220  CYS220      0.2296
    149  O         29.7220   -0.8200  136.7120 O.2   220  CYS220     -0.2864
    150  CB        26.7540   -1.0460  136.3100 C.3   220  CYS220      0.0983
    151  SG        25.4200   -2.2560  136.2670 S.3   220  CYS220     -0.0798
    152  N         27.7260    1.8980  128.6320 N.3   227  GLY227     -0.1210
    153  CA        26.4550    1.2230  128.4110 C.3   227  GLY227      0.1956
    154  C         26.0070    1.3110  126.9660 C.2   227  GLY227      0.2611
    155  O         26.3570    2.2500  126.2230 O.2   227  GLY227     -0.2717
    156  N         25.1800    0.3260  126.5720 N.am  228  VAL228     -0.1979
    157  CA        24.6260    0.2340  125.2290 C.3   228  VAL228      0.1595
    158  C         23.1270    0.4520  125.2890 C.2   228  VAL228      0.2287
    159  O         22.4230   -0.0830  126.1620 O.2   228  VAL228     -0.2864
    160  CB        25.0070   -1.0800  124.5300 C.3   228  VAL228      0.0276
    161  CG1       24.5620   -1.0860  123.0630 C.3   228  VAL228      0.0022
    162  CG2       26.5180   -1.2870  124.5970 C.3   228  VAL228      0.0022
@<TRIPOS>BOND
     1   161   160    1
     2   135   137   ar
     3   135   133   ar
     4   132   133   ar
     5   132   130   ar
     6   137   136   ar
     7   133   131   ar
     8   160   162    1
     9   160   157    1
    10   130   129   ar
    11   123   122    1
    12   157   158    1
    13   157   156    1
    14   158   159    2
    15   122   119    1
    16   136   134   ar
    17   131   129   ar
    18   131   134   ar
    19   129   128    1
    20    35    36    1
    21   155   154    2
    22   156   154   am
    23   119   118    1
    24   119   120    1
    25    36    39    1
    26    36    37    1
    27   154   153    1
    28   128   125    1
    29    39    40    1
    30   118   113   am
    31   111   112    1
    32   124   120   am
    33   124   125    1
    34    41    40   ar
    35    41    43   ar
    36   120   121    2
    37   113   114    2
    38   113   112    1
    39   127   126    2
    40    40    42   ar
    41   125   126    1
    42   112   115    1
    43    37    45   am
    44    37    38    2
    45   126   138   am
    46   153   152    1
    47    45    46    1
    48    43    44   ar
    49    51    52    1
    50   138   139    1
    51   139   140    1
    52    42    44   ar
    53    47    46    1
    54    47    48    2
    55    53    52    1
    56    53    54    2
    57   115   116    1
    58   115   117    1
    59    46    49    1
    60    52    55    1
    61   140   141    2
    62    71    70    1
    63    69    70   ar
    64    69    67   ar
    65    49    50    1
    66    70    68   ar
    67    50    34    1
    68    67    65   ar
    69   107   106    1
    70   107   108    2
    71   109   106    1
    72   109   110    1
    73    55    56    1
    74    68    66   ar
    75    65    66   ar
    76    65    64    1
    77    56    57    1
    78   106   105    1
    79    85    84    1
    80    64    61    1
    81    59    58    1
    82    78    77   ar
    83    34    33    1
    84   142   143    1
    85    57    58    1
    86    79    77   ar
    87    84    81    1
    88    33    30    1
    89   145   144    2
    90    77    76    1
    91    60    61    1
    92    63    62    2
    93    61    62    1
    94    26    28   ar
    95    26    24   ar
    96    28    27   ar
    97    80    81    1
    98    80    74   am
    99   144   143    1
   100   144   146   am
   101    81    82    1
   102    30    31    1
   103    30    29    1
   104    31    32    2
   105    24    23   ar
   106    76    73    1
   107    83    82    2
   108    73    74    1
   109    73    72    1
   110    82    86   am
   111    74    75    2
   112   146   147    1
   113    27    25   ar
   114    21    20    2
   115   147   148    1
   116   147   150    1
   117    29    20   am
   118    86    87    1
   119    23    25   ar
   120    23    22    1
   121    89    88    2
   122   148   149    2
   123    20    19    1
   124   100    98   am
   125    87    88    1
   126    87    90    1
   127    88    92   am
   128   103   104    2
   129   103   102    1
   130   151   150    1
   131   151    91    1
   132   101   102    1
   133   101    94   am
   134    22    19    1
   135    92    93    1
   136    93    94    1
   137    93    96    1
   138    97    98    1
   139    97    96    1
   140    19    18    1
   141    98    99    2
   142    94    95    2
   143    90    91    1
   144    16    17   ar
   145    16    14   ar
   146    18    10   am
   147     2     1    1
   148     2     3    1
   149     2     5    1
   150    17    15   ar
   151     3     4    2
   152    14    13   ar
   153     7     5    1
   154     5     6    1
   155    15    13   ar
   156    10     9    1
   157    10    11    2
   158    13    12    1
   159     9    12    1
   160     9     8    1
