@<TRIPOS>MOLECULE
tmp/5uggA00.pdb
 185 182 0 0 0
SMALL
GASTEIGER

@<TRIPOS>ATOM
      1  N         15.4050   -8.9010   50.8640 N.3    36  THR36      -0.1218
      2  CA        14.5580  -10.0950   50.8590 C.3    36  THR36       0.1862
      3  C         13.1470   -9.6620   51.3680 C.2    36  THR36       0.2287
      4  O         13.0050   -8.5860   51.9610 O.2    36  THR36      -0.2866
      5  CB        15.1390  -11.1770   51.7900 C.3    36  THR36       0.1770
      6  OG1       15.0300  -10.7200   53.1370 O.3    36  THR36      -0.2211
      7  CG2       16.5840  -11.5350   51.4370 C.3    36  THR36       0.0375
      8  N         18.9700   -6.6420   53.7350 N.3    41  HIS41      -0.1226
      9  CA        19.7250   -6.0030   52.6660 C.3    41  HIS41       0.1752
     10  C         20.6810   -7.0090   52.0200 C.2    41  HIS41       0.2596
     11  O         21.4080   -7.7140   52.7280 O.2    41  HIS41      -0.2718
     12  CB        20.5240   -4.8250   53.2410 C.3    41  HIS41       0.0759
     13  CG        21.4620   -4.2070   52.2450 C.ar   41  HIS41       0.0818
     14  ND1       21.0560   -3.1900   51.4100 N.ar   41  HIS41      -0.2268
     15  CD2       22.7370   -4.5460   51.9410 C.ar   41  HIS41       0.1154
     16  CE1       22.1040   -2.9200   50.6430 C.ar   41  HIS41       0.1986
     17  NE2       23.1360   -3.7170   50.9200 N.ar   41  HIS41      -0.2212
     18  N         20.7110   -7.0550   50.6820 N.am   42  PHE42      -0.1962
     19  CA        21.7050   -7.8750   50.0120 C.3    42  PHE42       0.1771
     20  C         22.3390   -7.1890   48.8180 C.2    42  PHE42       0.2619
     21  O         23.3280   -7.6940   48.3130 O.2    42  PHE42      -0.2715
     22  CB        21.1840   -9.2620   49.6400 C.3    42  PHE42       0.0574
     23  CG        20.0600   -9.2720   48.6460 C.ar   42  PHE42      -0.0200
     24  CD1       20.3170   -9.2070   47.2790 C.ar   42  PHE42      -0.0042
     25  CD2       18.7410   -9.3070   49.0670 C.ar   42  PHE42      -0.0042
     26  CE1       19.2790   -9.1790   46.3610 C.ar   42  PHE42      -0.0003
     27  CE2       17.7000   -9.3040   48.1370 C.ar   42  PHE42      -0.0003
     28  CZ        17.9790   -9.2590   46.7900 C.ar   42  PHE42      -0.0000
     29  N         21.7900   -6.0570   48.3480 N.am   43  CYS43      -0.1968
     30  CA        22.3620   -5.3560   47.1990 C.3    43  CYS43       0.1712
     31  C         21.9270   -3.9240   47.2270 C.2    43  CYS43       0.2296
     32  O         20.9110   -3.5870   47.8340 O.2    43  CYS43      -0.2864
     33  CB        21.9180   -5.9910   45.8740 C.3    43  CYS43       0.0983
     34  SG        22.9840   -7.3390   45.2850 S.3    43  CYS43      -0.0798
     35  N         23.6170  -10.1000   38.9880 N.3    58  HIS58      -0.1226
     36  CA        23.9700  -11.1150   39.9760 C.3    58  HIS58       0.1752
     37  C         23.1600  -10.9910   41.2650 C.2    58  HIS58       0.2596
     38  O         23.0120  -11.9710   41.9990 O.2    58  HIS58      -0.2718
     39  CB        25.4760  -11.1420   40.2410 C.3    58  HIS58       0.0759
     40  CG        25.9760  -10.0100   41.0810 C.ar   58  HIS58       0.0818
     41  ND1       26.7570   -9.0080   40.5440 N.ar   58  HIS58      -0.2268
     42  CD2       25.8640   -9.7900   42.4110 C.ar   58  HIS58       0.1154
     43  CE1       27.0650   -8.2020   41.5470 C.ar   58  HIS58       0.1986
     44  NE2       26.5010   -8.6030   42.6780 N.ar   58  HIS58      -0.2212
     45  N         22.5860   -9.8250   41.5210 N.am   59  CYS59      -0.1970
     46  CA        21.7170   -9.6260   42.6820 C.3    59  CYS59       0.1712
     47  C         20.4220  -10.4010   42.5680 C.2    59  CYS59       0.2296
     48  O         19.7620  -10.6480   43.5810 O.2    59  CYS59      -0.2864
     49  CB        21.4130   -8.1410   42.8660 C.3    59  CYS59       0.0983
     50  SG        22.8550   -7.1220   43.2610 S.3    59  CYS59      -0.0798
     51  N         19.5160  -15.7150   41.7790 N.3    62  LYS62      -0.1231
     52  CA        19.0240  -16.8420   42.5830 C.3    62  LYS62       0.1693
     53  C         17.5270  -17.0510   42.4400 C.2    62  LYS62       0.2592
     54  O         17.0710  -18.1910   42.5510 O.2    62  LYS62      -0.2718
     55  CB        19.3120  -16.6050   44.0680 C.3    62  LYS62       0.0285
     56  CG        20.7010  -16.9850   44.5150 C.3    62  LYS62       0.0035
     57  CD        20.5380  -17.9750   45.6230 C.3    62  LYS62       0.0206
     58  CE        21.7290  -18.1150   46.5160 C.3    62  LYS62       0.1093
     59  NZ        22.5220  -19.2550   46.0680 N.3    62  LYS62      -0.1314
     60  N         16.7570  -15.9610   42.2720 N.am   63  SER63      -0.1952
     61  CA        15.3180  -16.0750   42.2180 C.3    63  SER63       0.1924
     62  C         14.7390  -15.3020   41.1000 C.2    63  SER63       0.2314
     63  O         14.9020  -14.0770   41.0710 O.2    63  SER63      -0.2863
     64  CB        14.6630  -15.7050   43.5400 C.3    63  SER63       0.2116
     65  OG        13.2550  -15.7380   43.3580 O.3    63  SER63      -0.2180
     66  N         11.5550  -15.0140   41.0110 N.3    65  ARG65      -0.1245
     67  CA        10.2560  -14.6590   41.5710 C.3    65  ARG65       0.1563
     68  C         10.2660  -13.2160   42.0720 C.2    65  ARG65       0.2260
     69  O         10.9970  -12.8840   43.0080 O.2    65  ARG65      -0.2867
     70  CB         9.8980  -15.6360   42.6900 C.3    65  ARG65       0.0307
     71  CG         9.8970  -17.0900   42.2120 C.3    65  ARG65       0.0489
     72  CD         9.7300  -18.1160   43.3250 C.3    65  ARG65       0.2205
     73  NE        10.7510  -17.9880   44.3760 N.pl3  65  ARG65      -0.0865
     74  CZ        12.0110  -18.4150   44.2700 C.cat  65  ARG65       0.5346
     75  NH1       12.4280  -19.0120   43.1600 N.pl3  65  ARG65       0.1354
     76  NH2       12.8590  -18.2500   45.2750 N.pl3  65  ARG65       0.1354
     77  N         10.2620  -12.4310   45.7500 N.3    68  SER68      -0.1202
     78  CA        11.4680  -12.6200   46.5870 C.3    68  SER68       0.2020
     79  C         12.0900  -11.2900   46.9870 C.2    68  SER68       0.2618
     80  O         13.0060  -11.2710   47.8210 O.2    68  SER68      -0.2717
     81  CB        12.5400  -13.3920   45.8280 C.3    68  SER68       0.2103
     82  OG        12.1190  -14.7170   45.5640 O.3    68  SER68      -0.2182
     83  N         11.6540  -10.1940   46.3490 N.am   69  TYR69      -0.1975
     84  CA        12.3570   -8.9350   46.5270 C.3    69  TYR69       0.1639
     85  C         11.4960   -7.7550   46.8700 C.2    69  TYR69       0.2290
     86  O         10.3930   -7.6040   46.3460 O.2    69  TYR69      -0.2864
     87  CB        13.0650   -8.5700   45.2000 C.3    69  TYR69       0.0560
     88  CG        13.9050   -9.6540   44.5670 C.ar   69  TYR69      -0.0198
     89  CD1       15.2100   -9.8780   44.9820 C.ar   69  TYR69      -0.0009
     90  CD2       13.4090  -10.4300   43.5240 C.ar   69  TYR69      -0.0009
     91  CE1       15.9840  -10.8840   44.4260 C.ar   69  TYR69       0.0417
     92  CE2       14.1760  -11.4460   42.9580 C.ar   69  TYR69       0.0417
     93  CZ        15.4730  -11.6510   43.4040 C.ar   69  TYR69       0.1957
     94  OH        16.2980  -12.6160   42.8930 O.3    69  TYR69      -0.2866
     95  N         36.9920    2.0040   48.6470 N.3   190  ASP190     -0.1225
     96  CA        36.3770    1.1510   47.6110 C.3   190  ASP190      0.1805
     97  C         34.9790    0.7360   47.9680 C.2   190  ASP190      0.2598
     98  O         34.6070    0.7880   49.1330 O.2   190  ASP190     -0.2718
     99  CB        37.2080   -0.1380   47.4480 C.3   190  ASP190      0.1424
    100  CG        37.1390   -0.8880   46.1350 C.2   190  ASP190      0.3668
    101  OD1       36.3030   -0.5330   45.2800 O.co2 190  ASP190     -0.2456
    102  OD2       37.9350   -1.8330   45.9640 O.co2 190  ASP190     -0.2456
    103  N         34.2280    0.2440   46.9840 N.am  191  SER191     -0.1938
    104  CA        32.9730   -0.4470   47.2310 C.3   191  SER191      0.2055
    105  C         33.3420   -1.8440   47.7130 C.2   191  SER191      0.2643
    106  O         34.4460   -2.3380   47.4200 O.2   191  SER191     -0.2714
    107  CB        32.1470   -0.5270   45.9600 C.3   191  SER191      0.2130
    108  OG        32.9250   -1.0790   44.9110 O.3   191  SER191     -0.2179
    109  N         32.4690   -2.4580   48.5060 N.am  192  CYS192     -0.1953
    110  CA        32.7760   -3.7530   49.1020 C.3   192  CYS192      0.1843
    111  C         31.5090   -4.5900   49.2430 C.2   192  CYS192      0.2625
    112  O         30.4440   -4.1690   48.7640 O.2   192  CYS192     -0.2714
    113  CB        33.5130   -3.5370   50.4270 C.3   192  CYS192      0.0997
    114  SG        34.5120   -4.9400   50.9860 S.3   192  CYS192     -0.0797
    115  N         31.6060   -5.8030   49.8190 N.am  193  GLN193     -0.1963
    116  CA        30.4540   -6.7050   49.8620 C.3   193  GLN193      0.1733
    117  C         29.2170   -6.0360   50.4040 C.2   193  GLN193      0.2616
    118  O         29.2640   -5.4810   51.4950 O.2   193  GLN193     -0.2715
    119  CB        30.7470   -7.9540   50.6900 C.3   193  GLN193      0.0408
    120  CG        31.7390   -8.9310   50.0800 C.3   193  GLN193      0.0908
    121  CD        33.1710   -8.5360   50.3750 C.2   193  GLN193      0.2608
    122  OE1       33.5880   -8.4000   51.5350 O.2   193  GLN193     -0.2717
    123  NE2       33.9610   -8.3600   49.3390 N.am  193  GLN193     -0.0878
    124  N         28.1310   -6.1040   49.6390 N.am  194  GLY194     -0.1955
    125  CA        26.8820   -5.4650   50.0340 C.3   194  GLY194      0.1869
    126  C         26.6260   -4.1710   49.2860 C.2   194  GLY194      0.2309
    127  O         25.5180   -3.6180   49.3540 O.2   194  GLY194     -0.2863
    128  N         27.3070   -4.0930   45.8530 N.3   196  SER196     -0.1217
    129  CA        27.0280   -4.4130   44.4670 C.3   196  SER196      0.1889
    130  C         25.5980   -4.1160   44.0890 C.2   196  SER196      0.2288
    131  O         24.6690   -4.1720   44.9140 O.2   196  SER196     -0.2866
    132  CB        27.4130   -5.8310   44.1010 C.3   196  SER196      0.2089
    133  OG        26.5160   -6.7520   44.7010 O.3   196  SER196     -0.2183
    134  N         27.8430   -1.0410   40.4060 N.3   214  THR214     -0.1203
    135  CA        28.8630   -1.7960   41.1520 C.3   214  THR214      0.1994
    136  C         28.7310   -3.2880   40.8630 C.2   214  THR214      0.2619
    137  O         27.6720   -3.8880   41.0820 O.2   214  THR214     -0.2717
    138  CB        28.7310   -1.4810   42.6180 C.3   214  THR214      0.1784
    139  OG1       28.8400   -0.0730   42.7670 O.3   214  THR214     -0.2211
    140  CG2       29.7920   -2.1690   43.4610 C.3   214  THR214      0.0376
    141  N         29.8220   -3.8890   40.3650 N.am  215  SER215     -0.1937
    142  CA        29.7600   -5.2550   39.8940 C.3   215  SER215      0.2055
    143  C         30.7010   -6.2080   40.6160 C.2   215  SER215      0.2643
    144  O         30.2160   -7.1410   41.2760 O.2   215  SER215     -0.2714
    145  CB        29.9660   -5.2700   38.3820 C.3   215  SER215      0.2130
    146  OG        29.8730   -6.5700   37.8300 O.3   215  SER215     -0.2179
    147  N         32.0290   -6.0380   40.5000 N.am  216  TRP216     -0.1959
    148  CA        32.9400   -7.0000   41.1070 C.3   216  TRP216      0.1771
    149  C         34.2850   -6.3560   41.3520 C.2   216  TRP216      0.2620
    150  O         34.5380   -5.2280   40.9260 O.2   216  TRP216     -0.2715
    151  CB        33.0980   -8.2560   40.1930 C.3   216  TRP216      0.0590
    152  CG        33.7020   -7.9900   38.8370 C.ar  216  TRP216      0.0006
    153  CD1       33.0410   -7.6270   37.7010 C.ar  216  TRP216      0.0946
    154  CD2       35.0780   -8.1410   38.4680 C.ar  216  TRP216      0.0152
    155  NE1       33.9210   -7.5440   36.6380 N.ar  216  TRP216     -0.2442
    156  CE2       35.1820   -7.8370   37.0880 C.ar  216  TRP216      0.0810
    157  CE3       36.2370   -8.5410   39.1610 C.ar  216  TRP216      0.0012
    158  CZ2       36.4030   -7.8930   36.3930 C.ar  216  TRP216      0.0191
    159  CZ3       37.4550   -8.5580   38.4810 C.ar  216  TRP216      0.0001
    160  CH2       37.5270   -8.2550   37.1130 C.ar  216  TRP216      0.0015
    161  N         35.1530   -7.0910   42.0190 N.am  217  GLY217     -0.1954
    162  CA        36.5270   -6.6840   42.2040 C.3   217  GLY217      0.1869
    163  C         37.3230   -7.8380   42.7590 C.2   217  GLY217      0.2309
    164  O         36.7660   -8.8940   43.1050 O.2   217  GLY217     -0.2863
    165  N         38.8270   -8.4840   45.7780 N.3   219  GLY219     -0.1210
    166  CA        38.7560   -7.9430   47.1280 C.3   219  GLY219      0.1956
    167  C         38.2540   -6.5040   47.1110 C.2   219  GLY219      0.2612
    168  O         37.7230   -6.0160   46.0930 O.2   219  GLY219     -0.2717
    169  N         38.4560   -5.8120   48.2340 N.am  220  CYS220     -0.1970
    170  CA        38.0740   -4.4140   48.4150 C.3   220  CYS220      0.1712
    171  C         39.2520   -3.6210   48.8420 C.2   220  CYS220      0.2296
    172  O         39.9200   -3.9980   49.8170 O.2   220  CYS220     -0.2864
    173  CB        36.9740   -4.2400   49.4570 C.3   220  CYS220      0.0983
    174  SG        35.6420   -5.4420   49.3700 S.3   220  CYS220     -0.0798
    175  N         37.9790   -1.3270   41.6560 N.3   227  GLY227     -0.1210
    176  CA        36.7190   -2.0030   41.3920 C.3   227  GLY227      0.1956
    177  C         36.2670   -1.8790   39.9560 C.2   227  GLY227      0.2611
    178  O         36.5900   -0.9150   39.2420 O.2   227  GLY227     -0.2717
    179  N         35.4130   -2.8310   39.5850 N.am  228  VAL228     -0.1979
    180  CA        34.8330   -2.9260   38.2530 C.3   228  VAL228      0.1595
    181  C         33.3400   -2.7050   38.3390 C.2   228  VAL228      0.2287
    182  O         32.6490   -3.2370   39.2260 O.2   228  VAL228     -0.2864
    183  CB        35.2020   -4.2470   37.5580 C.3   228  VAL228      0.0276
    184  CG1       34.7100   -4.2710   36.1100 C.3   228  VAL228      0.0022
    185  CG2       36.7090   -4.4510   37.5940 C.3   228  VAL228      0.0022
@<TRIPOS>BOND
     1   184   183    1
     2   158   156   ar
     3   158   160   ar
     4   155   156   ar
     5   155   153   ar
     6   156   154   ar
     7   160   159   ar
     8   183   185    1
     9   183   180    1
    10   153   152   ar
    11   146   145    1
    12   180   181    1
    13   180   179    1
    14   181   182    2
    15   145   142    1
    16   154   152   ar
    17   154   157   ar
    18   159   157   ar
    19   152   151    1
    20    35    36    1
    21   178   177    2
    22   179   177   am
    23   142   141    1
    24   142   143    1
    25   177   176    1
    26    36    39    1
    27    36    37    1
    28   151   148    1
    29    39    40    1
    30   141   136   am
    31   134   135    1
    32   147   143   am
    33   147   148    1
    34    41    40   ar
    35    41    43   ar
    36   143   144    2
    37   136   137    2
    38   136   135    1
    39   150   149    2
    40    66    67    1
    41    63    62    2
    42    40    42   ar
    43    62    61    1
    44   148   149    1
    45   135   138    1
    46    37    45   am
    47    37    38    2
    48   149   161   am
    49   176   175    1
    50    45    46    1
    51    43    44   ar
    52    67    68    1
    53    67    70    1
    54    51    52    1
    55   161   162    1
    56    68    69    2
    57   162   163    1
    58    71    70    1
    59    71    72    1
    60    61    60    1
    61    61    64    1
    62    60    53   am
    63    42    44   ar
    64    53    54    2
    65    53    52    1
    66    47    46    1
    67    47    48    2
    68    52    55    1
    69   138   139    1
    70   138   140    1
    71    46    49    1
    72   163   164    2
    73    49    50    1
    74    94    93    1
    75    92    93   ar
    76    92    90   ar
    77    75    74    1
    78    50    34    1
    79    72    73    1
    80    65    64    1
    81    93    91   ar
    82    90    88   ar
    83    55    56    1
    84   130   129    1
    85   130   131    2
    86   132   129    1
    87   132   133    1
    88    74    73    2
    89    74    76    1
    90    91    89   ar
    91   129   128    1
    92    56    57    1
    93    88    89   ar
    94    88    87    1
    95   108   107    1
    96    87    84    1
    97   101   100   ar
    98    34    33    1
    99    82    81    1
   100    57    58    1
   101    77    78    1
   102   165   166    1
   103    81    78    1
   104    33    30    1
   105   107   104    1
   106   102   100   ar
   107    59    58    1
   108   168   167    2
   109   100    99    1
   110    86    85    2
   111    83    84    1
   112    83    79   am
   113    26    28   ar
   114    26    24   ar
   115    84    85    1
   116    78    79    1
   117    28    27   ar
   118   103   104    1
   119   103    97   am
   120    79    80    2
   121   167   166    1
   122   167   169   am
   123    30    31    1
   124    30    29    1
   125    31    32    2
   126   104   105    1
   127    24    23   ar
   128   106   105    2
   129    99    96    1
   130    96    97    1
   131    96    95    1
   132   105   109   am
   133    97    98    2
   134    27    25   ar
   135   169   170    1
   136    21    20    2
   137    29    20   am
   138   170   171    1
   139   170   173    1
   140   109   110    1
   141    23    25   ar
   142    23    22    1
   143   112   111    2
   144    20    19    1
   145   171   172    2
   146   110   111    1
   147   110   113    1
   148   111   115   am
   149   126   127    2
   150   126   125    1
   151   123   121   am
   152   174   173    1
   153   174   114    1
   154   124   125    1
   155   124   117   am
   156    22    19    1
   157   115   116    1
   158   116   117    1
   159   116   119    1
   160    19    18    1
   161   120   121    1
   162   120   119    1
   163   121   122    2
   164   117   118    2
   165   113   114    1
   166    16    17   ar
   167    16    14   ar
   168    18    10   am
   169     2     1    1
   170     2     3    1
   171     2     5    1
   172    17    15   ar
   173     3     4    2
   174    14    13   ar
   175     7     5    1
   176     5     6    1
   177    15    13   ar
   178    10     9    1
   179    10    11    2
   180    13    12    1
   181     9    12    1
   182     9     8    1
