@<TRIPOS>MOLECULE
tmp/5ughB00.pdb
 93 91 0 0 0
SMALL
GASTEIGER

@<TRIPOS>ATOM
      1  N         72.1010   14.2160   53.2030 N.3   111  PHE111     -0.1241
      2  CA        73.3250   13.7610   53.8560 C.3   111  PHE111      0.1605
      3  C         74.0900   12.7670   52.9920 C.2   111  PHE111      0.2264
      4  O         73.4990   11.9730   52.2560 O.2   111  PHE111     -0.2867
      5  CB        73.0250   13.1100   55.2040 C.3   111  PHE111      0.0534
      6  CG        72.3700   14.0220   56.1960 C.ar  111  PHE111     -0.0203
      7  CD1       70.9910   14.1250   56.2570 C.ar  111  PHE111     -0.0042
      8  CD2       73.1350   14.7660   57.0810 C.ar  111  PHE111     -0.0042
      9  CE1       70.3860   14.9560   57.1800 C.ar  111  PHE111     -0.0003
     10  CE2       72.5370   15.5960   58.0040 C.ar  111  PHE111     -0.0003
     11  CZ        71.1620   15.6900   58.0560 C.ar  111  PHE111     -0.0000
     12  N         74.7620    7.1790   59.6760 N.3   245  GLY245     -0.1210
     13  CA        74.8880    8.5370   59.1810 C.3   245  GLY245      0.1956
     14  C         73.6930    9.3750   59.5680 C.2   245  GLY245      0.2611
     15  O         73.4370    9.5910   60.7510 O.2   245  GLY245     -0.2717
     16  N         72.9600    9.8430   58.5610 N.am  246  ALA246     -0.1979
     17  CA        71.7510   10.6250   58.7740 C.3   246  ALA246      0.1597
     18  C         70.9530   10.6770   57.4750 C.2   246  ALA246      0.2287
     19  O         71.4800   10.3560   56.4110 O.2   246  ALA246     -0.2864
     20  CB        72.0920   12.0340   59.2560 C.3   246  ALA246      0.0319
     21  N         80.3320   12.2180   58.0100 N.3   285  LEU285     -0.1245
     22  CA        78.9840   12.6180   57.6500 C.3   285  LEU285      0.1561
     23  C         79.0410   13.9960   57.0060 C.2   285  LEU285      0.2260
     24  O         79.7190   14.8940   57.5060 O.2   285  LEU285     -0.2867
     25  CB        78.0780   12.6410   58.8820 C.3   285  LEU285      0.0270
     26  CG        76.6270   13.0800   58.6540 C.3   285  LEU285      0.0019
     27  CD1       75.8610   12.0270   57.8620 C.3   285  LEU285      0.0001
     28  CD2       75.9350   13.3870   59.9780 C.3   285  LEU285      0.0001
     29  N         76.5260   17.0270   55.5220 N.3   287  GLN287     -0.1245
     30  CA        75.2080   17.5750   55.2560 C.3   287  GLN287      0.1566
     31  C         75.3030   18.6910   54.2440 C.2   287  GLN287      0.2260
     32  O         76.1870   19.5450   54.3170 O.2   287  GLN287     -0.2867
     33  CB        74.5270   18.1120   56.5250 C.3   287  GLN287      0.0367
     34  CG        73.0770   18.5560   56.2480 C.3   287  GLN287      0.0905
     35  CD        72.3960   19.2570   57.4140 C.2   287  GLN287      0.2608
     36  OE1       72.8900   20.2590   57.9340 O.2   287  GLN287     -0.2717
     37  NE2       71.2310   18.7510   57.8060 N.am  287  GLN287     -0.0878
     38  N         78.1180   21.0760   55.8830 N.3   301  SER301     -0.1202
     39  CA        78.5280   20.8310   57.2560 C.3   301  SER301      0.2020
     40  C         79.1150   19.4310   57.3260 C.2   301  SER301      0.2619
     41  O         78.5910   18.5010   56.7070 O.2   301  SER301     -0.2717
     42  CB        77.3430   20.9840   58.2110 C.3   301  SER301      0.2103
     43  OG        77.7670   21.1650   59.5490 O.3   301  SER301     -0.2182
     44  N         80.2090   19.2790   58.0680 N.am  302  ILE302     -0.1965
     45  CA        80.9390   18.0150   58.0750 C.3   302  ILE302      0.1727
     46  C         81.2400   17.5130   59.4860 C.2   302  ILE302      0.2616
     47  O         81.7170   18.2580   60.3350 O.2   302  ILE302     -0.2715
     48  CB        82.2580   18.1370   57.2790 C.3   302  ILE302      0.0290
     49  CG1       81.9580   18.4480   55.8070 C.3   302  ILE302      0.0022
     50  CG2       83.0820   16.8590   57.3950 C.3   302  ILE302      0.0023
     51  CD1       83.1920   18.5990   54.9460 C.3   302  ILE302      0.0001
     52  N         80.9430   16.2370   59.7150 N.am  303  PHE303     -0.1960
     53  CA        81.1870   15.5730   60.9890 C.3   303  PHE303      0.1771
     54  C         82.0630   14.3470   60.7440 C.2   303  PHE303      0.2620
     55  O         81.6460   13.4270   60.0370 O.2   303  PHE303     -0.2715
     56  CB        79.8500   15.1870   61.6300 C.3   303  PHE303      0.0574
     57  CG        79.9590   14.6410   63.0240 C.ar  303  PHE303     -0.0200
     58  CD1       80.8530   15.1780   63.9380 C.ar  303  PHE303     -0.0042
     59  CD2       79.1240   13.6160   63.4360 C.ar  303  PHE303     -0.0042
     60  CE1       80.9310   14.6770   65.2230 C.ar  303  PHE303     -0.0003
     61  CE2       79.1940   13.1170   64.7210 C.ar  303  PHE303     -0.0003
     62  CZ        80.1000   13.6460   65.6150 C.ar  303  PHE303     -0.0000
     63  N         83.2790   14.3320   61.2910 N.am  304  HIS304     -0.1959
     64  CA        84.1520   13.1760   61.0750 C.3   304  HIS304      0.1787
     65  C         84.2170   12.2560   62.2930 C.2   304  HIS304      0.2620
     66  O         85.0440   11.3440   62.3440 O.2   304  HIS304     -0.2715
     67  CB        85.5660   13.6110   60.6410 C.3   304  HIS304      0.0785
     68  CG        86.3100   14.4560   61.6370 C.ar  304  HIS304      0.0821
     69  ND1       86.2210   14.2710   62.9990 N.ar  304  HIS304     -0.2267
     70  CD2       87.1990   15.4600   61.4540 C.ar  304  HIS304      0.1154
     71  CE1       87.0010   15.1430   63.6150 C.ar  304  HIS304      0.1986
     72  NE2       87.6100   15.8740   62.7000 N.ar  304  HIS304     -0.2212
     73  N         83.3440   12.5110   63.2660 N.am  305  TYR305     -0.1974
     74  CA        83.1850   11.6530   64.4420 C.3   305  TYR305      0.1639
     75  C         84.4650   11.5230   65.2710 C.2   305  TYR305      0.2290
     76  O         84.5430   10.6820   66.1620 O.2   305  TYR305     -0.2864
     77  CB        82.7070   10.2540   64.0280 C.3   305  TYR305      0.0560
     78  CG        81.3870   10.2260   63.2860 C.ar  305  TYR305     -0.0198
     79  CD1       81.3410   10.4020   61.9080 C.ar  305  TYR305     -0.0009
     80  CD2       80.1890    9.9990   63.9570 C.ar  305  TYR305     -0.0009
     81  CE1       80.1380   10.3720   61.2180 C.ar  305  TYR305      0.0417
     82  CE2       78.9790    9.9630   63.2720 C.ar  305  TYR305      0.0417
     83  CZ        78.9630   10.1530   61.9020 C.ar  305  TYR305      0.1957
     84  OH        77.7710   10.1190   61.2050 O.3   305  TYR305     -0.2866
     85  N         87.1870   19.5530   61.1770 N.3   312  GLU312     -0.1245
     86  CA        86.1030   19.5330   60.2090 C.3   312  GLU312      0.1567
     87  C         86.0970   20.8170   59.3820 C.2   312  GLU312      0.2260
     88  O         85.6620   20.8180   58.2300 O.2   312  GLU312     -0.2867
     89  CB        84.7740   19.3120   60.9230 C.3   312  GLU312      0.0388
     90  CG        84.6180   17.8780   61.4070 C.3   312  GLU312      0.1160
     91  CD        83.9990   17.7740   62.7810 C.2   312  GLU312      0.3649
     92  OE1       83.9770   18.7880   63.5120 O.co2 312  GLU312     -0.2457
     93  OE2       83.5340   16.6700   63.1320 O.co2 312  GLU312     -0.2457
@<TRIPOS>BOND
     1     4     3    2
     2     3     2    1
     3     1     2    1
     4     2     5    1
     5    31    32    2
     6    31    30    1
     7    51    49    1
     8     5     6    1
     9    30    29    1
    10    30    33    1
    11    49    48    1
    12    38    39    1
    13     6     7   ar
    14     6     8   ar
    15    34    33    1
    16    34    35    1
    17     7     9   ar
    18    19    18    2
    19    41    40    2
    20    23    24    2
    21    23    22    1
    22     8    10   ar
    23     9    11   ar
    24    39    40    1
    25    39    42    1
    26    48    50    1
    27    48    45    1
    28    40    44   am
    29    35    37   am
    30    35    36    2
    31    18    17    1
    32    22    21    1
    33    22    25    1
    34    27    26    1
    35    10    11   ar
    36    44    45    1
    37    45    46    1
    38    42    43    1
    39    88    87    2
    40    16    17    1
    41    16    14   am
    42    26    25    1
    43    26    28    1
    44    17    20    1
    45    13    14    1
    46    13    12    1
    47    87    86    1
    48    46    52   am
    49    46    47    2
    50    14    15    2
    51    52    53    1
    52    55    54    2
    53    86    89    1
    54    86    85    1
    55    67    64    1
    56    67    68    1
    57    54    53    1
    58    54    63   am
    59    89    90    1
    60    53    56    1
    61    64    63    1
    62    64    65    1
    63    84    83    1
    64    81    83   ar
    65    81    79   ar
    66    90    91    1
    67    70    68   ar
    68    70    72   ar
    69    56    57    1
    70    68    69   ar
    71    83    82   ar
    72    79    78   ar
    73    65    66    2
    74    65    73   am
    75    72    71   ar
    76    91    93   ar
    77    91    92   ar
    78    69    71   ar
    79    57    59   ar
    80    57    58   ar
    81    73    74    1
    82    82    80   ar
    83    78    80   ar
    84    78    77    1
    85    59    61   ar
    86    58    60   ar
    87    77    74    1
    88    74    75    1
    89    61    62   ar
    90    60    62   ar
    91    75    76    2
