@<TRIPOS>MOLECULE
tmp/5ughA00.pdb
 93 91 0 0 0
SMALL
GASTEIGER

@<TRIPOS>ATOM
      1  N          9.4730    4.7560   25.8780 N.3   115  PHE115     -0.1241
      2  CA         8.4460    3.9550   25.2190 C.3   115  PHE115      0.1605
      3  C          8.0820    2.6980   25.9980 C.2   115  PHE115      0.2264
      4  O          8.9170    2.1120   26.6890 O.2   115  PHE115     -0.2867
      5  CB         8.8880    3.5390   23.8130 C.3   115  PHE115      0.0534
      6  CG         9.1330    4.6840   22.8770 C.ar  115  PHE115     -0.0203
      7  CD1       10.3900    5.2580   22.7720 C.ar  115  PHE115     -0.0042
      8  CD2        8.1090    5.1650   22.0740 C.ar  115  PHE115     -0.0042
      9  CE1       10.6180    6.3020   21.8960 C.ar  115  PHE115     -0.0003
     10  CE2        8.3310    6.2060   21.1930 C.ar  115  PHE115     -0.0003
     11  CZ         9.5870    6.7770   21.1050 C.ar  115  PHE115     -0.0000
     12  N          9.0710   -2.1700   18.7520 N.3   249  GLY249     -0.1210
     13  CA         8.5180   -0.9850   19.3870 C.3   249  GLY249      0.1956
     14  C          9.3450    0.2560   19.1140 C.2   249  GLY249      0.2611
     15  O          9.4850    0.6740   17.9660 O.2   249  GLY249     -0.2717
     16  N          9.8960    0.8400   20.1760 N.am  250  ALA250     -0.1979
     17  CA        10.7680    2.0050   20.0660 C.3   250  ALA250      0.1597
     18  C         11.5410    2.2100   21.3660 C.2   250  ALA250      0.2287
     19  O         11.1690    1.6730   22.4060 O.2   250  ALA250     -0.2864
     20  CB         9.9630    3.2500   19.7270 C.3   250  ALA250      0.0319
     21  N          2.1510    0.6470   20.9530 N.3   289  LEU289     -0.1245
     22  CA         3.2950    1.4490   21.3630 C.3   289  LEU289      0.1561
     23  C          2.8420    2.6890   22.1270 C.2   289  LEU289      0.2260
     24  O          1.9060    3.3790   21.7140 O.2   289  LEU289     -0.2867
     25  CB         4.1270    1.8640   20.1490 C.3   289  LEU289      0.0270
     26  CG         5.3420    2.7470   20.4560 C.3   289  LEU289      0.0019
     27  CD1        6.4050    1.9520   21.2090 C.3   289  LEU289      0.0001
     28  CD2        5.9160    3.3500   19.1860 C.3   289  LEU289      0.0001
     29  N          4.3300    6.2780   23.8280 N.3   291  GLN291     -0.1245
     30  CA         5.4030    7.2230   24.1340 C.3   291  GLN291      0.1566
     31  C          4.9870    8.2090   25.2110 C.2   291  GLN291      0.2260
     32  O          3.8610    8.7070   25.2110 O.2   291  GLN291     -0.2867
     33  CB         5.8590    8.0160   22.9020 C.3   291  GLN291      0.0367
     34  CG         7.1060    8.8690   23.2110 C.3   291  GLN291      0.0905
     35  CD         7.5060    9.8240   22.1000 C.2   291  GLN291      0.2608
     36  OE1        6.7170   10.6600   21.6670 O.2   291  GLN291     -0.2717
     37  NE2        8.7490    9.7160   21.6490 N.am  291  GLN291     -0.0878
     38  N          1.5110    9.5600   23.8510 N.3   305  SER305     -0.1202
     39  CA         1.1600    9.2270   22.4790 C.3   305  SER305      0.2020
     40  C          1.0300    7.7180   22.3180 C.2   305  SER305      0.2619
     41  O          1.8190    6.9570   22.8820 O.2   305  SER305     -0.2717
     42  CB         2.2060    9.7900   21.5140 C.3   305  SER305      0.2103
     43  OG         1.7030    9.8560   20.1920 O.3   305  SER305     -0.2182
     44  N          0.0310    7.2880   21.5520 N.am  306  ILE306     -0.1965
     45  CA        -0.2810    5.8660   21.4300 C.3   306  ILE306      0.1727
     46  C         -0.4110    5.4310   19.9720 C.2   306  ILE306      0.2616
     47  O         -1.1050    6.0680   19.1770 O.2   306  ILE306     -0.2715
     48  CB        -1.5940    5.5090   22.1690 C.3   306  ILE306      0.0290
     49  CG1       -1.4810    5.8090   23.6630 C.3   306  ILE306      0.0022
     50  CG2       -1.9720    4.0470   21.9400 C.3   306  ILE306      0.0023
     51  CD1       -2.7440    5.4930   24.4320 C.3   306  ILE306      0.0001
     52  N          0.2660    4.3380   19.6390 N.am  307  PHE307     -0.1960
     53  CA         0.2230    3.7490   18.3090 C.3   307  PHE307      0.1771
     54  C         -0.2240    2.2940   18.4510 C.2   307  PHE307      0.2620
     55  O          0.4790    1.4920   19.0710 O.2   307  PHE307     -0.2715
     56  CB         1.6030    3.8530   17.6470 C.3   307  PHE307      0.0574
     57  CG         1.6330    3.4320   16.2060 C.ar  307  PHE307     -0.0200
     58  CD1        0.6010    3.7670   15.3430 C.ar  307  PHE307     -0.0042
     59  CD2        2.7140    2.7210   15.7060 C.ar  307  PHE307     -0.0042
     60  CE1        0.6370    3.3850   14.0120 C.ar  307  PHE307     -0.0003
     61  CE2        2.7570    2.3400   14.3750 C.ar  307  PHE307     -0.0003
     62  CZ         1.7160    2.6730   13.5280 C.ar  307  PHE307     -0.0000
     63  N         -1.3880    1.9470   17.9040 N.am  308  HIS308     -0.1959
     64  CA        -1.8650    0.5710   18.0290 C.3   308  HIS308      0.1787
     65  C         -1.6810   -0.2490   16.7540 C.2   308  HIS308      0.2620
     66  O         -2.1970   -1.3630   16.6520 O.2   308  HIS308     -0.2715
     67  CB        -3.3360    0.5300   18.4930 C.3   308  HIS308      0.0785
     68  CG        -4.3210    1.1710   17.5590 C.ar  308  HIS308      0.0821
     69  ND1       -4.2300    1.0860   16.1860 N.ar  308  HIS308     -0.2267
     70  CD2       -5.4580    1.8630   17.8130 C.ar  308  HIS308      0.1154
     71  CE1       -5.2480    1.7210   15.6350 C.ar  308  HIS308      0.1986
     72  NE2       -6.0110    2.2010   16.6020 N.ar  308  HIS308     -0.2212
     73  N         -0.9490    0.3120   15.7930 N.am  309  TYR309     -0.1974
     74  CA        -0.5650   -0.3870   14.5640 C.3   309  TYR309      0.1639
     75  C         -1.7640   -0.8500   13.7310 C.2   309  TYR309      0.2290
     76  O         -1.6120   -1.6390   12.8000 O.2   309  TYR309     -0.2864
     77  CB         0.3330   -1.5920   14.8890 C.3   309  TYR309      0.0560
     78  CG         1.6140   -1.2400   15.6240 C.ar  309  TYR309     -0.0198
     79  CD1        1.6390   -1.1460   17.0110 C.ar  309  TYR309     -0.0009
     80  CD2        2.7970   -1.0030   14.9320 C.ar  309  TYR309     -0.0009
     81  CE1        2.8010   -0.8250   17.6890 C.ar  309  TYR309      0.0417
     82  CE2        3.9690   -0.6750   15.6060 C.ar  309  TYR309      0.0417
     83  CZ         3.9630   -0.5910   16.9840 C.ar  309  TYR309      0.1957
     84  OH         5.1150   -0.2680   17.6710 O.3   309  TYR309     -0.2866
     85  N         -6.7880    5.5760   18.3890 N.3   316  GLU316     -0.1245
     86  CA        -5.7200    5.8860   19.3290 C.3   316  GLU316      0.1567
     87  C         -6.0850    7.0390   20.2610 C.2   316  GLU316      0.2260
     88  O         -5.6300    7.0910   21.4010 O.2   316  GLU316     -0.2867
     89  CB        -4.4350    6.1940   18.5690 C.3   316  GLU316      0.0388
     90  CG        -3.7940    4.9500   17.9740 C.3   316  GLU316      0.1160
     91  CD        -3.2140    5.1820   16.5990 C.2   316  GLU316      0.3649
     92  OE1       -3.5770    6.1910   15.9630 O.co2 316  GLU316     -0.2457
     93  OE2       -2.3820    4.3580   16.1620 O.co2 316  GLU316     -0.2457
@<TRIPOS>BOND
     1    76    75    2
     2    62    60   ar
     3    62    61   ar
     4    75    74    1
     5    60    58   ar
     6    61    59   ar
     7    74    77    1
     8    74    73    1
     9    77    78    1
    10    80    82   ar
    11    80    78   ar
    12    58    57   ar
    13    82    83   ar
    14    78    79   ar
    15    71    69   ar
    16    71    72   ar
    17    59    57   ar
    18    73    65   am
    19    92    91   ar
    20    93    91   ar
    21    69    68   ar
    22    57    56    1
    23    91    90    1
    24    72    70   ar
    25    66    65    2
    26    65    64    1
    27    83    84    1
    28    83    81   ar
    29    79    81   ar
    30    68    70   ar
    31    68    67    1
    32    56    53    1
    33    63    64    1
    34    63    54   am
    35    15    14    2
    36    90    89    1
    37    64    67    1
    38    53    54    1
    39    53    52    1
    40    85    86    1
    41    54    55    2
    42    89    86    1
    43    12    13    1
    44    14    13    1
    45    14    16   am
    46    47    46    2
    47    28    26    1
    48    86    87    1
    49    52    46   am
    50    20    17    1
    51    46    45    1
    52    17    16    1
    53    17    18    1
    54    25    26    1
    55    25    22    1
    56    43    42    1
    57    87    88    2
    58    26    27    1
    59    21    22    1
    60    11    10   ar
    61    11     9   ar
    62    10     8   ar
    63    22    23    1
    64    18    19    2
    65    45    44    1
    66    45    48    1
    67    42    39    1
    68    44    40   am
    69    37    35   am
    70    36    35    2
    71    24    23    2
    72     9     7   ar
    73    50    48    1
    74     8     6   ar
    75    35    34    1
    76    48    49    1
    77    40    39    1
    78    40    41    2
    79    39    38    1
    80     7     6   ar
    81     6     5    1
    82    33    34    1
    83    33    30    1
    84    49    51    1
    85     5     2    1
    86    29    30    1
    87    30    31    1
    88    32    31    2
    89     2     1    1
    90     2     3    1
    91     3     4    2
