@<TRIPOS>MOLECULE
tmp/5ughB01.pdb
 111 110 0 0 0
SMALL
GASTEIGER

@<TRIPOS>ATOM
      1  N         80.3750   -4.4250   77.6460 N.3     5  GLU5       -0.1231
      2  CA        80.7790   -3.0820   78.0500 C.3     5  GLU5        0.1699
      3  C         81.4500   -2.3030   76.9210 C.2     5  GLU5        0.2593
      4  O         81.2850   -1.0890   76.8080 O.2     5  GLU5       -0.2718
      5  CB        81.7310   -3.1530   79.2500 C.3     5  GLU5        0.0402
      6  CG        81.0560   -3.4460   80.5780 C.3     5  GLU5        0.1161
      7  CD        80.3650   -2.2290   81.1580 C.2     5  GLU5        0.3649
      8  OE1       80.7030   -1.1010   80.7420 O.co2   5  GLU5       -0.2457
      9  OE2       79.4860   -2.3980   82.0270 O.co2   5  GLU5       -0.2457
     10  N         82.1970   -3.0080   76.0780 N.am    6  GLY6       -0.1942
     11  CA        82.9070   -2.3640   74.9880 C.3     6  GLY6        0.2014
     12  C         82.2710   -2.4730   73.6180 C.2     6  GLY6        0.2640
     13  O         82.7790   -1.9150   72.6490 O.2     6  GLY6       -0.2714
     14  N         81.1900   -3.2370   73.5280 N.am    7  THR7       -0.1936
     15  CA        80.4980   -3.4540   72.2600 C.3     7  THR7        0.2028
     16  C         79.0750   -2.9020   72.2260 C.2     7  THR7        0.2642
     17  O         78.4840   -2.6140   73.2640 O.2     7  THR7       -0.2714
     18  CB        80.4560   -4.9510   71.8850 C.3     7  THR7        0.1808
     19  OG1       79.5280   -5.6380   72.7350 O.3     7  THR7       -0.2208
     20  CG2       81.8310   -5.5730   72.0300 C.3     7  THR7        0.0379
     21  N         78.5340   -2.7350   71.0240 N.am    8  PHE8       -0.1959
     22  CA        77.1240   -2.3990   70.8960 C.3     8  PHE8        0.1771
     23  C         76.5410   -3.1100   69.6840 C.2     8  PHE8        0.2619
     24  O         77.2580   -3.4670   68.7450 O.2     8  PHE8       -0.2715
     25  CB        76.9020   -0.8830   70.7960 C.3     8  PHE8        0.0574
     26  CG        77.4600   -0.2440   69.5430 C.ar    8  PHE8       -0.0200
     27  CD1       78.7930    0.1330   69.4700 C.ar    8  PHE8       -0.0042
     28  CD2       76.6370    0.0090   68.4510 C.ar    8  PHE8       -0.0042
     29  CE1       79.3010    0.7400   68.3280 C.ar    8  PHE8       -0.0003
     30  CE2       77.1380    0.6170   67.3060 C.ar    8  PHE8       -0.0003
     31  CZ        78.4720    0.9830   67.2450 C.ar    8  PHE8       -0.0000
     32  N         75.2350   -3.3420   69.7280 N.am    9  LEU9       -0.1963
     33  CA        74.5370   -3.9380   68.6050 C.3     9  LEU9        0.1728
     34  C         73.9240   -2.8550   67.7350 C.2     9  LEU9        0.2616
     35  O         73.4640   -1.8270   68.2310 O.2     9  LEU9       -0.2715
     36  CB        73.4500   -4.9050   69.0880 C.3     9  LEU9        0.0311
     37  CG        73.8650   -6.0800   69.9750 C.3     9  LEU9        0.0022
     38  CD1       72.7000   -7.0420   70.1570 C.3     9  LEU9        0.0001
     39  CD2       75.0480   -6.8030   69.3630 C.3     9  LEU9        0.0001
     40  N         73.9200   -3.0860   66.4300 N.am   10  PHE10      -0.1974
     41  CA        73.1930   -2.2130   65.5290 C.3    10  PHE10       0.1639
     42  C         72.5750   -3.0450   64.4220 C.2    10  PHE10       0.2290
     43  O         73.1760   -4.0100   63.9490 O.2    10  PHE10      -0.2864
     44  CB        74.0910   -1.1260   64.9440 C.3    10  PHE10       0.0560
     45  CG        73.3220   -0.0050   64.2970 C.ar   10  PHE10      -0.0200
     46  CD1       72.9300   -0.0910   62.9670 C.ar   10  PHE10      -0.0042
     47  CD2       72.9650    1.1180   65.0250 C.ar   10  PHE10      -0.0042
     48  CE1       72.2120    0.9320   62.3700 C.ar   10  PHE10      -0.0003
     49  CE2       72.2430    2.1410   64.4370 C.ar   10  PHE10      -0.0003
     50  CZ        71.8680    2.0500   63.1010 C.ar   10  PHE10      -0.0000
     51  N         83.6440    0.5990   69.0700 N.3   162  GLN162     -0.1245
     52  CA        84.0200    1.9310   68.6100 C.3   162  GLN162      0.1566
     53  C         85.4080    2.3270   69.1090 C.2   162  GLN162      0.2260
     54  O         85.7420    2.0940   70.2680 O.2   162  GLN162     -0.2867
     55  CB        83.0140    2.9760   69.0960 C.3   162  GLN162      0.0367
     56  CG        83.2880    4.3610   68.5460 C.3   162  GLN162      0.0905
     57  CD        83.2090    5.4370   69.6100 C.2   162  GLN162      0.2608
     58  OE1       84.1100    6.2680   69.7230 O.2   162  GLN162     -0.2717
     59  NE2       82.1430    5.4270   70.4000 N.am  162  GLN162     -0.0878
     60  N         84.1100    2.8140   63.7340 N.3   167  VAL167     -0.1245
     61  CA        83.3830    1.6210   64.1460 C.3   167  VAL167      0.1561
     62  C         83.9150    0.3490   63.4800 C.2   167  VAL167      0.2260
     63  O         84.2340    0.3210   62.2880 O.2   167  VAL167     -0.2867
     64  CB        81.8550    1.7940   63.9100 C.3   167  VAL167      0.0252
     65  CG1       81.3960    3.1770   64.3430 C.3   167  VAL167      0.0019
     66  CG2       81.4700    1.5050   62.4790 C.3   167  VAL167      0.0019
     67  N         70.3080    3.2220   58.3780 N.3   243  GLY243     -0.1210
     68  CA        70.1720    3.8350   59.6880 C.3   243  GLY243      0.1956
     69  C         71.4280    4.5450   60.1640 C.2   243  GLY243      0.2612
     70  O         71.3980    5.3020   61.1360 O.2   243  GLY243     -0.2717
     71  N         72.5420    4.2920   59.4880 N.am  244  TRP244     -0.1962
     72  CA        73.7890    4.9650   59.8220 C.3   244  TRP244      0.1771
     73  C         73.8170    6.3640   59.2220 C.2   244  TRP244      0.2620
     74  O         73.0020    6.6970   58.3580 O.2   244  TRP244     -0.2715
     75  CB        74.9820    4.1540   59.3280 C.3   244  TRP244      0.0590
     76  CG        75.1570    2.8550   60.0470 C.ar  244  TRP244      0.0006
     77  CD1       74.5750    1.6580   59.7390 C.ar  244  TRP244      0.0946
     78  CD2       75.9860    2.6170   61.1900 C.ar  244  TRP244      0.0152
     79  NE1       74.9930    0.6880   60.6240 N.ar  244  TRP244     -0.2442
     80  CE2       75.8580    1.2540   61.5250 C.ar  244  TRP244      0.0810
     81  CE3       76.8260    3.4270   61.9630 C.ar  244  TRP244      0.0012
     82  CZ2       76.5370    0.6810   62.6040 C.ar  244  TRP244      0.0191
     83  CZ3       77.5050    2.8530   63.0330 C.ar  244  TRP244      0.0001
     84  CH2       77.3490    1.4940   63.3430 C.ar  244  TRP244      0.0015
     85  N         74.7620    7.1790   59.6760 N.am  245  GLY245     -0.1954
     86  CA        74.8880    8.5370   59.1810 C.3   245  GLY245      0.1869
     87  C         73.6930    9.3750   59.5680 C.2   245  GLY245      0.2309
     88  O         73.4370    9.5910   60.7510 O.2   245  GLY245     -0.2863
     89  N         85.6630    7.7710   58.8670 N.3   283  ARG283     -0.1245
     90  CA        84.2150    7.8240   58.9680 C.3   283  ARG283      0.1563
     91  C         83.7750    9.2800   58.9080 C.2   283  ARG283      0.2260
     92  O         84.3430   10.1300   59.5990 O.2   283  ARG283     -0.2867
     93  CB        83.7560    7.1650   60.2690 C.3   283  ARG283      0.0307
     94  CG        82.2580    7.0090   60.4210 C.3   283  ARG283      0.0489
     95  CD        81.9310    6.4690   61.8050 C.3   283  ARG283      0.2205
     96  NE        80.4970    6.4470   62.0790 N.pl3 283  ARG283     -0.0865
     97  CZ        79.9820    6.5540   63.2980 C.cat 283  ARG283      0.5346
     98  NH1       80.7870    6.7100   64.3410 N.pl3 283  ARG283      0.1354
     99  NH2       78.6700    6.5270   63.4740 N.pl3 283  ARG283      0.1354
    100  N         83.3440   12.5110   63.2660 N.3   305  TYR305     -0.1241
    101  CA        83.1850   11.6530   64.4420 C.3   305  TYR305      0.1605
    102  C         84.4650   11.5230   65.2710 C.2   305  TYR305      0.2264
    103  O         84.5430   10.6820   66.1620 O.2   305  TYR305     -0.2867
    104  CB        82.7070   10.2540   64.0280 C.3   305  TYR305      0.0534
    105  CG        81.3870   10.2260   63.2860 C.ar  305  TYR305     -0.0201
    106  CD1       81.3410   10.4020   61.9080 C.ar  305  TYR305     -0.0009
    107  CD2       80.1890    9.9990   63.9570 C.ar  305  TYR305     -0.0009
    108  CE1       80.1380   10.3720   61.2180 C.ar  305  TYR305      0.0417
    109  CE2       78.9790    9.9630   63.2720 C.ar  305  TYR305      0.0417
    110  CZ        78.9630   10.1530   61.9020 C.ar  305  TYR305      0.1957
    111  OH        77.7710   10.1190   61.2050 O.3   305  TYR305     -0.2866
@<TRIPOS>BOND
     1    74    73    2
     2    67    68    1
     3    89    90    1
     4    91    90    1
     5    91    92    2
     6    90    93    1
     7    86    87    1
     8    86    85    1
     9    73    85   am
    10    73    72    1
    11    75    72    1
    12    75    76    1
    13    71    72    1
    14    71    69   am
    15    87    88    2
    16    68    69    1
    17    77    76   ar
    18    77    79   ar
    19    76    78   ar
    20    69    70    2
    21    93    94    1
    22    94    95    1
    23    79    80   ar
    24    78    80   ar
    25    78    81   ar
    26   111   110    1
    27   108   110   ar
    28   108   106   ar
    29    80    82   ar
    30    95    96    1
    31   110   109   ar
    32   106   105   ar
    33    81    83   ar
    34    96    97    2
    35    63    62    2
    36    48    46   ar
    37    48    50   ar
    38    66    64    1
    39    82    84   ar
    40    46    45   ar
    41    83    84   ar
    42    50    49   ar
    43   100   101    1
    44   109   107   ar
    45   105   107   ar
    46   105   104    1
    47    97    99    1
    48    97    98    1
    49    62    61    1
    50    60    61    1
    51    64    61    1
    52    64    65    1
    53    43    42    2
    54   104   101    1
    55    45    44    1
    56    45    47   ar
    57    42    41    1
    58    49    47   ar
    59   101   102    1
    60    44    41    1
    61   102   103    2
    62    41    40    1
    63    40    34   am
    64    31    30   ar
    65    31    29   ar
    66    30    28   ar
    67    34    35    2
    68    34    33    1
    69    29    27   ar
    70    28    26   ar
    71    56    55    1
    72    56    57    1
    73    33    36    1
    74    33    32    1
    75    52    51    1
    76    52    55    1
    77    52    53    1
    78    24    23    2
    79    36    37    1
    80    53    54    2
    81    39    37    1
    82    27    26   ar
    83    26    25    1
    84    57    58    2
    85    57    59   am
    86    23    32   am
    87    23    22    1
    88    37    38    1
    89    25    22    1
    90    22    21    1
    91    21    16   am
    92    18    20    1
    93    18    15    1
    94    18    19    1
    95    16    15    1
    96    16    17    2
    97    15    14    1
    98    13    12    2
    99    14    12   am
   100    12    11    1
   101    11    10    1
   102    10     3   am
   103     4     3    2
   104     3     2    1
   105     1     2    1
   106     2     5    1
   107     5     6    1
   108     6     7    1
   109     8     7   ar
   110     7     9   ar
