@<TRIPOS>MOLECULE
tmp/5ughA01.pdb
 111 110 0 0 0
SMALL
GASTEIGER

@<TRIPOS>ATOM
      1  N          6.3480  -13.0130   -0.2420 N.3     4  GLU4       -0.1231
      2  CA         6.0920  -11.5880   -0.3980 C.3     4  GLU4        0.1699
      3  C          5.3980  -11.0760    0.8560 C.2     4  GLU4        0.2593
      4  O          5.4650   -9.8910    1.1890 O.2     4  GLU4       -0.2718
      5  CB         5.2410  -11.3100   -1.6410 C.3     4  GLU4        0.0402
      6  CG         6.0830  -11.3650   -2.9360 C.3     4  GLU4        0.1161
      7  CD         5.2000  -11.3240   -4.1640 C.2     4  GLU4        0.3649
      8  OE1        4.0260  -10.9510   -3.9450 O.co2   4  GLU4       -0.2457
      9  OE2        5.7040  -11.6510   -5.2290 O.co2   4  GLU4       -0.2457
     10  N          4.7460  -11.9950    1.5600 N.am    5  GLY5       -0.1942
     11  CA         4.0270  -11.6580    2.7710 C.3     5  GLY5        0.2014
     12  C          4.8160  -11.9170    4.0420 C.2     5  GLY5        0.2640
     13  O          4.3370  -11.6270    5.1370 O.2     5  GLY5       -0.2714
     14  N          6.0220  -12.4630    3.9080 N.am    6  THR6       -0.1936
     15  CA         6.8280  -12.7820    5.0850 C.3     6  THR6        0.2028
     16  C          8.0390  -11.8670    5.2200 C.2     6  THR6        0.2642
     17  O          8.5260  -11.3170    4.2320 O.2     6  THR6       -0.2714
     18  CB         7.3350  -14.2420    5.0640 C.3     6  THR6        0.1808
     19  OG1        8.3970  -14.3720    4.1110 O.3     6  THR6       -0.2208
     20  CG2        6.2210  -15.1990    4.7050 C.3     6  THR6        0.0379
     21  N          8.5360  -11.7230    6.4450 N.am    7  PHE7       -0.1959
     22  CA         9.7690  -10.9840    6.6700 C.3     7  PHE7        0.1771
     23  C         10.5570  -11.5850    7.8190 C.2     7  PHE7        0.2619
     24  O          9.9970  -12.2280    8.7090 O.2     7  PHE7       -0.2715
     25  CB         9.4940   -9.5020    6.9460 C.3     7  PHE7        0.0574
     26  CG         8.7560   -9.2310    8.2350 C.ar    7  PHE7       -0.0200
     27  CD1        7.3740   -9.3190    8.2940 C.ar    7  PHE7       -0.0042
     28  CD2        9.4450   -8.8500    9.3760 C.ar    7  PHE7       -0.0042
     29  CE1        6.6960   -9.0470    9.4700 C.ar    7  PHE7       -0.0003
     30  CE2        8.7730   -8.5810   10.5570 C.ar    7  PHE7       -0.0003
     31  CZ         7.3970   -8.6780   10.6030 C.ar    7  PHE7       -0.0000
     32  N         11.8660  -11.3700    7.7850 N.am    8  LEU8       -0.1963
     33  CA        12.7420  -11.8000    8.8630 C.3     8  LEU8        0.1728
     34  C         12.9730  -10.6540    9.8290 C.2     8  LEU8        0.2616
     35  O         13.0350   -9.4930    9.4230 O.2     8  LEU8       -0.2715
     36  CB        14.0810  -12.2920    8.3130 C.3     8  LEU8        0.0311
     37  CG        14.0500  -13.4280    7.2860 C.3     8  LEU8        0.0022
     38  CD1       15.4600  -13.9480    7.0370 C.3     8  LEU8        0.0001
     39  CD2       13.1230  -14.5530    7.7240 C.3     8  LEU8        0.0001
     40  N         13.0950  -10.9800   11.1110 N.am    9  PHE9       -0.1974
     41  CA        13.5250  -10.0060   12.1000 C.3     9  PHE9        0.1639
     42  C         14.4260  -10.6740   13.1280 C.2     9  PHE9        0.2290
     43  O         14.2030  -11.8200   13.5190 O.2     9  PHE9       -0.2864
     44  CB        12.3380   -9.3420   12.7970 C.3     9  PHE9        0.0560
     45  CG        12.7140   -8.1040   13.5700 C.ar    9  PHE9       -0.0200
     46  CD1       13.1490   -8.1950   14.8830 C.ar    9  PHE9       -0.0042
     47  CD2       12.6550   -6.8550   12.9760 C.ar    9  PHE9       -0.0042
     48  CE1       13.5040   -7.0610   15.5950 C.ar    9  PHE9       -0.0003
     49  CE2       13.0090   -5.7180   13.6840 C.ar    9  PHE9       -0.0003
     50  CZ        13.4350   -5.8230   14.9950 C.ar    9  PHE9       -0.0000
     51  N          2.6380  -10.5940    8.7560 N.3   166  GLN166     -0.1245
     52  CA         1.9000   -9.5520    9.4490 C.3   166  GLN166      0.1566
     53  C          0.4300   -9.8220    9.2120 C.2   166  GLN166      0.2260
     54  O          0.0370  -10.2180    8.1230 O.2   166  GLN166     -0.2867
     55  CB         2.2940   -8.1560    8.9530 C.3   166  GLN166      0.0367
     56  CG         1.6700   -7.0160    9.7530 C.3   166  GLN166      0.0905
     57  CD         1.2120   -5.8570    8.8900 C.2   166  GLN166      0.2608
     58  OE1        0.0350   -5.4970    8.8930 O.2   166  GLN166     -0.2717
     59  NE2        2.1440   -5.2540    8.1580 N.am  166  GLN166     -0.0878
     60  N          1.7360   -8.9830   14.3390 N.3   171  VAL171     -0.1245
     61  CA         2.7540   -9.8340   13.7330 C.3   171  VAL171      0.1561
     62  C          2.6800  -11.2660   14.2760 C.2   171  VAL171      0.2260
     63  O          2.4340  -11.4980   15.4630 O.2   171  VAL171     -0.2867
     64  CB         4.1670   -9.2310   13.8950 C.3   171  VAL171      0.0252
     65  CG1        4.1410   -7.7340   13.6110 C.3   171  VAL171      0.0019
     66  CG2        4.7710   -9.5530   15.2590 C.3   171  VAL171      0.0019
     67  N         14.6270   -4.5260   19.7520 N.3   247  GLY247     -0.1210
     68  CA        14.5230   -3.7700   18.5170 C.3   247  GLY247      0.1956
     69  C         13.0980   -3.4730   18.0830 C.2   247  GLY247      0.2612
     70  O         12.8730   -2.6240   17.2210 O.2   247  GLY247     -0.2717
     71  N         12.1330   -4.1630   18.6840 N.am  248  TRP248     -0.1962
     72  CA        10.7250   -3.9180   18.3870 C.3   248  TRP248      0.1771
     73  C         10.2430   -2.6740   19.1270 C.2   248  TRP248      0.2620
     74  O         10.9260   -2.1760   20.0190 O.2   248  TRP248     -0.2715
     75  CB         9.8720   -5.1250   18.7760 C.3   248  TRP248      0.0590
     76  CG        10.1210   -6.3480   17.9490 C.ar  248  TRP248      0.0006
     77  CD1       11.0550   -7.3180   18.1790 C.ar  248  TRP248      0.0946
     78  CD2        9.4170   -6.7400   16.7660 C.ar  248  TRP248      0.0152
     79  NE1       10.9720   -8.2930   17.2110 N.ar  248  TRP248     -0.2442
     80  CE2        9.9770   -7.9580   16.3300 C.ar  248  TRP248      0.0810
     81  CE3        8.3650   -6.1790   16.0310 C.ar  248  TRP248      0.0012
     82  CZ2        9.5230   -8.6240   15.1960 C.ar  248  TRP248      0.0191
     83  CZ3        7.9170   -6.8440   14.9000 C.ar  248  TRP248      0.0001
     84  CH2        8.4950   -8.0520   14.4940 C.ar  248  TRP248      0.0015
     85  N          9.0710   -2.1700   18.7520 N.am  249  GLY249     -0.1954
     86  CA         8.5180   -0.9850   19.3870 C.3   249  GLY249      0.1869
     87  C          9.3450    0.2560   19.1140 C.2   249  GLY249      0.2309
     88  O          9.4850    0.6740   17.9660 O.2   249  GLY249     -0.2863
     89  N         -1.4550   -5.2200   19.6720 N.3   287  ARG287     -0.1245
     90  CA        -0.1070   -4.6990   19.5620 C.3   287  ARG287      0.1563
     91  C         -0.1590   -3.1880   19.7470 C.2   287  ARG287      0.2260
     92  O         -0.9910   -2.5190   19.1370 O.2   287  ARG287     -0.2867
     93  CB         0.4810   -5.0780   18.2040 C.3   287  ARG287      0.0307
     94  CG         1.9340   -4.7450   18.0120 C.3   287  ARG287      0.0489
     95  CD         2.3400   -5.0550   16.5770 C.3   287  ARG287      0.2205
     96  NE         3.6970   -4.5990   16.2920 N.pl3 287  ARG287     -0.0865
     97  CZ         4.1280   -4.2470   15.0860 C.cat 287  ARG287      0.5346
     98  NH1        3.3010   -4.2900   14.0420 N.pl3 287  ARG287      0.1354
     99  NH2        5.3830   -3.8460   14.9290 N.pl3 287  ARG287      0.1354
    100  N         -0.9490    0.3120   15.7930 N.3   309  TYR309     -0.1241
    101  CA        -0.5650   -0.3870   14.5640 C.3   309  TYR309      0.1605
    102  C         -1.7640   -0.8500   13.7310 C.2   309  TYR309      0.2264
    103  O         -1.6120   -1.6390   12.8000 O.2   309  TYR309     -0.2867
    104  CB         0.3330   -1.5920   14.8890 C.3   309  TYR309      0.0534
    105  CG         1.6140   -1.2400   15.6240 C.ar  309  TYR309     -0.0201
    106  CD1        1.6390   -1.1460   17.0110 C.ar  309  TYR309     -0.0009
    107  CD2        2.7970   -1.0030   14.9320 C.ar  309  TYR309     -0.0009
    108  CE1        2.8010   -0.8250   17.6890 C.ar  309  TYR309      0.0417
    109  CE2        3.9690   -0.6750   15.6060 C.ar  309  TYR309      0.0417
    110  CZ         3.9630   -0.5910   16.9840 C.ar  309  TYR309      0.1957
    111  OH         5.1150   -0.2680   17.6710 O.3   309  TYR309     -0.2866
@<TRIPOS>BOND
     1     9     7   ar
     2     7     8   ar
     3     7     6    1
     4     6     5    1
     5     5     2    1
     6     2     1    1
     7     2     3    1
     8     3     4    2
     9     3    10   am
    10    10    11    1
    11    11    12    1
    12    14    12   am
    13    14    15    1
    14    12    13    2
    15    19    18    1
    16    17    16    2
    17    20    18    1
    18    18    15    1
    19    15    16    1
    20    16    21   am
    21    21    22    1
    22    22    25    1
    23    22    23    1
    24    25    26    1
    25    38    37    1
    26    37    39    1
    27    37    36    1
    28    32    23   am
    29    32    33    1
    30    23    24    2
    31    54    53    2
    32    59    57   am
    33    26    27   ar
    34    26    28   ar
    35    27    29   ar
    36    36    33    1
    37    51    52    1
    38    33    34    1
    39    57    58    2
    40    57    56    1
    41    55    52    1
    42    55    56    1
    43    53    52    1
    44    28    30   ar
    45    35    34    2
    46    29    31   ar
    47    34    40   am
    48    30    31   ar
    49    40    41    1
    50    41    44    1
    51    41    42    1
    52    44    45    1
    53   103   102    2
    54    47    45   ar
    55    47    49   ar
    56    42    43    2
    57    45    46   ar
    58    65    64    1
    59    49    50   ar
    60   102   101    1
    61    61    64    1
    62    61    62    1
    63    61    60    1
    64    64    66    1
    65    98    97    1
    66    62    63    2
    67    84    83   ar
    68    84    82   ar
    69   101   104    1
    70   101   100    1
    71    46    48   ar
    72   104   105    1
    73    83    81   ar
    74    99    97    1
    75   107   109   ar
    76   107   105   ar
    77    50    48   ar
    78    97    96    2
    79    82    80   ar
    80   109   110   ar
    81   105   106   ar
    82    81    78   ar
    83    96    95    1
    84    80    78   ar
    85    80    79   ar
    86    95    94    1
    87    78    76   ar
    88   110   111    1
    89   110   108   ar
    90   106   108   ar
    91    79    77   ar
    92    70    69    2
    93    76    77   ar
    94    76    75    1
    95    88    87    2
    96    94    93    1
    97    69    68    1
    98    69    71   am
    99    93    90    1
   100    72    71    1
   101    72    75    1
   102    72    73    1
   103    68    67    1
   104    85    73   am
   105    85    86    1
   106    87    86    1
   107    73    74    2
   108    92    91    2
   109    90    89    1
   110    90    91    1
