@<TRIPOS>MOLECULE
tmp/5uglA00.pdb
 165 154 0 0 0
SMALL
GASTEIGER

@<TRIPOS>ATOM
      1  N         43.3430   47.1310   23.7520 N.3    21  LEU21      -0.1231
      2  CA        43.8630   47.2260   22.3980 C.3    21  LEU21       0.1693
      3  C         42.9060   46.6730   21.3520 C.2    21  LEU21       0.2593
      4  O         43.0760   46.9660   20.1670 O.2    21  LEU21      -0.2718
      5  CB        45.2160   46.4990   22.3020 C.3    21  LEU21       0.0284
      6  CG        46.3920   47.1640   23.0380 C.3    21  LEU21       0.0019
      7  CD1       47.6420   46.2660   23.0820 C.3    21  LEU21       0.0001
      8  CD2       46.7590   48.5010   22.3940 C.3    21  LEU21       0.0001
      9  N         41.9080   45.9140   21.7560 N.am   22  GLY22      -0.1942
     10  CA        40.9640   45.3160   20.8330 C.3    22  GLY22       0.2014
     11  C         40.3460   44.0670   21.4250 C.2    22  GLY22       0.2639
     12  O         40.8230   43.4780   22.3930 O.2    22  GLY22      -0.2714
     13  N         39.2330   43.6520   20.8320 N.am   23  GLU23      -0.1963
     14  CA        38.5660   42.4530   21.3040 C.3    23  GLU23       0.1733
     15  C         37.8620   41.7700   20.1450 C.2    23  GLU23       0.2616
     16  O         37.4510   42.4140   19.1780 O.2    23  GLU23      -0.2715
     17  CB        37.5640   42.7620   22.4230 C.3    23  GLU23       0.0429
     18  CG        36.2270   43.2730   21.9330 C.3    23  GLU23       0.1163
     19  CD        35.3950   43.8580   23.0470 C.2    23  GLU23       0.3649
     20  OE1       35.5790   43.4260   24.2050 O.co2  23  GLU23      -0.2457
     21  OE2       34.5610   44.7500   22.7660 O.co2  23  GLU23      -0.2457
     22  N         37.7520   40.4550   20.2470 N.am   24  GLY24      -0.1955
     23  CA        36.9190   39.6900   19.3480 C.3    24  GLY24       0.1869
     24  C         35.7980   39.0830   20.1620 C.2    24  GLY24       0.2309
     25  O         35.4680   39.5940   21.2370 O.2    24  GLY24      -0.2863
     26  N         36.1190   35.9540   21.1800 N.3    26  PHE26      -0.1227
     27  CA        36.7860   34.8470   21.8490 C.3    26  PHE26       0.1736
     28  C         37.8650   35.2840   22.8310 C.2    26  PHE26       0.2596
     29  O         38.4350   34.4270   23.5190 O.2    26  PHE26      -0.2718
     30  CB        37.3950   33.9100   20.8010 C.3    26  PHE26       0.0547
     31  CG        36.4330   33.5360   19.7150 C.ar   26  PHE26      -0.0202
     32  CD1       35.1540   33.1020   20.0310 C.ar   26  PHE26      -0.0042
     33  CD2       36.7860   33.6570   18.3800 C.ar   26  PHE26      -0.0042
     34  CE1       34.2540   32.7720   19.0380 C.ar   26  PHE26      -0.0003
     35  CE2       35.8870   33.3250   17.3780 C.ar   26  PHE26      -0.0003
     36  CZ        34.6210   32.8820   17.7100 C.ar   26  PHE26      -0.0000
     37  N         38.1520   36.5770   22.9220 N.am   27  GLY27      -0.1957
     38  CA        39.1650   37.0740   23.8340 C.3    27  GLY27       0.1869
     39  C         39.3080   38.5690   23.6660 C.2    27  GLY27       0.2309
     40  O         38.6140   39.1980   22.8620 O.2    27  GLY27      -0.2863
     41  N         42.5330   41.8510   24.1210 N.3    29  VAL29      -0.1245
     42  CA        43.9560   42.1800   24.1750 C.3    29  VAL29       0.1561
     43  C         44.1110   43.5240   24.8710 C.2    29  VAL29       0.2260
     44  O         43.4000   44.4800   24.5420 O.2    29  VAL29      -0.2867
     45  CB        44.5890   42.2320   22.7710 C.3    29  VAL29       0.0252
     46  CG1       46.0980   42.3830   22.8870 C.3    29  VAL29       0.0019
     47  CG2       44.1960   40.9910   21.9480 C.3    29  VAL29       0.0019
     48  N         51.7490   43.3540   24.8340 N.3    49  ALA49      -0.1245
     49  CA        50.3280   43.0870   24.6670 C.3    49  ALA49       0.1562
     50  C         49.9750   41.8550   25.4830 C.2    49  ALA49       0.2260
     51  O         50.7770   40.9250   25.6050 O.2    49  ALA49      -0.2867
     52  CB        49.9720   42.8760   23.1840 C.3    49  ALA49       0.0290
     53  N         47.0050   38.9770   25.9080 N.3    51  LYS51      -0.1245
     54  CA        45.7410   38.3610   25.5220 C.3    51  LYS51       0.1561
     55  C         45.1240   37.6280   26.7090 C.2    51  LYS51       0.2260
     56  O         45.8210   36.9180   27.4470 O.2    51  LYS51      -0.2867
     57  CB        45.9340   37.3880   24.3560 C.3    51  LYS51       0.0271
     58  CG        44.6230   36.9580   23.6880 C.3    51  LYS51       0.0035
     59  CD        44.8570   36.4890   22.2340 C.3    51  LYS51       0.0206
     60  CE        43.5910   35.8600   21.6310 C.3    51  LYS51       0.1093
     61  NZ        43.8620   35.2170   20.3120 N.3    51  LYS51      -0.1314
     62  N         54.7950   37.6000   15.5080 N.3    82  ILE82      -0.1245
     63  CA        54.5580   38.0320   16.8800 C.3    82  ILE82       0.1561
     64  C         55.1180   36.9550   17.8010 C.2    82  ILE82       0.2260
     65  O         54.7500   35.7830   17.6860 O.2    82  ILE82      -0.2867
     66  CB        53.0640   38.2610   17.1460 C.3    82  ILE82       0.0252
     67  CG1       52.5570   39.4880   16.3930 C.3    82  ILE82       0.0019
     68  CG2       52.8380   38.4420   18.6470 C.3    82  ILE82       0.0019
     69  CD1       53.0220   40.8240   16.9900 C.3    82  ILE82       0.0001
     70  N         52.5490   38.8330   24.8440 N.3    98  VAL98      -0.1231
     71  CA        53.1780   38.7730   23.5290 C.3    98  VAL98       0.1692
     72  C         53.7330   40.1470   23.1430 C.2    98  VAL98       0.2592
     73  O         53.4320   41.1740   23.7580 O.2    98  VAL98      -0.2718
     74  CB        52.2040   38.2610   22.4400 C.3    98  VAL98       0.0266
     75  CG1       51.5510   36.9240   22.8750 C.3    98  VAL98       0.0020
     76  CG2       51.1400   39.3030   22.1420 C.3    98  VAL98       0.0020
     77  N         54.5500   40.1510   22.0900 N.am   99  GLU99      -0.1966
     78  CA        55.0870   41.4020   21.5680 C.3    99  GLU99       0.1733
     79  C         53.9850   42.3750   21.1780 C.2    99  GLU99       0.2616
     80  O         52.9770   41.9990   20.5650 O.2    99  GLU99      -0.2715
     81  CB        55.9750   41.1310   20.3730 C.3    99  GLU99       0.0429
     82  CG        57.2240   40.3880   20.7560 C.3    99  GLU99       0.1163
     83  CD        58.1170   40.1940   19.5520 C.2    99  GLU99       0.3649
     84  OE1       57.5580   39.9290   18.4650 O.co2  99  GLU99      -0.2457
     85  OE2       59.3550   40.3150   19.6970 O.co2  99  GLU99      -0.2457
     86  N         54.2140   43.6470   21.5000 N.am  100  TYR100     -0.1960
     87  CA        53.2430   44.7070   21.2550 C.3   100  TYR100      0.1771
     88  C         53.5060   45.3390   19.8940 C.2   100  TYR100      0.2619
     89  O         54.6470   45.7020   19.5790 O.2   100  TYR100     -0.2715
     90  CB        53.3340   45.7460   22.3770 C.3   100  TYR100      0.0574
     91  CG        52.5790   47.0320   22.1280 C.ar  100  TYR100     -0.0198
     92  CD1       51.2020   47.0450   22.0160 C.ar  100  TYR100     -0.0009
     93  CD2       53.2550   48.2370   22.0160 C.ar  100  TYR100     -0.0009
     94  CE1       50.5170   48.2400   21.7860 C.ar  100  TYR100      0.0417
     95  CE2       52.5840   49.4250   21.8000 C.ar  100  TYR100      0.0417
     96  CZ        51.2200   49.4150   21.6920 C.ar  100  TYR100      0.1957
     97  OH        50.5630   50.5910   21.4660 O.3   100  TYR100     -0.2866
     98  N         52.4580   45.4340   19.0770 N.am  101  ALA101     -0.1977
     99  CA        52.5280   46.0460   17.7480 C.3   101  ALA101      0.1597
    100  C         51.6260   47.2780   17.7570 C.2   101  ALA101      0.2287
    101  O         50.4010   47.1570   17.6560 O.2   101  ALA101     -0.2864
    102  CB        52.1160   45.0510   16.6680 C.3   101  ALA101      0.0319
    103  N         48.6500   48.1770   14.9280 N.3   104  GLY104     -0.1210
    104  CA        47.4400   47.4100   14.6800 C.3   104  GLY104      0.1956
    105  C         47.5970   46.4000   13.5580 C.2   104  GLY104      0.2611
    106  O         48.7050   46.0630   13.1260 O.2   104  GLY104     -0.2717
    107  N         46.4570   45.8940   13.0950 N.am  105  ASN105     -0.1974
    108  CA        46.5230   44.8890   12.0520 C.3   105  ASN105      0.1688
    109  C         46.7510   45.5360   10.6900 C.2   105  ASN105      0.2292
    110  O         46.4450   46.7120   10.4530 O.2   105  ASN105     -0.2864
    111  CB        45.2720   44.0030   12.0280 C.3   105  ASN105      0.1181
    112  CG        44.0480   44.7050   11.4770 C.2   105  ASN105      0.2629
    113  OD1       43.9310   44.9450   10.2700 O.2   105  ASN105     -0.2716
    114  ND2       43.1010   44.9970   12.3570 N.am  105  ASN105     -0.0877
    115  N         45.6150   30.3220    8.7510 N.3   144  ASP144     -0.1239
    116  CA        44.7300   31.4790    8.8270 C.3   144  ASP144      0.1674
    117  C         45.4710   32.7420    8.3920 C.2   144  ASP144      0.2266
    118  O         45.2920   33.8160    8.9680 O.2   144  ASP144     -0.2867
    119  CB        44.1610   31.6270   10.2440 C.3   144  ASP144      0.1410
    120  CG        42.9890   32.5550   10.3140 C.2   144  ASP144      0.3668
    121  OD1       42.4230   32.9000    9.2510 O.co2 144  ASP144     -0.2456
    122  OD2       42.6260   32.9480   11.4430 O.co2 144  ASP144     -0.2456
    123  N         44.2220   40.6850    8.2020 N.3   148  ARG148     -0.1231
    124  CA        43.7340   40.8960    9.5590 C.3   148  ARG148      0.1694
    125  C         44.5930   40.1910   10.6000 C.2   148  ARG148      0.2592
    126  O         44.5510   40.5710   11.7730 O.2   148  ARG148     -0.2718
    127  CB        42.2740   40.4300    9.6760 C.3   148  ARG148      0.0321
    128  CG        42.1040   38.9280    9.4500 C.3   148  ARG148      0.0489
    129  CD        40.6450   38.4810    9.4040 C.3   148  ARG148      0.2205
    130  NE        40.4820   37.6080    8.2370 N.pl3 148  ARG148     -0.0865
    131  CZ        40.7590   36.3120    8.2040 C.cat 148  ARG148      0.5346
    132  NH1       41.2070   35.6860    9.2850 N.pl3 148  ARG148      0.1354
    133  NH2       40.5890   35.6490    7.0710 N.pl3 148  ARG148      0.1354
    134  N         45.3760   39.1830   10.1990 N.am  149  ASN149     -0.1974
    135  CA        46.1750   38.3910   11.1260 C.3   149  ASN149      0.1688
    136  C         47.6590   38.7280   11.0470 C.2   149  ASN149      0.2292
    137  O         48.4990   37.9300   11.4730 O.2   149  ASN149     -0.2864
    138  CB        45.9440   36.8940   10.8770 C.3   149  ASN149      0.1181
    139  CG        44.6040   36.4160   11.4070 C.2   149  ASN149      0.2629
    140  OD1       44.0150   37.0610   12.2760 O.2   149  ASN149     -0.2716
    141  ND2       44.1270   35.2780   10.9090 N.am  149  ASN149     -0.0877
    142  N         50.2540   41.9400   12.2150 N.3   151  LEU151     -0.1245
    143  CA        50.3280   43.1300   13.0570 C.3   151  LEU151      0.1561
    144  C         51.5240   43.9770   12.6370 C.2   151  LEU151      0.2260
    145  O         52.5120   43.4600   12.1090 O.2   151  LEU151     -0.2867
    146  CB        50.4300   42.7640   14.5470 C.3   151  LEU151      0.0270
    147  CG        49.2040   42.0640   15.1350 C.3   151  LEU151      0.0019
    148  CD1       49.4870   41.5170   16.5270 C.3   151  LEU151      0.0001
    149  CD2       48.0150   43.0270   15.1580 C.3   151  LEU151      0.0001
    150  N         48.2050   35.7800   15.3660 N.3   162  ASP162     -0.1239
    151  CA        46.9870   34.9680   15.4730 C.3   162  ASP162      0.1674
    152  C         47.2510   33.4960   15.1300 C.2   162  ASP162      0.2266
    153  O         46.7560   32.9610   14.1350 O.2   162  ASP162     -0.2867
    154  CB        45.8640   35.5130   14.5800 C.3   162  ASP162      0.1410
    155  CG        45.3880   36.8910   14.9960 C.2   162  ASP162      0.3668
    156  OD1       46.0690   37.8890   14.6620 O.co2 162  ASP162     -0.2456
    157  OD2       44.3110   36.9870   15.6250 O.co2 162  ASP162     -0.2456
    158  N         44.8770   28.9090   15.1040 N.3   165  LEU165     -0.1245
    159  CA        44.4990   27.8120   14.2230 C.3   165  LEU165      0.1561
    160  C         45.7000   27.0480   13.6870 C.2   165  LEU165      0.2260
    161  O         45.5230   26.0810   12.9380 O.2   165  LEU165     -0.2867
    162  CB        43.6730   28.3430   13.0470 C.3   165  LEU165      0.0270
    163  CG        42.2880   28.8390   13.4320 C.3   165  LEU165      0.0019
    164  CD1       41.6720   29.6780   12.3090 C.3   165  LEU165      0.0001
    165  CD2       41.4140   27.6390   13.7540 C.3   165  LEU165      0.0001
@<TRIPOS>BOND
     1   133   131    1
     2   123   124    1
     3   131   130    2
     4   131   132    1
     5   130   129    1
     6   117   116    1
     7   117   118    2
     8   115   116    1
     9   116   119    1
    10   121   120   ar
    11   129   128    1
    12   128   127    1
    13   124   127    1
    14   124   125    1
    15   134   125   am
    16   134   135    1
    17   119   120    1
    18   113   112    2
    19   120   122   ar
    20   110   109    2
    21   125   126    2
    22   109   108    1
    23   138   135    1
    24   138   139    1
    25   141   139   am
    26   136   135    1
    27   136   137    2
    28   139   140    2
    29   112   111    1
    30   112   114   am
    31   111   108    1
    32   108   107    1
    33   145   144    2
    34   142   143    1
    35   164   163    1
    36   144   143    1
    37   161   160    2
    38   162   163    1
    39   162   159    1
    40   143   146    1
    41   107   105   am
    42   106   105    2
    43   163   165    1
    44   105   104    1
    45   160   159    1
    46   153   152    2
    47   159   158    1
    48   146   147    1
    49   154   155    1
    50   154   151    1
    51   156   155   ar
    52   104   103    1
    53   155   157   ar
    54   152   151    1
    55   147   149    1
    56   147   148    1
    57   150   151    1
    58    62    63    1
    59    67    69    1
    60    67    66    1
    61   102    99    1
    62    63    66    1
    63    63    64    1
    64    66    68    1
    65    35    36   ar
    66    35    33   ar
    67   101   100    2
    68    65    64    2
    69    36    34   ar
    70    99   100    1
    71    99    98    1
    72    33    31   ar
    73    84    83   ar
    74    34    32   ar
    75    98    88   am
    76    16    15    2
    77    23    24    1
    78    23    22    1
    79    83    85   ar
    80    83    82    1
    81    89    88    2
    82    31    32   ar
    83    31    30    1
    84    88    87    1
    85    15    22   am
    86    15    14    1
    87    24    25    2
    88     4     3    2
    89    61    60    1
    90    81    82    1
    91    81    78    1
    92    80    79    2
    93    30    27    1
    94    13    14    1
    95    13    11   am
    96    10    11    1
    97    10     9    1
    98    79    86   am
    99    79    78    1
   100    26    27    1
   101    87    86    1
   102    87    90    1
   103    14    17    1
   104     3     9   am
   105     3     2    1
   106    11    12    2
   107    97    96    1
   108    78    77    1
   109    60    59    1
   110    96    94   ar
   111    96    95   ar
   112    94    92   ar
   113    95    93   ar
   114    27    28    1
   115    18    17    1
   116    18    19    1
   117    47    45    1
   118    92    91   ar
   119    93    91   ar
   120    77    72   am
   121    91    90    1
   122    76    74    1
   123    59    58    1
   124     5     2    1
   125     5     6    1
   126     8     6    1
   127     2     1    1
   128    74    75    1
   129    74    71    1
   130    21    19   ar
   131    45    46    1
   132    45    42    1
   133    28    37   am
   134    28    29    2
   135    40    39    2
   136    37    38    1
   137     6     7    1
   138    19    20   ar
   139    72    71    1
   140    72    73    2
   141    52    49    1
   142    71    70    1
   143    39    38    1
   144    58    57    1
   145    41    42    1
   146    42    43    1
   147    57    54    1
   148    44    43    2
   149    49    48    1
   150    49    50    1
   151    50    51    2
   152    54    53    1
   153    54    55    1
   154    55    56    2
