@<TRIPOS>MOLECULE
tmp/5uglB00.pdb
 173 164 0 0 0
SMALL
GASTEIGER

@<TRIPOS>ATOM
      1  N         24.1460   47.0070   11.6180 N.3    20  LEU20      -0.1231
      2  CA        23.6740   47.0920   12.9900 C.3    20  LEU20       0.1693
      3  C         24.6400   46.5090   14.0070 C.2    20  LEU20       0.2593
      4  O         24.4840   46.7740   15.2030 O.2    20  LEU20      -0.2718
      5  CB        22.3210   46.3830   13.1420 C.3    20  LEU20       0.0284
      6  CG        21.1180   47.0890   12.5350 C.3    20  LEU20       0.0019
      7  CD1       19.8730   46.2120   12.6300 C.3    20  LEU20       0.0001
      8  CD2       20.9030   48.4080   13.2480 C.3    20  LEU20       0.0001
      9  N         25.6180   45.7380   13.5680 N.am   21  GLY21      -0.1942
     10  CA        26.5590   45.0940   14.4620 C.3    21  GLY21       0.2014
     11  C         27.1160   43.8370   13.8270 C.2    21  GLY21       0.2639
     12  O         26.5880   43.3050   12.8550 O.2    21  GLY21      -0.2714
     13  N         28.1970   43.3440   14.4150 N.am   22  GLU22      -0.1963
     14  CA        28.8120   42.1320   13.9010 C.3    22  GLU22       0.1733
     15  C         29.3720   41.3200   15.0600 C.2    22  GLU22       0.2616
     16  O         29.7920   41.8700   16.0800 O.2    22  GLU22      -0.2715
     17  CB        29.9080   42.4600   12.8790 C.3    22  GLU22       0.0429
     18  CG        31.2300   42.8640   13.4930 C.3    22  GLU22       0.1163
     19  CD        32.1780   43.4810   12.4900 C.2    22  GLU22       0.3649
     20  OE1       32.0720   43.1480   11.2900 O.co2  22  GLU22      -0.2457
     21  OE2       33.0290   44.2990   12.9040 O.co2  22  GLU22      -0.2457
     22  N         29.3510   40.0000   14.8930 N.am   23  GLY23      -0.1955
     23  CA        29.9900   39.0930   15.8250 C.3    23  GLY23       0.1869
     24  C         31.1300   38.3320   15.1800 C.2    23  GLY23       0.2309
     25  O         31.6750   38.7680   14.1600 O.2    23  GLY23      -0.2863
     26  N         30.6500   35.2120   14.0930 N.3    25  PHE25      -0.1227
     27  CA        30.0300   34.2180   13.2360 C.3    25  PHE25       0.1736
     28  C         29.1350   34.8240   12.1610 C.2    25  PHE25       0.2596
     29  O         28.6370   34.0790   11.3120 O.2    25  PHE25      -0.2718
     30  CB        29.2040   33.2190   14.0650 C.3    25  PHE25       0.0547
     31  CG        29.9460   32.6240   15.2380 C.ar   25  PHE25      -0.0202
     32  CD1       31.2350   32.1270   15.0900 C.ar   25  PHE25      -0.0042
     33  CD2       29.3380   32.5340   16.4850 C.ar   25  PHE25      -0.0042
     34  CE1       31.9120   31.5710   16.1680 C.ar   25  PHE25      -0.0003
     35  CE2       30.0060   31.9760   17.5660 C.ar   25  PHE25      -0.0003
     36  CZ        31.2960   31.4950   17.4070 C.ar   25  PHE25      -0.0000
     37  N         28.9340   36.1380   12.1580 N.am   26  GLY26      -0.1942
     38  CA        28.0400   36.7590   11.1940 C.3    26  GLY26       0.2014
     39  C         27.9520   38.2500   11.4310 C.2    26  GLY26       0.2639
     40  O         28.6590   38.8100   12.2730 O.2    26  GLY26      -0.2714
     41  N         27.0890   38.9000   10.6420 N.am   27  GLN27      -0.1963
     42  CA        26.8440   40.3280   10.7790 C.3    27  GLN27       0.1733
     43  C         25.3570   40.5760   10.5710 C.2    27  GLN27       0.2616
     44  O         24.6560   39.7640    9.9690 O.2    27  GLN27      -0.2715
     45  CB        27.6680   41.1630    9.7820 C.3    27  GLN27       0.0408
     46  CG        27.3200   40.8770    8.3270 C.3    27  GLN27       0.0908
     47  CD        28.1020   41.7100    7.3140 C.2    27  GLN27       0.2608
     48  OE1       28.2840   42.9180    7.4810 O.2    27  GLN27      -0.2717
     49  NE2       28.5490   41.0610    6.2400 N.am   27  GLN27      -0.0878
     50  N         24.8710   41.6970   11.0900 N.am   28  VAL28      -0.1977
     51  CA        23.4550   42.0340   11.0100 C.3    28  VAL28       0.1596
     52  C         23.3040   43.4190   10.3980 C.2    28  VAL28       0.2287
     53  O         23.9650   44.3680   10.8400 O.2    28  VAL28      -0.2864
     54  CB        22.7880   41.9810   12.3980 C.3    28  VAL28       0.0276
     55  CG1       21.2920   42.2190   12.2780 C.3    28  VAL28       0.0022
     56  CG2       23.0510   40.6300   13.0500 C.3    28  VAL28       0.0022
     57  N         15.7160   43.2960   10.2880 N.3    48  ALA48      -0.1245
     58  CA        17.1320   43.0180   10.4560 C.3    48  ALA48       0.1562
     59  C         17.4700   41.7830    9.6390 C.2    48  ALA48       0.2260
     60  O         16.6520   40.8630    9.5270 O.2    48  ALA48      -0.2867
     61  CB        17.4890   42.8350   11.9410 C.3    48  ALA48       0.0290
     62  N         20.4520   38.8900    9.1180 N.3    50  LYS50      -0.1245
     63  CA        21.6900   38.2360    9.5130 C.3    50  LYS50       0.1561
     64  C         22.3120   37.5120    8.3180 C.2    50  LYS50       0.2260
     65  O         21.6170   36.8400    7.5480 O.2    50  LYS50      -0.2867
     66  CB        21.4240   37.2720   10.6660 C.3    50  LYS50       0.0271
     67  CG        22.6680   36.8150   11.4160 C.3    50  LYS50       0.0035
     68  CD        22.2890   36.4300   12.8560 C.3    50  LYS50       0.0206
     69  CE        23.4360   35.7640   13.5980 C.3    50  LYS50       0.1093
     70  NZ        22.9570   35.2340   14.9120 N.3    50  LYS50      -0.1314
     71  N         12.5480   37.2750   19.4290 N.3    81  ILE81      -0.1245
     72  CA        12.7800   37.7660   18.0750 C.3    81  ILE81       0.1561
     73  C         12.2350   36.7040   17.1310 C.2    81  ILE81       0.2260
     74  O         12.5620   35.5180   17.2630 O.2    81  ILE81      -0.2867
     75  CB        14.2730   38.0540   17.8360 C.3    81  ILE81       0.0252
     76  CG1       14.4930   39.5010   17.3920 C.3    81  ILE81       0.0019
     77  CG2       14.8200   37.2500   16.7040 C.3    81  ILE81       0.0019
     78  CD1       14.1850   40.5340   18.4060 C.3    81  ILE81       0.0001
     79  N         14.7960   38.7580   10.1860 N.3    97  VAL97      -0.1231
     80  CA        14.1560   38.6880   11.4960 C.3    97  VAL97       0.1692
     81  C         13.6270   40.0640   11.8880 C.2    97  VAL97       0.2592
     82  O         13.9930   41.0900   11.3160 O.2    97  VAL97      -0.2718
     83  CB        15.1180   38.1620   12.5850 C.3    97  VAL97       0.0266
     84  CG1       15.7590   36.8370   12.1350 C.3    97  VAL97       0.0020
     85  CG2       16.1660   39.2110   12.8960 C.3    97  VAL97       0.0020
     86  N         12.7800   40.0670   12.9180 N.am   98  GLU98      -0.1966
     87  CA        12.2640   41.2990   13.4900 C.3    98  GLU98       0.1733
     88  C         13.3870   42.2460   13.9020 C.2    98  GLU98       0.2616
     89  O         14.3960   41.8440   14.4920 O.2    98  GLU98      -0.2715
     90  CB        11.3940   40.9680   14.7080 C.3    98  GLU98       0.0429
     91  CG        10.1200   40.2450   14.3530 C.3    98  GLU98       0.1163
     92  CD         9.2620   39.9740   15.5770 C.2    98  GLU98       0.3649
     93  OE1        9.8370   39.6060   16.6250 O.co2  98  GLU98      -0.2457
     94  OE2        8.0310   40.1760   15.4850 O.co2  98  GLU98      -0.2457
     95  N         13.1760   43.5230   13.6150 N.am   99  TYR99      -0.1960
     96  CA        14.1300   44.5760   13.9120 C.3    99  TYR99       0.1771
     97  C         13.8200   45.1670   15.2830 C.2    99  TYR99       0.2619
     98  O         12.6750   45.5470   15.5610 O.2    99  TYR99      -0.2715
     99  CB        14.0640   45.6520   12.8180 C.3    99  TYR99       0.0574
    100  CG        14.7930   46.9320   13.1360 C.ar   99  TYR99      -0.0198
    101  CD1       16.1580   46.9450   13.3220 C.ar   99  TYR99      -0.0009
    102  CD2       14.1090   48.1370   13.2170 C.ar   99  TYR99      -0.0009
    103  CE1       16.8260   48.1230   13.6090 C.ar   99  TYR99       0.0417
    104  CE2       14.7670   49.3200   13.4960 C.ar   99  TYR99       0.0417
    105  CZ        16.1190   49.3050   13.6870 C.ar   99  TYR99       0.1957
    106  OH        16.7750   50.4790   13.9700 O.3    99  TYR99      -0.2866
    107  N         14.8370   45.2350   16.1300 N.am  100  ALA100     -0.1977
    108  CA        14.7440   45.8130   17.4720 C.3   100  ALA100      0.1597
    109  C         15.6420   47.0500   17.5150 C.2   100  ALA100      0.2287
    110  O         16.8650   46.9390   17.6560 O.2   100  ALA100     -0.2864
    111  CB        15.1520   44.7780   18.5130 C.3   100  ALA100      0.0319
    112  N         18.5440   47.9370   20.3820 N.3   103  GLY103     -0.1210
    113  CA        19.7630   47.1620   20.6080 C.3   103  GLY103      0.1956
    114  C         19.6020   46.0790   21.6610 C.2   103  GLY103      0.2611
    115  O         18.4880   45.7380   22.0860 O.2   103  GLY103     -0.2717
    116  N         20.7410   45.5250   22.0850 N.am  104  ASN104     -0.1974
    117  CA        20.6770   44.4550   23.0700 C.3   104  ASN104      0.1688
    118  C         20.4690   45.0310   24.4710 C.2   104  ASN104      0.2292
    119  O         20.7900   46.1930   24.7530 O.2   104  ASN104     -0.2864
    120  CB        21.9250   43.5620   23.0340 C.3   104  ASN104      0.1181
    121  CG        23.1620   44.2360   23.6100 C.2   104  ASN104      0.2629
    122  OD1       23.2700   44.4460   24.8170 O.2   104  ASN104     -0.2716
    123  ND2       24.1330   44.5200   22.7450 N.am  104  ASN104     -0.0877
    124  N         21.8100   29.8280   26.1330 N.3   147  ASP147     -0.1239
    125  CA        22.6670   31.0000   26.0700 C.3   147  ASP147      0.1674
    126  C         21.8950   32.2470   26.4850 C.2   147  ASP147      0.2266
    127  O         22.0280   33.3150   25.8770 O.2   147  ASP147     -0.2867
    128  CB        23.2730   31.1490   24.6650 C.3   147  ASP147      0.1410
    129  CG        24.4010   32.1620   24.6110 C.2   147  ASP147      0.3668
    130  OD1       24.9160   32.5840   25.6800 O.co2 147  ASP147     -0.2456
    131  OD2       24.7730   32.5380   23.4840 O.co2 147  ASP147     -0.2456
    132  N         23.0740   40.2300   26.8330 N.3   151  ARG151     -0.1231
    133  CA        23.5710   40.5060   25.4870 C.3   151  ARG151      0.1694
    134  C         22.7190   39.8200   24.4170 C.2   151  ARG151      0.2592
    135  O         22.7700   40.2170   23.2460 O.2   151  ARG151     -0.2718
    136  CB        25.0180   40.0190   25.3560 C.3   151  ARG151      0.0321
    137  CG        25.0860   38.4860   25.3320 C.3   151  ARG151      0.0489
    138  CD        26.4840   37.8830   25.3610 C.3   151  ARG151      0.2205
    139  NE        26.4590   36.5840   26.0420 N.pl3 151  ARG151     -0.0865
    140  CZ        26.6830   36.4300   27.3380 C.cat 151  ARG151      0.5346
    141  NH1       26.9460   37.4950   28.0810 N.pl3 151  ARG151      0.1354
    142  NH2       26.6290   35.2270   27.8910 N.pl3 151  ARG151      0.1354
    143  N         21.9610   38.7840   24.7880 N.am  152  ASN152     -0.1974
    144  CA        21.1400   38.0020   23.8680 C.3   152  ASN152      0.1688
    145  C         19.6490   38.3160   24.0160 C.2   152  ASN152      0.2292
    146  O         18.7880   37.5210   23.6000 O.2   152  ASN152     -0.2864
    147  CB        21.4070   36.5090   24.0700 C.3   152  ASN152      0.1181
    148  CG        22.7330   36.0800   23.5070 C.2   152  ASN152      0.2629
    149  OD1       23.2740   36.7690   22.6470 O.2   152  ASN152     -0.2716
    150  ND2       23.2690   34.9300   23.9690 N.am  152  ASN152     -0.0877
    151  N         17.0110   41.4980   22.9640 N.3   154  LEU154     -0.1245
    152  CA        16.9250   42.7060   22.1550 C.3   154  LEU154      0.1561
    153  C         15.7000   43.5100   22.5630 C.2   154  LEU154      0.2260
    154  O         14.7010   42.9560   23.0370 O.2   154  LEU154     -0.2867
    155  CB        16.8620   42.3690   20.6620 C.3   154  LEU154      0.0270
    156  CG        18.0980   41.6800   20.0940 C.3   154  LEU154      0.0019
    157  CD1       17.8060   41.1470   18.7060 C.3   154  LEU154      0.0001
    158  CD2       19.2990   42.6130   20.0900 C.3   154  LEU154      0.0001
    159  N         19.1760   35.3080   19.5300 N.3   165  ASP165     -0.1239
    160  CA        20.4160   34.5340   19.4410 C.3   165  ASP165      0.1674
    161  C         20.1660   33.0610   19.7750 C.2   165  ASP165      0.2266
    162  O         20.6600   32.5130   20.7590 O.2   165  ASP165     -0.2867
    163  CB        21.5150   35.1200   20.3420 C.3   165  ASP165      0.1410
    164  CG        21.8770   36.5470   19.9680 C.2   165  ASP165      0.3668
    165  OD1       21.1990   37.4770   20.4380 O.co2 165  ASP165     -0.2456
    166  OD2       22.8400   36.7480   19.2110 O.co2 165  ASP165     -0.2456
    167  N         28.8670   30.4970   27.4770 N.3   187  PRO187     -0.2116
    168  CA        29.4920   31.4100   28.4410 C.3   187  PRO187      0.1372
    169  C         29.4140   30.8790   29.8500 C.2   187  PRO187      0.2244
    170  O         28.3200   30.6780   30.3900 O.2   187  PRO187     -0.2868
    171  CB        28.6790   32.6960   28.2840 C.3   187  PRO187      0.0268
    172  CG        28.2230   32.6350   26.8120 C.3   187  PRO187      0.0207
    173  CD        27.8550   31.1790   26.6510 C.3   187  PRO187      0.0892
@<TRIPOS>BOND
     1    49    47   am
     2    47    48    2
     3    47    46    1
     4    65    64    2
     5    64    63    1
     6    46    45    1
     7    62    63    1
     8    63    66    1
     9    60    59    2
    10    59    58    1
    11    45    42    1
    12    44    43    2
    13    79    80    1
    14    57    58    1
    15    52    53    2
    16    52    51    1
    17    58    61    1
    18    43    42    1
    19    43    50   am
    20    41    42    1
    21    41    39   am
    22    66    67    1
    23    51    50    1
    24    51    54    1
    25    38    39    1
    26    38    37    1
    27    20    19   ar
    28    29    28    2
    29    82    81    2
    30    67    68    1
    31    39    40    2
    32    80    81    1
    33    80    83    1
    34     1     2    1
    35    81    86   am
    36    84    83    1
    37    37    28   am
    38    28    27    1
    39    55    54    1
    40    54    56    1
    41    19    21   ar
    42    19    18    1
    43     6     7    1
    44     6     5    1
    45     6     8    1
    46    83    85    1
    47    99   100    1
    48    99    96    1
    49    12    11    2
    50    68    69    1
    51    17    18    1
    52    17    14    1
    53    86    87    1
    54     2     5    1
    55     2     3    1
    56   100   102   ar
    57   100   101   ar
    58   102   104   ar
    59    27    30    1
    60    27    26    1
    61   101   103   ar
    62    87    88    1
    63    87    90    1
    64   104   105   ar
    65     9     3   am
    66     9    10    1
    67    69    70    1
    68   103   105   ar
    69    95    88   am
    70    95    96    1
    71   105   106    1
    72    11    13   am
    73    11    10    1
    74    14    13    1
    75    14    15    1
    76    88    89    2
    77    96    97    1
    78     3     4    2
    79    30    31    1
    80    25    24    2
    81    91    90    1
    82    91    92    1
    83    22    15   am
    84    22    23    1
    85    15    16    2
    86    32    31   ar
    87    32    34   ar
    88    24    23    1
    89    31    33   ar
    90    97    98    2
    91    97   107   am
    92    94    92   ar
    93    92    93   ar
    94   107   108    1
    95    34    36   ar
    96    33    35   ar
    97    77    75    1
    98    73    74    2
    99    73    72    1
   100    76    75    1
   101    76    78    1
   102    36    35   ar
   103   108   109    1
   104   108   111    1
   105   109   110    2
   106    75    72    1
   107    72    71    1
   108   157   156    1
   109   166   164   ar
   110   160   159    1
   111   160   161    1
   112   160   163    1
   113   161   162    2
   114   164   163    1
   115   164   165   ar
   116   158   156    1
   117   156   155    1
   118   112   113    1
   119   113   114    1
   120   155   152    1
   121   114   116   am
   122   114   115    2
   123   116   117    1
   124   152   153    1
   125   152   151    1
   126   153   154    2
   127   149   148    2
   128   123   121   am
   129   120   117    1
   130   120   121    1
   131   117   118    1
   132   135   134    2
   133   131   129   ar
   134   148   150   am
   135   148   147    1
   136   146   145    2
   137   121   122    2
   138   144   145    1
   139   144   147    1
   140   144   143    1
   141   134   143   am
   142   134   133    1
   143   118   119    2
   144   129   128    1
   145   129   130   ar
   146   128   125    1
   147   137   136    1
   148   137   138    1
   149   136   133    1
   150   138   139    1
   151   133   132    1
   152   127   126    2
   153   139   140    2
   154   125   124    1
   155   125   126    1
   156   173   172    1
   157   173   167    1
   158   172   171    1
   159   140   142    1
   160   140   141    1
   161   167   168    1
   162   171   168    1
   163   168   169    1
   164   169   170    2
