@<TRIPOS>MOLECULE
tmp/5ugmA01.pdb
 108 108 0 0 0
SMALL
GASTEIGER

@<TRIPOS>ATOM
      1  N         26.4760   71.6570  -41.5720 N.3    61  ILE61      -0.1231
      2  CA        25.8370   72.9630  -41.5220 C.3    61  ILE61       0.1692
      3  C         24.3290   72.7590  -41.4360 C.2    61  ILE61       0.2593
      4  O         23.7320   72.1320  -42.3180 O.2    61  ILE61      -0.2718
      5  CB        26.2030   73.8290  -42.7400 C.3    61  ILE61       0.0266
      6  CG1       27.7260   73.8630  -42.9310 C.3    61  ILE61       0.0019
      7  CG2       25.6370   75.2190  -42.5730 C.3    61  ILE61       0.0020
      8  CD1       28.4870   74.5390  -41.7660 C.3    61  ILE61       0.0001
      9  N         23.7260   73.2740  -40.3740 N.am   62  THR62      -0.1940
     10  CA        22.2770   73.2340  -40.2190 C.3    62  THR62       0.2013
     11  C         21.6110   74.1910  -41.2140 C.2    62  THR62       0.2484
     12  O         22.1570   75.2590  -41.5060 O.2    62  THR62      -0.2729
     13  CB        21.9290   73.6330  -38.7810 C.3    62  THR62       0.1807
     14  OG1       22.5180   72.6960  -37.8680 O.3    62  THR62      -0.2208
     15  CG2       20.4540   73.6740  -38.5500 C.3    62  THR62       0.0379
     16  N         20.4490   73.8370  -41.7670 N.am   63  PRO63      -0.2715
     17  CA        19.6900   74.8270  -42.5480 C.3    63  PRO63       0.1536
     18  C         19.4120   76.0750  -41.7140 C.2    63  PRO63       0.2598
     19  O         19.2560   76.0130  -40.4900 O.2    63  PRO63      -0.2715
     20  CB        18.3960   74.0870  -42.9170 C.3    63  PRO63       0.0310
     21  CG        18.3740   72.8380  -42.0320 C.3    63  PRO63       0.0237
     22  CD        19.8060   72.5120  -41.7720 C.3    63  PRO63       0.0939
     23  N         19.3870   77.2280  -42.3910 N.am   64  LEU64      -0.1964
     24  CA        19.2600   78.5000  -41.6800 C.3    64  LEU64       0.1728
     25  C         18.0040   78.5410  -40.8250 C.2    64  LEU64       0.2616
     26  O         18.0080   79.1260  -39.7400 O.2    64  LEU64      -0.2715
     27  CB        19.2410   79.6660  -42.6660 C.3    64  LEU64       0.0311
     28  CG        20.4790   79.8740  -43.5160 C.3    64  LEU64       0.0022
     29  CD1       20.3020   81.1590  -44.2950 C.3    64  LEU64       0.0001
     30  CD2       21.6900   79.9430  -42.6220 C.3    64  LEU64       0.0001
     31  N         16.9140   77.9460  -41.3190 N.am   65  GLN65      -0.1963
     32  CA        15.6620   77.9210  -40.5770 C.3    65  GLN65       0.1733
     33  C         15.8200   77.2380  -39.2260 C.2    65  GLN65       0.2616
     34  O         15.0890   77.5600  -38.2820 O.2    65  GLN65      -0.2715
     35  CB        14.5910   77.1960  -41.3920 C.3    65  GLN65       0.0408
     36  CG        13.1910   77.7300  -41.2160 C.3    65  GLN65       0.0908
     37  CD        12.9140   78.9080  -42.1170 C.2    65  GLN65       0.2608
     38  OE1       13.1390   80.0590  -41.7360 O.2    65  GLN65      -0.2717
     39  NE2       12.4320   78.6300  -43.3290 N.am   65  GLN65      -0.0878
     40  N         16.7400   76.2770  -39.1180 N.am   66  GLU66      -0.1977
     41  CA        16.8680   75.4930  -37.8980 C.3    66  GLU66       0.1602
     42  C         18.0090   75.9630  -37.0180 C.2    66  GLU66       0.2287
     43  O         18.2370   75.3790  -35.9570 O.2    66  GLU66      -0.2864
     44  CB        17.0350   74.0020  -38.2250 C.3    66  GLU66       0.0415
     45  CG        15.9520   73.4190  -39.1120 C.3    66  GLU66       0.1163
     46  CD        14.5440   73.7640  -38.6540 C.2    66  GLU66       0.3649
     47  OE1       14.2890   73.7400  -37.4280 O.co2  66  GLU66      -0.2457
     48  OE2       13.6900   74.0620  -39.5280 O.co2  66  GLU66      -0.2457
     49  N         22.5370   70.0440  -31.6260 N.3    77  GLN77      -0.1245
     50  CA        22.6840   69.8040  -33.0570 C.3    77  GLN77       0.1566
     51  C         24.0430   69.1970  -33.3670 C.2    77  GLN77       0.2260
     52  O         24.1550   68.3160  -34.2310 O.2    77  GLN77      -0.2867
     53  CB        22.4720   71.1070  -33.8310 C.3    77  GLN77       0.0367
     54  CG        20.9980   71.5240  -33.9170 C.3    77  GLN77       0.0905
     55  CD        20.8230   72.9370  -34.4470 C.2    77  GLN77       0.2608
     56  OE1       21.8030   73.6270  -34.7350 O.2    77  GLN77      -0.2717
     57  NE2       19.5720   73.3740  -34.5740 N.am   77  GLN77      -0.0878
     58  N         23.5370   65.5080  -32.7570 N.3    80  GLN80      -0.1231
     59  CA        22.7950   64.8950  -33.8570 C.3    80  GLN80       0.1698
     60  C         23.6950   64.5870  -35.0440 C.2    80  GLN80       0.2592
     61  O         23.5880   63.5200  -35.6540 O.2    80  GLN80      -0.2718
     62  CB        21.6650   65.8210  -34.3090 C.3    80  GLN80       0.0381
     63  CG        20.6810   66.1320  -33.2000 C.3    80  GLN80       0.0905
     64  CD        19.4650   66.8530  -33.7230 C.2    80  GLN80       0.2608
     65  OE1       18.9130   66.4740  -34.7470 O.2    80  GLN80      -0.2717
     66  NE2       19.0440   67.8980  -33.0220 N.am   80  GLN80      -0.0878
     67  N         24.5640   65.5270  -35.4040 N.am   81  PHE81      -0.1976
     68  CA        25.4200   65.3360  -36.5640 C.3    81  PHE81       0.1639
     69  C         26.4220   64.2180  -36.3340 C.2    81  PHE81       0.2290
     70  O         26.7690   63.4960  -37.2760 O.2    81  PHE81      -0.2864
     71  CB        26.1400   66.6450  -36.9080 C.3    81  PHE81       0.0560
     72  CG        25.2950   67.6140  -37.7110 C.ar   81  PHE81      -0.0200
     73  CD1       24.7440   67.2300  -38.9300 C.ar   81  PHE81      -0.0042
     74  CD2       25.0690   68.9070  -37.2530 C.ar   81  PHE81      -0.0042
     75  CE1       23.9820   68.1270  -39.6860 C.ar   81  PHE81      -0.0003
     76  CE2       24.3000   69.8070  -37.9960 C.ar   81  PHE81      -0.0003
     77  CZ        23.7570   69.4150  -39.2100 C.ar   81  PHE81      -0.0000
     78  N         13.4140   70.6300  -34.0040 N.3   258  SER258     -0.1202
     79  CA        13.7960   69.9470  -35.2310 C.3   258  SER258      0.2020
     80  C         14.8660   68.9040  -34.9540 C.2   258  SER258      0.2619
     81  O         15.9220   69.2140  -34.3900 O.2   258  SER258     -0.2717
     82  CB        14.2960   70.9520  -36.2720 C.3   258  SER258      0.2103
     83  OG        15.0080   72.0190  -35.6570 O.3   258  SER258     -0.2182
     84  N         14.5840   67.6730  -35.3530 N.am  259  LEU259     -0.1965
     85  CA        15.5970   66.6480  -35.4840 C.3   259  LEU259      0.1728
     86  C         16.0630   66.6130  -36.9290 C.2   259  LEU259      0.2616
     87  O         15.2930   66.8830  -37.8560 O.2   259  LEU259     -0.2715
     88  CB        15.0600   65.2750  -35.0850 C.3   259  LEU259      0.0311
     89  CG        14.7540   65.0890  -33.6090 C.3   259  LEU259      0.0022
     90  CD1       14.3490   63.6540  -33.3930 C.3   259  LEU259      0.0001
     91  CD2       15.9710   65.4450  -32.7920 C.3   259  LEU259      0.0001
     92  N         17.3340   66.3020  -37.1090 N.am  260  HIS260     -0.1960
     93  CA        17.8270   65.9960  -38.4390 C.3   260  HIS260      0.1772
     94  C         16.9060   64.9680  -39.0950 C.2   260  HIS260      0.2462
     95  O         16.4220   64.0570  -38.4150 O.2   260  HIS260     -0.2730
     96  CB        19.2550   65.4640  -38.3340 C.3   260  HIS260      0.0785
     97  CG        19.9660   65.3480  -39.6400 C.ar  260  HIS260      0.0821
     98  ND1       19.7300   64.3200  -40.5230 N.ar  260  HIS260     -0.2267
     99  CD2       20.9570   66.0990  -40.1860 C.ar  260  HIS260      0.1154
    100  CE1       20.5300   64.4520  -41.5710 C.ar  260  HIS260      0.1986
    101  NE2       21.2820   65.5260  -41.3920 N.ar  260  HIS260     -0.2212
    102  N         16.6240   65.0860  -40.3990 N.am  261  PRO261     -0.2727
    103  CA        15.7460   64.0920  -41.0510 C.3   261  PRO261      0.1402
    104  C         16.2080   62.6480  -40.9060 C.2   261  PRO261      0.2269
    105  O         15.3600   61.7410  -40.8800 O.2   261  PRO261     -0.2865
    106  CB        15.7330   64.5310  -42.5280 C.3   261  PRO261      0.0296
    107  CG        16.7270   65.6670  -42.6490 C.3   261  PRO261      0.0237
    108  CD        16.9010   66.2420  -41.2690 C.3   261  PRO261      0.0939
@<TRIPOS>BOND
     1    29    28    1
     2    28    27    1
     3    28    30    1
     4    39    37   am
     5     6     5    1
     6     6     8    1
     7    20    17    1
     8    20    21    1
     9     5     7    1
    10     5     2    1
    11    27    24    1
    12   107   106    1
    13   107   108    1
    14    17    16    1
    15    17    18    1
    16   106   103    1
    17    23    18   am
    18    23    24    1
    19     4     3    2
    20    37    38    2
    21    37    36    1
    22    21    22    1
    23    22    16    1
    24    16    11   am
    25    18    19    2
    26    24    25    1
    27     1     2    1
    28   100   101   ar
    29   100    98   ar
    30     2     3    1
    31    12    11    2
    32     3     9   am
    33   101    99   ar
    34    35    36    1
    35    35    32    1
    36    31    25   am
    37    31    32    1
    38   108   102    1
    39    11    10    1
    40   103   104    1
    41   103   102    1
    42   104   105    2
    43    25    26    2
    44    32    33    1
    45    98    97   ar
    46   102    94   am
    47     9    10    1
    48    10    13    1
    49    99    97   ar
    50    75    77   ar
    51    75    73   ar
    52    97    96    1
    53    48    46   ar
    54    33    40   am
    55    33    34    2
    56    77    76   ar
    57    40    41    1
    58    45    46    1
    59    45    44    1
    60    94    93    1
    61    94    95    2
    62    73    72   ar
    63    13    15    1
    64    13    14    1
    65    46    47   ar
    66    93    96    1
    67    93    92    1
    68    44    41    1
    69    76    74   ar
    70    41    42    1
    71    87    86    2
    72    72    74   ar
    73    72    71    1
    74    70    69    2
    75    92    86   am
    76    42    43    2
    77    86    85    1
    78    71    68    1
    79    68    69    1
    80    68    67    1
    81    82    83    1
    82    82    79    1
    83    61    60    2
    84    85    84    1
    85    85    88    1
    86    67    60   am
    87    84    80   am
    88    79    80    1
    89    79    78    1
    90    88    89    1
    91    60    59    1
    92    80    81    2
    93    65    64    2
    94    56    55    2
    95    57    55   am
    96    55    54    1
    97    62    59    1
    98    62    63    1
    99    52    51    2
   100    54    53    1
   101    59    58    1
   102    53    50    1
   103    64    63    1
   104    64    66   am
   105    89    90    1
   106    89    91    1
   107    51    50    1
   108    50    49    1
