@<TRIPOS>MOLECULE
tmp/5ugmA02.pdb
 116 110 0 0 0
SMALL
GASTEIGER

@<TRIPOS>ATOM
      1  N         33.7450   77.9000  -31.2390 N.3    53  GLU53      -0.1245
      2  CA        33.1210   77.9730  -32.5580 C.3    53  GLU53       0.1567
      3  C         33.9940   78.7420  -33.5470 C.2    53  GLU53       0.2260
      4  O         34.0860   78.3670  -34.7250 O.2    53  GLU53      -0.2867
      5  CB        31.7330   78.5980  -32.4460 C.3    53  GLU53       0.0388
      6  CG        30.7680   77.7750  -31.5950 C.3    53  GLU53       0.1160
      7  CD        29.3110   78.0300  -31.9470 C.2    53  GLU53       0.3649
      8  OE1       29.0100   78.2040  -33.1490 O.co2  53  GLU53      -0.2457
      9  OE2       28.4700   78.0650  -31.0240 O.co2  53  GLU53      -0.2457
     10  N         33.7930   73.3400  -38.3270 N.3    58  PHE58      -0.1227
     11  CA        32.6270   72.4730  -38.3770 C.3    58  PHE58       0.1736
     12  C         32.4330   71.9350  -39.7860 C.2    58  PHE58       0.2595
     13  O         32.5350   72.6710  -40.7720 O.2    58  PHE58      -0.2718
     14  CB        31.3850   73.2340  -37.9200 C.3    58  PHE58       0.0547
     15  CG        31.4850   73.7350  -36.5060 C.ar   58  PHE58      -0.0202
     16  CD1       31.8750   72.8750  -35.4820 C.ar   58  PHE58      -0.0042
     17  CD2       31.2180   75.0580  -36.1980 C.ar   58  PHE58      -0.0042
     18  CE1       31.9880   73.3290  -34.1730 C.ar   58  PHE58      -0.0003
     19  CE2       31.3220   75.5180  -34.8900 C.ar   58  PHE58      -0.0003
     20  CZ        31.7110   74.6500  -33.8770 C.ar   58  PHE58      -0.0000
     21  N         32.1600   70.6420  -39.8740 N.am   59  LYS59      -0.1966
     22  CA        31.9270   69.9940  -41.1570 C.3    59  LYS59       0.1728
     23  C         30.4660   70.0730  -41.6000 C.2    59  LYS59       0.2616
     24  O         30.1920   70.1640  -42.8010 O.2    59  LYS59      -0.2715
     25  CB        32.3730   68.5300  -41.0660 C.3    59  LYS59       0.0311
     26  CG        33.0790   67.9970  -42.2930 C.3    59  LYS59       0.0038
     27  CD        32.9050   66.4860  -42.3980 C.3    59  LYS59       0.0206
     28  CE        33.2380   65.7900  -41.0800 C.3    59  LYS59       0.1093
     29  NZ        32.6640   64.4090  -41.0370 N.3    59  LYS59      -0.1314
     30  N         29.5220   70.0640  -40.6640 N.am   60  HIS60      -0.1973
     31  CA        28.1050   69.9620  -40.9810 C.3    60  HIS60       0.1656
     32  C         27.4080   71.2850  -40.6980 C.2    60  HIS60       0.2291
     33  O         27.6970   71.9460  -39.6970 O.2    60  HIS60      -0.2864
     34  CB        27.4520   68.8410  -40.1730 C.3    60  HIS60       0.0771
     35  CG        28.1560   67.5320  -40.3000 C.ar   60  HIS60       0.0820
     36  ND1       27.9600   66.6860  -41.3720 N.ar   60  HIS60      -0.2267
     37  CD2       29.0830   66.9370  -39.5120 C.ar   60  HIS60       0.1154
     38  CE1       28.7270   65.6210  -41.2300 C.ar   60  HIS60       0.1986
     39  NE2       29.4150   65.7460  -40.1090 N.ar   60  HIS60      -0.2212
     40  N         23.7260   73.2740  -40.3740 N.3    62  THR62      -0.1218
     41  CA        22.2770   73.2340  -40.2190 C.3    62  THR62       0.1862
     42  C         21.6110   74.1910  -41.2140 C.2    62  THR62       0.2287
     43  O         22.1570   75.2590  -41.5060 O.2    62  THR62      -0.2866
     44  CB        21.9290   73.6330  -38.7810 C.3    62  THR62       0.1770
     45  OG1       22.5180   72.6960  -37.8680 O.3    62  THR62      -0.2211
     46  CG2       20.4540   73.6740  -38.5500 C.3    62  THR62       0.0375
     47  N         18.7180   77.0090  -37.4140 N.3    67  GLN67      -0.1245
     48  CA        19.7600   77.5330  -36.5520 C.3    67  GLN67       0.1566
     49  C         19.1350   78.2470  -35.3590 C.2    67  GLN67       0.2260
     50  O         18.0600   78.8480  -35.4560 O.2    67  GLN67      -0.2867
     51  CB        20.6850   78.4600  -37.3420 C.3    67  GLN67       0.0367
     52  CG        21.4280   77.6890  -38.4520 C.3    67  GLN67       0.0905
     53  CD        22.4570   78.5210  -39.2000 C.2    67  GLN67       0.2608
     54  OE1       22.5870   79.7290  -38.9630 O.2    67  GLN67      -0.2717
     55  NE2       23.1810   77.8790  -40.1360 N.am   67  GLN67      -0.0878
     56  N         22.4520   74.5190  -30.0650 N.3    74  ARG74      -0.1245
     57  CA        23.5990   74.3130  -30.9410 C.3    74  ARG74       0.1563
     58  C         24.3730   73.0660  -30.5310 C.2    74  ARG74       0.2260
     59  O         24.8620   72.3150  -31.3870 O.2    74  ARG74      -0.2867
     60  CB        24.5000   75.5520  -30.9290 C.3    74  ARG74       0.0307
     61  CG        23.7660   76.8140  -31.3730 C.3    74  ARG74       0.0489
     62  CD        24.6790   77.8000  -32.0930 C.3    74  ARG74       0.2205
     63  NE        25.7650   78.3050  -31.2560 N.pl3  74  ARG74      -0.0865
     64  CZ        25.6030   79.1000  -30.1970 C.cat  74  ARG74       0.5346
     65  NH1       24.3870   79.4930  -29.8250 N.pl3  74  ARG74       0.1354
     66  NH2       26.6630   79.5070  -29.5050 N.pl3  74  ARG74       0.1354
     67  N         22.5370   70.0440  -31.6260 N.3    77  GLN77      -0.1231
     68  CA        22.6840   69.8040  -33.0570 C.3    77  GLN77       0.1698
     69  C         24.0430   69.1970  -33.3670 C.2    77  GLN77       0.2592
     70  O         24.1550   68.3160  -34.2310 O.2    77  GLN77      -0.2718
     71  CB        22.4720   71.1070  -33.8310 C.3    77  GLN77       0.0381
     72  CG        20.9980   71.5240  -33.9170 C.3    77  GLN77       0.0905
     73  CD        20.8230   72.9370  -34.4470 C.2    77  GLN77       0.2608
     74  OE1       21.8030   73.6270  -34.7350 O.2    77  GLN77      -0.2717
     75  NE2       19.5720   73.3740  -34.5740 N.am   77  GLN77      -0.0878
     76  N         25.0860   69.6610  -32.6740 N.am   78  GLY78      -0.1957
     77  CA        26.3750   68.9930  -32.7580 C.3    78  GLY78       0.1869
     78  C         26.3000   67.5020  -32.4780 C.2    78  GLY78       0.2309
     79  O         26.9500   66.7030  -33.1570 O.2    78  GLY78      -0.2863
     80  N         24.5640   65.5270  -35.4040 N.3    81  PHE81      -0.1227
     81  CA        25.4200   65.3360  -36.5640 C.3    81  PHE81       0.1736
     82  C         26.4220   64.2180  -36.3340 C.2    81  PHE81       0.2595
     83  O         26.7690   63.4960  -37.2760 O.2    81  PHE81      -0.2718
     84  CB        26.1400   66.6450  -36.9080 C.3    81  PHE81       0.0547
     85  CG        25.2950   67.6140  -37.7110 C.ar   81  PHE81      -0.0202
     86  CD1       24.7440   67.2300  -38.9300 C.ar   81  PHE81      -0.0042
     87  CD2       25.0690   68.9070  -37.2530 C.ar   81  PHE81      -0.0042
     88  CE1       23.9820   68.1270  -39.6860 C.ar   81  PHE81      -0.0003
     89  CE2       24.3000   69.8070  -37.9960 C.ar   81  PHE81      -0.0003
     90  CZ        23.7570   69.4150  -39.2100 C.ar   81  PHE81      -0.0000
     91  N         26.9020   64.0550  -35.0990 N.am   82  ARG82      -0.1980
     92  CA        27.7420   62.8960  -34.8140 C.3    82  ARG82       0.1597
     93  C         26.9780   61.6080  -35.0870 C.2    82  ARG82       0.2287
     94  O         27.5230   60.6560  -35.6670 O.2    82  ARG82      -0.2864
     95  CB        28.2440   62.9480  -33.3720 C.3    82  ARG82       0.0334
     96  CG        28.9510   61.6640  -32.9150 C.3    82  ARG82       0.0492
     97  CD        30.4350   61.7100  -33.2330 C.3    82  ARG82       0.2205
     98  NE        30.7250   61.3490  -34.6200 N.pl3  82  ARG82      -0.0865
     99  CZ        30.8280   60.0960  -35.0530 C.cat  82  ARG82       0.5346
    100  NH1       30.6540   59.0890  -34.2010 N.pl3  82  ARG82       0.1354
    101  NH2       31.1070   59.8440  -36.3310 N.pl3  82  ARG82       0.1354
    102  N         26.6470   60.9760  -38.9460 N.3    85  GLU85      -0.1245
    103  CA        27.8780   60.3550  -39.4380 C.3    85  GLU85       0.1567
    104  C         27.9350   58.8910  -39.0440 C.2    85  GLU85       0.2260
    105  O         28.2200   58.0210  -39.8700 O.2    85  GLU85      -0.2867
    106  CB        29.1140   61.0520  -38.8630 C.3    85  GLU85       0.0388
    107  CG        29.5930   62.2830  -39.5650 C.3    85  GLU85       0.1160
    108  CD        30.7900   62.8740  -38.8390 C.2    85  GLU85       0.3649
    109  OE1       31.1450   64.0450  -39.1040 O.co2  85  GLU85      -0.2457
    110  OE2       31.3620   62.1620  -37.9760 O.co2  85  GLU85      -0.2457
    111  N         33.8010   67.3150  -32.4340 N.3   136  SER136     -0.1217
    112  CA        34.2560   67.6860  -33.7770 C.3   136  SER136      0.1889
    113  C         35.5930   67.0270  -34.1230 C.2   136  SER136      0.2288
    114  O         36.6030   67.6880  -34.4010 O.2   136  SER136     -0.2866
    115  CB        34.3460   69.2080  -33.9230 C.3   136  SER136      0.2089
    116  OG        33.1680   69.8130  -33.4270 O.3   136  SER136     -0.2183
@<TRIPOS>BOND
     1    24    23    2
     2    27    26    1
     3    27    28    1
     4    26    25    1
     5    23    22    1
     6    23    30   am
     7    43    42    2
     8    36    38   ar
     9    36    35   ar
    10    38    39   ar
    11    42    41    1
    12    22    25    1
    13    22    21    1
    14    28    29    1
    15    31    32    1
    16    31    30    1
    17    31    34    1
    18    13    12    2
    19    32    33    2
    20    40    41    1
    21    35    34    1
    22    35    37   ar
    23    41    44    1
    24    55    53   am
    25    39    37   ar
    26    21    12   am
    27   105   104    2
    28    12    11    1
    29    88    90   ar
    30    88    86   ar
    31   107   106    1
    32   107   108    1
    33   103   104    1
    34   103   102    1
    35   103   106    1
    36    90    89   ar
    37    53    54    2
    38    53    52    1
    39   109   108   ar
    40    86    85   ar
    41   108   110   ar
    42    44    46    1
    43    44    45    1
    44    52    51    1
    45    11    10    1
    46    11    14    1
    47    89    87   ar
    48    14    15    1
    49    85    87   ar
    50    85    84    1
    51    47    48    1
    52    51    48    1
    53    83    82    2
    54    84    81    1
    55    81    82    1
    56    81    80    1
    57    48    49    1
    58    15    17   ar
    59    15    16   ar
    60    82    91   am
    61   101    99    1
    62    17    19   ar
    63    94    93    2
    64    16    18   ar
    65    50    49    2
    66    91    92    1
    67    93    92    1
    68    99    98    2
    69    99   100    1
    70    19    20   ar
    71    92    95    1
    72    74    73    2
    73     4     3    2
    74    98    97    1
    75    75    73   am
    76    73    72    1
    77   114   113    2
    78    70    69    2
    79    18    20   ar
    80   113   112    1
    81   115   112    1
    82   115   116    1
    83    72    71    1
    84    71    68    1
    85   112   111    1
    86     3     2    1
    87    95    96    1
    88    69    68    1
    89    69    76   am
    90    97    96    1
    91    79    78    2
    92     8     7   ar
    93    68    67    1
    94    77    76    1
    95    77    78    1
    96     2     5    1
    97     2     1    1
    98     5     6    1
    99    62    61    1
   100    62    63    1
   101     7     6    1
   102     7     9   ar
   103    59    58    2
   104    61    60    1
   105    63    64    2
   106    57    60    1
   107    57    58    1
   108    57    56    1
   109    64    65    1
   110    64    66    1
