@<TRIPOS>MOLECULE
tmp/5ugnD01.pdb
 153 145 0 0 0
SMALL
GASTEIGER

@<TRIPOS>ATOM
      1  N         18.3670   -1.5830    9.0640 N.3    31  ARG31      -0.1245
      2  CA        16.9200   -1.7480    9.1880 C.3    31  ARG31       0.1563
      3  C         16.2670   -2.0820    7.8500 C.2    31  ARG31       0.2260
      4  O         15.2800   -2.8250    7.8140 O.2    31  ARG31      -0.2867
      5  CB        16.2940   -0.4870    9.7820 C.3    31  ARG31       0.0307
      6  CG        16.7000   -0.2230   11.2270 C.3    31  ARG31       0.0489
      7  CD        15.4890    0.1290   12.0660 C.3    31  ARG31       0.2205
      8  NE        14.7370    1.2330   11.4790 N.pl3  31  ARG31      -0.0865
      9  CZ        13.4670    1.4990   11.7620 C.cat  31  ARG31       0.5346
     10  NH1       12.8040    0.7350   12.6220 N.pl3  31  ARG31       0.1354
     11  NH2       12.8620    2.5240   11.1820 N.pl3  31  ARG31       0.1354
     12  N          3.4660   -3.2350   24.8200 N.3   140  ARG140     -0.1245
     13  CA         2.6590   -3.0860   23.6160 C.3   140  ARG140      0.1563
     14  C          1.1730   -3.0050   23.9650 C.2   140  ARG140      0.2260
     15  O          0.7540   -3.3980   25.0520 O.2   140  ARG140     -0.2867
     16  CB         2.9160   -4.2410   22.6670 C.3   140  ARG140      0.0307
     17  CG         4.3650   -4.3580   22.2820 C.3   140  ARG140      0.0489
     18  CD         4.4880   -5.2130   21.0750 C.3   140  ARG140      0.2205
     19  NE         3.7630   -4.6630   19.9310 N.pl3 140  ARG140     -0.0865
     20  CZ         4.2410   -3.7060   19.1500 C.cat 140  ARG140      0.5346
     21  NH1        5.4180   -3.1750   19.4180 N.pl3 140  ARG140      0.1354
     22  NH2        3.5390   -3.2670   18.1140 N.pl3 140  ARG140      0.1354
     23  N         -1.0310    4.6610   11.6990 N.3   170  GLY170     -0.1210
     24  CA         0.0010    3.7860   12.2580 C.3   170  GLY170      0.1956
     25  C         -0.2620    2.3040   12.0310 C.2   170  GLY170      0.2612
     26  O         -1.0090    1.8950   11.1420 O.2   170  GLY170     -0.2717
     27  N          0.3920    1.4910   12.8700 N.am  171  SER171     -0.1952
     28  CA         0.2180    0.0440   12.8160 C.3   171  SER171      0.1924
     29  C         -1.2330   -0.3850   13.0290 C.2   171  SER171      0.2314
     30  O         -1.6480   -1.4270   12.5090 O.2   171  SER171     -0.2863
     31  CB         1.1090   -0.6240   13.8630 C.3   171  SER171      0.2116
     32  OG         0.6850   -0.2450   15.1640 O.3   171  SER171     -0.2180
     33  N         -2.7990   -0.4520    9.7580 N.3   174  ARG174     -0.1245
     34  CA        -2.2400   -1.5870    9.0280 C.3   174  ARG174      0.1563
     35  C         -2.7520   -2.9300    9.5430 C.2   174  ARG174      0.2260
     36  O         -2.2810   -3.9770    9.0800 O.2   174  ARG174     -0.2867
     37  CB        -0.7060   -1.5480    9.0850 C.3   174  ARG174      0.0307
     38  CG        -0.1440   -0.2530    8.5190 C.3   174  ARG174      0.0489
     39  CD         1.3320   -0.3670    8.1300 C.3   174  ARG174      0.2205
     40  NE         2.1390   -0.9350    9.2090 N.pl3 174  ARG174     -0.0865
     41  CZ         2.7050   -0.2370   10.1850 C.cat 174  ARG174      0.5346
     42  NH1        2.5840    1.0910   10.2380 N.pl3 174  ARG174      0.1354
     43  NH2        3.4040   -0.8810   11.1130 N.pl3 174  ARG174      0.1354
     44  N         -0.0130   -2.6710   18.9420 N.3   179  SER179     -0.1202
     45  CA         0.6280   -1.4390   18.4990 C.3   179  SER179      0.2020
     46  C          1.5700   -0.9350   19.5870 C.2   179  SER179      0.2619
     47  O          1.3870   -1.2320   20.7680 O.2   179  SER179     -0.2717
     48  CB        -0.4240   -0.3810   18.1640 C.3   179  SER179      0.2103
     49  OG        -1.2370   -0.8220   17.0660 O.3   179  SER179     -0.2182
     50  N          2.5930   -0.1750   19.1830 N.am  180  GLY180     -0.1942
     51  CA         3.4460    0.4620   20.1710 C.3   180  GLY180      0.2014
     52  C          2.8920    1.7540   20.7370 C.2   180  GLY180      0.2638
     53  O          3.3360    2.1920   21.8050 O.2   180  GLY180     -0.2714
     54  N          1.9420    2.3780   20.0430 N.am  181  ASP181     -0.1971
     55  CA         1.3610    3.6430   20.4760 C.3   181  ASP181      0.1709
     56  C          0.1140    3.8850   19.6280 C.2   181  ASP181      0.2293
     57  O         -0.2650    3.0570   18.7920 O.2   181  ASP181     -0.2864
     58  CB         2.3820    4.7940   20.3900 C.3   181  ASP181      0.1436
     59  CG         2.7070    5.2220   18.9580 C.2   181  ASP181      0.3671
     60  OD1        2.2170    4.6110   17.9980 O.co2 181  ASP181     -0.2456
     61  OD2        3.4770    6.1930   18.7930 O.co2 181  ASP181     -0.2456
     62  N         -1.6250    6.5830   16.9510 N.3   183  ASP183     -0.1239
     63  CA        -1.3950    7.6900   16.0310 C.3   183  ASP183      0.1674
     64  C         -2.7240    8.1520   15.4690 C.2   183  ASP183      0.2266
     65  O         -3.4360    7.3690   14.8250 O.2   183  ASP183     -0.2867
     66  CB        -0.4630    7.2710   14.8980 C.3   183  ASP183      0.1410
     67  CG         0.8170    6.6990   15.4090 C.2   183  ASP183      0.3668
     68  OD1        1.5690    7.4490   16.0640 O.co2 183  ASP183     -0.2456
     69  OD2        1.0610    5.4980   15.1970 O.co2 183  ASP183     -0.2456
     70  N          0.2340   10.2420   19.6180 N.3   247  ASP247     -0.1239
     71  CA         0.6200   11.3180   18.7250 C.3   247  ASP247      0.1674
     72  C         -0.6260   11.7550   17.9740 C.2   247  ASP247      0.2266
     73  O         -1.4090   10.9190   17.5170 O.2   247  ASP247     -0.2867
     74  CB         1.6960   10.8730   17.7280 C.3   247  ASP247      0.1410
     75  CG         2.9740   10.4030   18.4030 C.2   247  ASP247      0.3668
     76  OD1        3.4990   11.1130   19.2840 O.co2 247  ASP247     -0.2456
     77  OD2        3.4500    9.3030   18.0600 O.co2 247  ASP247     -0.2456
     78  N          1.2710    9.0270    4.7670 N.3   262  TYR262     -0.1227
     79  CA         2.3960    9.2170    5.6870 C.3   262  TYR262      0.1736
     80  C          2.1550    8.5370    7.0440 C.2   262  TYR262      0.2595
     81  O          2.9860    7.7500    7.5070 O.2   262  TYR262     -0.2718
     82  CB         2.6740   10.7160    5.8800 C.3   262  TYR262      0.0548
     83  CG         3.2930   11.0310    7.2170 C.ar  262  TYR262     -0.0200
     84  CD1        4.6260   10.7230    7.4710 C.ar  262  TYR262     -0.0009
     85  CD2        2.5360   11.6020    8.2500 C.ar  262  TYR262     -0.0009
     86  CE1        5.2050   11.0050    8.7030 C.ar  262  TYR262      0.0417
     87  CE2        3.1170   11.8930    9.4900 C.ar  262  TYR262      0.0417
     88  CZ         4.4430   11.5790    9.7140 C.ar  262  TYR262      0.1957
     89  OH         5.0280   11.8410   10.9480 O.3   262  TYR262     -0.2866
     90  N          1.0300    8.8430    7.7080 N.am  263  PHE263     -0.1962
     91  CA         0.8190    8.4060    9.0960 C.3   263  PHE263      0.1771
     92  C          0.4690    6.9270    9.1930 C.2   263  PHE263      0.2620
     93  O          0.5530    6.3450   10.2800 O.2   263  PHE263     -0.2715
     94  CB        -0.3020    9.2330    9.7430 C.3   263  PHE263      0.0574
     95  CG         0.0080    9.7510   11.1350 C.ar  263  PHE263     -0.0200
     96  CD1        1.3120    9.8580   11.5940 C.ar  263  PHE263     -0.0042
     97  CD2       -1.0280   10.1440   11.9780 C.ar  263  PHE263     -0.0042
     98  CE1        1.5780   10.3450   12.8610 C.ar  263  PHE263     -0.0003
     99  CE2       -0.7740   10.6270   13.2400 C.ar  263  PHE263     -0.0003
    100  CZ         0.5330   10.7350   13.6880 C.ar  263  PHE263     -0.0000
    101  N          0.0660    6.3010    8.0900 N.am  264  THR264     -0.1937
    102  CA        -0.1410    4.8590    8.1270 C.3   264  THR264      0.2028
    103  C          1.1820    4.1030    8.0630 C.2   264  THR264      0.2643
    104  O          1.2890    3.0120    8.6250 O.2   264  THR264     -0.2714
    105  CB        -1.0840    4.4440    6.9920 C.3   264  THR264      0.1808
    106  OG1       -2.3630    5.0370    7.2300 O.3   264  THR264     -0.2208
    107  CG2       -1.2730    2.9460    6.9410 C.3   264  THR264      0.0379
    108  N          2.1990    4.6660    7.4080 N.am  265  GLY265     -0.1939
    109  CA         3.4920    3.9980    7.3120 C.3   265  GLY265      0.2014
    110  C          3.4590    2.6050    6.6940 C.2   265  GLY265      0.2640
    111  O          2.6030    2.3320    5.8500 O.2   265  GLY265     -0.2714
    112  N          4.3410    1.6910    7.1110 N.am  266  SER266     -0.1935
    113  CA         5.3370    1.8700    8.1740 C.3   266  SER266      0.2055
    114  C          6.3930    2.9420    7.8690 C.2   266  SER266      0.2643
    115  O          6.4430    3.4680    6.7660 O.2   266  SER266     -0.2714
    116  CB         6.0460    0.5350    8.4390 C.3   266  SER266      0.2130
    117  OG         6.9280    0.1960    7.3650 O.3   266  SER266     -0.2179
    118  N          7.2430    3.2460    8.8500 N.am  267  ASP267     -0.1971
    119  CA         8.3540    4.1580    8.5950 C.3   267  ASP267      0.1709
    120  C          9.2220    3.6590    7.4500 C.2   267  ASP267      0.2293
    121  O          9.5800    4.4300    6.5570 O.2   267  ASP267     -0.2864
    122  CB         9.1950    4.3540    9.8610 C.3   267  ASP267      0.1436
    123  CG         9.7590    3.0510   10.4210 C.2   267  ASP267      0.3671
    124  OD1        9.3210    1.9380   10.0290 O.co2 267  ASP267     -0.2456
    125  OD2       10.6480    3.1480   11.2890 O.co2 267  ASP267     -0.2456
    126  N          7.5110    4.0110    4.1230 N.3   270  ASN270     -0.1225
    127  CA         7.5590    5.4070    3.6870 C.3   270  ASN270      0.1785
    128  C          8.9160    5.7550    3.0740 C.2   270  ASN270      0.2597
    129  O          8.9860    6.4270    2.0370 O.2   270  ASN270     -0.2718
    130  CB         7.2560    6.3310    4.8830 C.3   270  ASN270      0.1169
    131  CG         5.7720    6.3360    5.2750 C.2   270  ASN270      0.2627
    132  OD1        4.9310    5.8270    4.5350 O.2   270  ASN270     -0.2716
    133  ND2        5.4460    6.9230    6.4420 N.am  270  ASN270     -0.0877
    134  N         10.0080    5.3220    3.7130 N.am  271  LYS271     -0.1980
    135  CA        11.3350    5.5880    3.1670 C.3   271  LYS271      0.1596
    136  C         11.5090    4.9090    1.8140 C.2   271  LYS271      0.2287
    137  O         12.0390    5.5090    0.8720 O.2   271  LYS271     -0.2864
    138  CB        12.4180    5.1280    4.1510 C.3   271  LYS271      0.0298
    139  CG        12.5530    6.0200    5.3940 C.3   271  LYS271      0.0038
    140  CD        13.5490    5.4760    6.4270 C.3   271  LYS271      0.0206
    141  CE        14.9970    5.8310    6.0960 C.3   271  LYS271      0.1093
    142  NZ        15.5690    5.0220    4.9790 N.3   271  LYS271     -0.1314
    143  N          9.1210    6.8320   -0.7490 N.3   274  ARG274     -0.1245
    144  CA         9.6330    8.1520   -1.0900 C.3   274  ARG274      0.1563
    145  C         10.9220    8.0530   -1.9020 C.2   274  ARG274      0.2260
    146  O         11.1330    8.8480   -2.8210 O.2   274  ARG274     -0.2867
    147  CB         9.8220    8.9870    0.1830 C.3   274  ARG274      0.0307
    148  CG         8.4750    9.4120    0.7810 C.3   274  ARG274      0.0489
    149  CD         8.5900   10.0990    2.1350 C.3   274  ARG274      0.2205
    150  NE         7.2630   10.3140    2.7250 N.pl3 274  ARG274     -0.0865
    151  CZ         7.0050   11.2300    3.6560 C.cat 274  ARG274      0.5346
    152  NH1        7.9760   12.0330    4.0940 N.pl3 274  ARG274      0.1354
    153  NH2        5.7770   11.3630    4.1350 N.pl3 274  ARG274      0.1354
@<TRIPOS>BOND
     1   146   145    2
     2   145   144    1
     3   144   143    1
     4   144   147    1
     5   147   148    1
     6   148   149    1
     7   137   136    2
     8   136   135    1
     9   129   128    2
    10   149   150    1
    11   150   151    2
    12   128   127    1
    13   128   134   am
    14   135   134    1
    15   135   138    1
    16   151   152    1
    17   151   153    1
    18   127   126    1
    19   127   130    1
    20   138   139    1
    21   132   131    2
    22    78    79    1
    23   130   131    1
    24   142   141    1
    25   131   133   am
    26   139   140    1
    27    79    82    1
    28    79    80    1
    29   111   110    2
    30    82    83    1
    31   141   140    1
    32   121   120    2
    33   110   112   am
    34   110   109    1
    35   115   114    2
    36   107   105    1
    37   105   106    1
    38   105   102    1
    39    80    81    2
    40    80    90   am
    41   112   113    1
    42    83    84   ar
    43    83    85   ar
    44   109   108    1
    45   117   116    1
    46   108   103   am
    47   120   119    1
    48    84    86   ar
    49    90    91    1
    50     4     3    2
    51     3     2    1
    52   114   113    1
    53   114   118   am
    54   103   102    1
    55   103   104    2
    56   101   102    1
    57   101    92   am
    58    39    38    1
    59    39    40    1
    60   113   116    1
    61    85    87   ar
    62    38    37    1
    63   119   118    1
    64   119   122    1
    65    86    88   ar
    66    34    37    1
    67    34    35    1
    68    34    33    1
    69     1     2    1
    70    36    35    2
    71    91    92    1
    72    91    94    1
    73     2     5    1
    74    92    93    2
    75    40    41    2
    76    87    88   ar
    77    88    89    1
    78    94    95    1
    79     5     6    1
    80   122   123    1
    81   124   123   ar
    82    41    42    1
    83    41    43    1
    84   123   125   ar
    85    95    96   ar
    86    95    97   ar
    87    26    25    2
    88    11     9    1
    89     6     7    1
    90     8     9    2
    91     8     7    1
    92    96    98   ar
    93    23    24    1
    94     9    10    1
    95    97    99   ar
    96    25    24    1
    97    25    27   am
    98    30    29    2
    99    28    27    1
   100    28    29    1
   101    28    31    1
   102    98   100   ar
   103    99   100   ar
   104    31    32    1
   105    65    64    2
   106    66    67    1
   107    66    63    1
   108    69    67   ar
   109    67    68   ar
   110    64    63    1
   111    63    62    1
   112    49    48    1
   113    73    72    2
   114    74    75    1
   115    74    71    1
   116    72    71    1
   117    60    59   ar
   118    77    75   ar
   119    22    20    1
   120    48    45    1
   121    75    76   ar
   122    45    44    1
   123    45    46    1
   124    71    70    1
   125    57    56    2
   126    61    59   ar
   127    59    58    1
   128    20    21    1
   129    20    19    2
   130    50    46   am
   131    50    51    1
   132    46    47    2
   133    56    55    1
   134    19    18    1
   135    54    55    1
   136    54    52   am
   137    51    52    1
   138    58    55    1
   139    52    53    2
   140    18    17    1
   141    17    16    1
   142    16    13    1
   143    13    14    1
   144    13    12    1
   145    14    15    2
