@<TRIPOS>MOLECULE
tmp/5ugnD00.pdb
 77 71 0 0 0
SMALL
GASTEIGER

@<TRIPOS>ATOM
      1  N          3.4660   -3.2350   24.8200 N.3   140  ARG140     -0.1245
      2  CA         2.6590   -3.0860   23.6160 C.3   140  ARG140      0.1563
      3  C          1.1730   -3.0050   23.9650 C.2   140  ARG140      0.2260
      4  O          0.7540   -3.3980   25.0520 O.2   140  ARG140     -0.2867
      5  CB         2.9160   -4.2410   22.6670 C.3   140  ARG140      0.0307
      6  CG         4.3650   -4.3580   22.2820 C.3   140  ARG140      0.0489
      7  CD         4.4880   -5.2130   21.0750 C.3   140  ARG140      0.2205
      8  NE         3.7630   -4.6630   19.9310 N.pl3 140  ARG140     -0.0865
      9  CZ         4.2410   -3.7060   19.1500 C.cat 140  ARG140      0.5346
     10  NH1        5.4180   -3.1750   19.4180 N.pl3 140  ARG140      0.1354
     11  NH2        3.5390   -3.2670   18.1140 N.pl3 140  ARG140      0.1354
     12  N         -1.0310    4.6610   11.6990 N.3   170  GLY170     -0.1210
     13  CA         0.0010    3.7860   12.2580 C.3   170  GLY170      0.1956
     14  C         -0.2620    2.3040   12.0310 C.2   170  GLY170      0.2612
     15  O         -1.0090    1.8950   11.1420 O.2   170  GLY170     -0.2717
     16  N          0.3920    1.4910   12.8700 N.am  171  SER171     -0.1952
     17  CA         0.2180    0.0440   12.8160 C.3   171  SER171      0.1924
     18  C         -1.2330   -0.3850   13.0290 C.2   171  SER171      0.2314
     19  O         -1.6480   -1.4270   12.5090 O.2   171  SER171     -0.2863
     20  CB         1.1090   -0.6240   13.8630 C.3   171  SER171      0.2116
     21  OG         0.6850   -0.2450   15.1640 O.3   171  SER171     -0.2180
     22  N         -2.7990   -0.4520    9.7580 N.3   174  ARG174     -0.1245
     23  CA        -2.2400   -1.5870    9.0280 C.3   174  ARG174      0.1563
     24  C         -2.7520   -2.9300    9.5430 C.2   174  ARG174      0.2260
     25  O         -2.2810   -3.9770    9.0800 O.2   174  ARG174     -0.2867
     26  CB        -0.7060   -1.5480    9.0850 C.3   174  ARG174      0.0307
     27  CG        -0.1440   -0.2530    8.5190 C.3   174  ARG174      0.0489
     28  CD         1.3320   -0.3670    8.1300 C.3   174  ARG174      0.2205
     29  NE         2.1390   -0.9350    9.2090 N.pl3 174  ARG174     -0.0865
     30  CZ         2.7050   -0.2370   10.1850 C.cat 174  ARG174      0.5346
     31  NH1        2.5840    1.0910   10.2380 N.pl3 174  ARG174      0.1354
     32  NH2        3.4040   -0.8810   11.1130 N.pl3 174  ARG174      0.1354
     33  N          2.5930   -0.1750   19.1830 N.3   180  GLY180     -0.1210
     34  CA         3.4460    0.4620   20.1710 C.3   180  GLY180      0.1956
     35  C          2.8920    1.7540   20.7370 C.2   180  GLY180      0.2611
     36  O          3.3360    2.1920   21.8050 O.2   180  GLY180     -0.2717
     37  N          1.9420    2.3780   20.0430 N.am  181  ASP181     -0.1973
     38  CA         1.3610    3.6430   20.4760 C.3   181  ASP181      0.1709
     39  C          0.1140    3.8850   19.6280 C.2   181  ASP181      0.2293
     40  O         -0.2650    3.0570   18.7920 O.2   181  ASP181     -0.2864
     41  CB         2.3820    4.7940   20.3900 C.3   181  ASP181      0.1436
     42  CG         2.7070    5.2220   18.9580 C.2   181  ASP181      0.3671
     43  OD1        2.2170    4.6110   17.9980 O.co2 181  ASP181     -0.2456
     44  OD2        3.4770    6.1930   18.7930 O.co2 181  ASP181     -0.2456
     45  N         -1.6250    6.5830   16.9510 N.3   183  ASP183     -0.1239
     46  CA        -1.3950    7.6900   16.0310 C.3   183  ASP183      0.1674
     47  C         -2.7240    8.1520   15.4690 C.2   183  ASP183      0.2266
     48  O         -3.4360    7.3690   14.8250 O.2   183  ASP183     -0.2867
     49  CB        -0.4630    7.2710   14.8980 C.3   183  ASP183      0.1410
     50  CG         0.8170    6.6990   15.4090 C.2   183  ASP183      0.3668
     51  OD1        1.5690    7.4490   16.0640 O.co2 183  ASP183     -0.2456
     52  OD2        1.0610    5.4980   15.1970 O.co2 183  ASP183     -0.2456
     53  N          0.0660    6.3010    8.0900 N.3   264  THR264     -0.1203
     54  CA        -0.1410    4.8590    8.1270 C.3   264  THR264      0.1994
     55  C          1.1820    4.1030    8.0630 C.2   264  THR264      0.2618
     56  O          1.2890    3.0120    8.6250 O.2   264  THR264     -0.2717
     57  CB        -1.0840    4.4440    6.9920 C.3   264  THR264      0.1784
     58  OG1       -2.3630    5.0370    7.2300 O.3   264  THR264     -0.2211
     59  CG2       -1.2730    2.9460    6.9410 C.3   264  THR264      0.0376
     60  N          2.1990    4.6660    7.4080 N.am  265  GLY265     -0.1942
     61  CA         3.4920    3.9980    7.3120 C.3   265  GLY265      0.2014
     62  C          3.4590    2.6050    6.6940 C.2   265  GLY265      0.2640
     63  O          2.6030    2.3320    5.8500 O.2   265  GLY265     -0.2714
     64  N          4.3410    1.6910    7.1110 N.am  266  SER266     -0.1935
     65  CA         5.3370    1.8700    8.1740 C.3   266  SER266      0.2055
     66  C          6.3930    2.9420    7.8690 C.2   266  SER266      0.2643
     67  O          6.4430    3.4680    6.7660 O.2   266  SER266     -0.2714
     68  CB         6.0460    0.5350    8.4390 C.3   266  SER266      0.2130
     69  OG         6.9280    0.1960    7.3650 O.3   266  SER266     -0.2179
     70  N          7.2430    3.2460    8.8500 N.am  267  ASP267     -0.1971
     71  CA         8.3540    4.1580    8.5950 C.3   267  ASP267      0.1709
     72  C          9.2220    3.6590    7.4500 C.2   267  ASP267      0.2293
     73  O          9.5800    4.4300    6.5570 O.2   267  ASP267     -0.2864
     74  CB         9.1950    4.3540    9.8610 C.3   267  ASP267      0.1436
     75  CG         9.7590    3.0510   10.4210 C.2   267  ASP267      0.3671
     76  OD1        9.3210    1.9380   10.0290 O.co2 267  ASP267     -0.2456
     77  OD2       10.6480    3.1480   11.2890 O.co2 267  ASP267     -0.2456
@<TRIPOS>BOND
     1    63    62    2
     2    73    72    2
     3    62    64   am
     4    62    61    1
     5    67    66    2
     6    59    57    1
     7    57    58    1
     8    57    54    1
     9    64    65    1
    10    61    60    1
    11    69    68    1
    12    60    55   am
    13    72    71    1
    14    66    65    1
    15    66    70   am
    16    55    54    1
    17    55    56    2
    18    53    54    1
    19    28    27    1
    20    28    29    1
    21    65    68    1
    22    27    26    1
    23    71    70    1
    24    71    74    1
    25    23    26    1
    26    23    24    1
    27    23    22    1
    28    25    24    2
    29    29    30    2
    30    74    75    1
    31    76    75   ar
    32    30    31    1
    33    30    32    1
    34    75    77   ar
    35    15    14    2
    36    12    13    1
    37    14    13    1
    38    14    16   am
    39    19    18    2
    40    17    16    1
    41    17    18    1
    42    17    20    1
    43    20    21    1
    44    48    47    2
    45    49    50    1
    46    49    46    1
    47    52    50   ar
    48    50    51   ar
    49    47    46    1
    50    46    45    1
    51    43    42   ar
    52    11     9    1
    53    40    39    2
    54    44    42   ar
    55    42    41    1
    56     9    10    1
    57     9     8    2
    58    33    34    1
    59    39    38    1
    60     8     7    1
    61    37    38    1
    62    37    35   am
    63    34    35    1
    64    41    38    1
    65    35    36    2
    66     7     6    1
    67     6     5    1
    68     5     2    1
    69     2     3    1
    70     2     1    1
    71     3     4    2
