@<TRIPOS>MOLECULE
tmp/5ugsA02.pdb
 101 94 0 0 0
SMALL
GASTEIGER

@<TRIPOS>ATOM
      1  N         30.9270  -31.2110  -75.1890 N.3    15  ILE15      -0.1231
      2  CA        29.8710  -30.3300  -75.6840 C.3    15  ILE15       0.1692
      3  C         30.4100  -28.9270  -76.0270 C.2    15  ILE15       0.2593
      4  O         29.9590  -28.3200  -76.9940 O.2    15  ILE15      -0.2718
      5  CB        28.6610  -30.2750  -74.7460 C.3    15  ILE15       0.0266
      6  CG1       27.4970  -29.5310  -75.3700 C.3    15  ILE15       0.0019
      7  CG2       29.0150  -29.6300  -73.4290 C.3    15  ILE15       0.0020
      8  CD1       26.7660  -30.3460  -76.4240 C.3    15  ILE15       0.0001
      9  N         31.3520  -28.4100  -75.2350 N.am   16  THR16      -0.1939
     10  CA        32.1270  -27.2260  -75.5890 C.3    16  THR16       0.2028
     11  C         33.6010  -27.5460  -75.4560 C.2    16  THR16       0.2642
     12  O         33.9620  -28.6010  -74.9770 O.2    16  THR16      -0.2714
     13  CB        31.7760  -26.0090  -74.6970 C.3    16  THR16       0.1808
     14  OG1       32.3410  -26.1500  -73.3930 O.3    16  THR16      -0.2208
     15  CG2       30.2880  -25.8620  -74.5590 C.3    16  THR16       0.0379
     16  N         34.4460  -26.6000  -75.8620 N.am   17  ASP17      -0.1957
     17  CA        35.8830  -26.7610  -75.6300 C.3    17  ASP17       0.1840
     18  C         36.3450  -26.4150  -74.1820 C.2    17  ASP17       0.2622
     19  O         37.5470  -26.4780  -73.8720 O.2    17  ASP17      -0.2715
     20  CB        36.6890  -26.0000  -76.7010 C.3    17  ASP17       0.1450
     21  CG        36.4830  -24.5110  -76.6840 C.2    17  ASP17       0.3671
     22  OD1       35.9400  -23.9620  -75.6720 O.co2  17  ASP17      -0.2456
     23  OD2       36.8970  -23.9020  -77.7210 O.co2  17  ASP17      -0.2456
     24  N         35.4040  -26.0310  -73.3230 N.am   18  SER18      -0.1950
     25  CA        35.6300  -25.9270  -71.8730 C.3    18  SER18       0.1924
     26  C         35.3670  -27.2350  -71.1120 C.2    18  SER18       0.2314
     27  O         35.8700  -27.4000  -70.0020 O.2    18  SER18      -0.2863
     28  CB        34.7270  -24.8330  -71.2980 C.3    18  SER18       0.2116
     29  OG        35.0760  -23.6050  -71.8400 O.3    18  SER18      -0.2180
     30  N         23.4510  -32.5710  -79.9440 N.3    42  ARG42      -0.1245
     31  CA        23.9790  -31.5750  -80.8860 C.3    42  ARG42       0.1563
     32  C         25.2180  -32.0480  -81.6170 C.2    42  ARG42       0.2260
     33  O         26.3160  -31.5220  -81.4190 O.2    42  ARG42      -0.2867
     34  CB        24.3340  -30.2780  -80.1770 C.3    42  ARG42       0.0307
     35  CG        23.3480  -29.8120  -79.1210 C.3    42  ARG42       0.0489
     36  CD        21.9290  -29.6690  -79.5910 C.3    42  ARG42       0.2205
     37  NE        21.3510  -28.4360  -79.0050 N.pl3  42  ARG42      -0.0865
     38  CZ        21.3960  -27.2230  -79.5740 C.cat  42  ARG42       0.5346
     39  NH1       22.0200  -27.0030  -80.7860 N.pl3  42  ARG42       0.1354
     40  NH2       20.7890  -26.2110  -78.9270 N.pl3  42  ARG42       0.1354
     41  N         27.2420  -29.5100  -83.9460 N.3    45  LEU45      -0.1245
     42  CA        27.9810  -28.5890  -83.0790 C.3    45  LEU45       0.1561
     43  C         29.1890  -29.2790  -82.4420 C.2    45  LEU45       0.2260
     44  O         30.3010  -28.7300  -82.4280 O.2    45  LEU45      -0.2867
     45  CB        27.0480  -27.9850  -82.0300 C.3    45  LEU45       0.0270
     46  CG        27.7240  -27.3400  -80.8320 C.3    45  LEU45       0.0019
     47  CD1       28.8060  -26.3030  -81.2120 C.3    45  LEU45       0.0001
     48  CD2       26.6400  -26.7240  -79.9370 C.3    45  LEU45       0.0001
     49  N         33.3990  -28.6290  -82.7970 N.3    49  ILE49      -0.1245
     50  CA        34.2310  -28.4720  -81.6030 C.3    49  ILE49       0.1561
     51  C         35.3830  -29.4820  -81.6310 C.2    49  ILE49       0.2260
     52  O         36.5300  -29.1240  -81.3780 O.2    49  ILE49      -0.2867
     53  CB        33.4070  -28.6930  -80.3240 C.3    49  ILE49       0.0252
     54  CG1       32.2650  -27.6450  -80.2010 C.3    49  ILE49       0.0019
     55  CG2       34.3190  -28.7300  -79.0700 C.3    49  ILE49       0.0019
     56  CD1       32.6590  -26.3200  -79.6180 C.3    49  ILE49       0.0001
     57  N         35.3600  -24.4750  -64.6140 N.3   194  ARG194     -0.1231
     58  CA        34.4000  -23.6050  -65.2980 C.3   194  ARG194      0.1694
     59  C         34.0050  -24.2020  -66.6590 C.2   194  ARG194      0.2593
     60  O         34.7570  -24.1080  -67.6340 O.2   194  ARG194     -0.2718
     61  CB        34.9930  -22.2210  -65.4610 C.3   194  ARG194      0.0321
     62  CG        34.6860  -21.3440  -64.2630 C.3   194  ARG194      0.0489
     63  CD        35.2450  -19.9570  -64.5510 C.3   194  ARG194      0.2205
     64  NE        34.7700  -18.9830  -63.5830 N.pl3 194  ARG194     -0.0865
     65  CZ        33.5090  -18.6230  -63.4500 C.cat 194  ARG194      0.5346
     66  NH1       33.2680  -17.7400  -62.5160 N.pl3 194  ARG194      0.1354
     67  NH2       32.5080  -19.1160  -64.2250 N.pl3 194  ARG194      0.1354
     68  N         32.8710  -24.8990  -66.6610 N.am  195  THR195     -0.1939
     69  CA        32.3230  -25.5550  -67.8250 C.3   195  THR195      0.2028
     70  C         30.9050  -25.0820  -68.0700 C.2   195  THR195      0.2642
     71  O         30.3050  -24.3790  -67.2300 O.2   195  THR195     -0.2714
     72  CB        32.2430  -27.0760  -67.6330 C.3   195  THR195      0.1808
     73  OG1       31.3480  -27.3760  -66.5650 O.3   195  THR195     -0.2208
     74  CG2       33.5930  -27.6490  -67.3520 C.3   195  THR195      0.0379
     75  N         30.3570  -25.5060  -69.2150 N.am  196  LEU196     -0.1977
     76  CA        28.9640  -25.2300  -69.5240 C.3   196  LEU196      0.1596
     77  C         27.9930  -25.6110  -68.3990 C.2   196  LEU196      0.2287
     78  O         27.1770  -24.8220  -67.9500 O.2   196  LEU196     -0.2864
     79  CB        28.5530  -25.9000  -70.8370 C.3   196  LEU196      0.0297
     80  CG        27.1110  -25.5980  -71.2910 C.3   196  LEU196      0.0022
     81  CD1       26.8750  -24.1150  -71.4900 C.3   196  LEU196      0.0001
     82  CD2       26.8030  -26.3430  -72.5800 C.3   196  LEU196      0.0001
     83  N         28.0010  -23.4750  -65.1620 N.3   199  SER199     -0.1217
     84  CA        27.2280  -22.2300  -65.2380 C.3   199  SER199      0.1889
     85  C         25.6990  -22.4410  -65.2780 C.2   199  SER199      0.2288
     86  O         24.9250  -21.5860  -64.8330 O.2   199  SER199     -0.2866
     87  CB        27.6690  -21.5350  -66.5030 C.3   199  SER199      0.2089
     88  OG        27.1780  -22.2480  -67.6030 O.3   199  SER199     -0.2183
     89  N         22.8270  -20.5860  -67.7170 N.3   205  ALA205     -0.1231
     90  CA        23.9910  -19.9850  -68.3100 C.3   205  ALA205      0.1694
     91  C         23.4620  -18.7260  -68.8750 C.2   205  ALA205      0.2591
     92  O         22.2380  -18.6030  -68.9610 O.2   205  ALA205     -0.2718
     93  CB        24.4960  -20.8480  -69.4210 C.3   205  ALA205      0.0304
     94  N         24.3260  -17.7490  -69.1550 N.am  206  LEU206     -0.1980
     95  CA        23.9260  -16.4310  -69.7530 C.3   206  LEU206      0.1596
     96  C         23.5740  -15.3810  -68.6720 C.2   206  LEU206      0.2287
     97  O         23.4260  -14.1700  -68.9980 O.2   206  LEU206     -0.2864
     98  CB        22.6890  -16.5480  -70.6910 C.3   206  LEU206      0.0297
     99  CG        22.7100  -17.4660  -71.8640 C.3   206  LEU206      0.0022
    100  CD1       21.4160  -17.1120  -72.5720 C.3   206  LEU206      0.0001
    101  CD2       23.8890  -17.1180  -72.7630 C.3   206  LEU206      0.0001
@<TRIPOS>BOND
     1    41    42    1
     2    42    43    1
     3    42    45    1
     4    49    50    1
     5    43    44    2
     6    45    46    1
     7    51    50    1
     8    51    52    2
     9    32    33    2
    10    32    31    1
    11    50    53    1
    12    47    46    1
    13    31    34    1
    14    31    30    1
    15    46    48    1
    16    39    38    1
    17    53    54    1
    18    53    55    1
    19    54    56    1
    20    34    35    1
    21    36    35    1
    22    36    37    1
    23    38    37    2
    24    38    40    1
    25    23    21   ar
    26     4     3    2
    27    20    21    1
    28    20    17    1
    29    21    22   ar
    30     8     6    1
    31     3     2    1
    32     3     9   am
    33    16    17    1
    34    16    11   am
    35     2     1    1
    36     2     5    1
    37    17    18    1
    38    10    11    1
    39    10     9    1
    40    10    13    1
    41    11    12    2
    42     6     5    1
    43     5     7    1
    44    13    15    1
    45    13    14    1
    46    18    19    2
    47    18    24   am
    48    24    25    1
    49   101    99    1
    50    82    80    1
    51   100    99    1
    52    25    28    1
    53    25    26    1
    54    99    98    1
    55    29    28    1
    56    81    80    1
    57    80    79    1
    58    26    27    2
    59    79    76    1
    60    98    95    1
    61    95    94    1
    62    95    96    1
    63    76    75    1
    64    76    77    1
    65    93    90    1
    66    75    70   am
    67    94    91   am
    68    97    96    2
    69    92    91    2
    70    91    90    1
    71    77    78    2
    72    90    89    1
    73    70    69    1
    74    70    71    2
    75    69    72    1
    76    69    68    1
    77    60    59    2
    78    72    74    1
    79    72    73    1
    80    88    87    1
    81    68    59   am
    82    59    58    1
    83    87    84    1
    84    61    58    1
    85    61    62    1
    86    58    57    1
    87    85    84    1
    88    85    86    2
    89    84    83    1
    90    63    62    1
    91    63    64    1
    92    67    65    1
    93    64    65    2
    94    65    66    1
