@<TRIPOS>MOLECULE
tmp/5ugtA01.pdb
 184 177 0 0 0
SMALL
GASTEIGER

@<TRIPOS>ATOM
      1  N        -32.9360   -0.1880  -32.9480 N.3    93  SER93      -0.1202
      2  CA       -31.7120    0.1960  -33.6240 C.3    93  SER93       0.2020
      3  C        -31.7070   -0.3740  -35.0250 C.2    93  SER93       0.2619
      4  O        -30.8220   -1.0970  -35.3980 O.2    93  SER93      -0.2717
      5  CB       -30.5220   -0.2580  -32.8080 C.3    93  SER93       0.2103
      6  OG       -29.3240    0.1850  -33.3590 O.3    93  SER93      -0.2182
      7  N        -32.7210    0.0000  -35.7810 N.am   94  ILE94      -0.1965
      8  CA       -33.0670   -0.5690  -37.0430 C.3    94  ILE94       0.1727
      9  C        -33.2890    0.4750  -38.1210 C.2    94  ILE94       0.2617
     10  O        -33.9170    1.5240  -37.8870 O.2    94  ILE94      -0.2715
     11  CB       -34.3790   -1.3590  -36.8640 C.3    94  ILE94       0.0290
     12  CG1      -34.0650   -2.7030  -36.1260 C.3    94  ILE94       0.0022
     13  CG2      -35.0790   -1.6720  -38.2070 C.3    94  ILE94       0.0023
     14  CD1      -35.3110   -3.4200  -35.6860 C.3    94  ILE94       0.0001
     15  N        -32.7740    0.2080  -39.3080 N.am   95  GLY95      -0.1940
     16  CA       -32.9970    1.0530  -40.4580 C.3    95  GLY95       0.2014
     17  C        -32.7440    0.3320  -41.7550 C.2    95  GLY95       0.2639
     18  O        -32.0460   -0.7010  -41.8060 O.2    95  GLY95      -0.2714
     19  N        -33.3420    0.8490  -42.8140 N.am   96  PHE96      -0.1959
     20  CA       -33.0930    0.3570  -44.1500 C.3    96  PHE96       0.1771
     21  C        -33.5690    1.3860  -45.1790 C.2    96  PHE96       0.2619
     22  O        -34.5480    2.0890  -44.9530 O.2    96  PHE96      -0.2715
     23  CB       -33.8110   -0.9680  -44.3790 C.3    96  PHE96       0.0574
     24  CG       -33.6600   -1.4720  -45.7810 C.ar   96  PHE96      -0.0200
     25  CD1      -32.4420   -2.0050  -46.2080 C.ar   96  PHE96      -0.0042
     26  CD2      -34.6950   -1.3320  -46.6970 C.ar   96  PHE96      -0.0042
     27  CE1      -32.3030   -2.4660  -47.5030 C.ar   96  PHE96      -0.0003
     28  CE2      -34.5520   -1.7540  -47.9980 C.ar   96  PHE96      -0.0003
     29  CZ       -33.3570   -2.3290  -48.4070 C.ar   96  PHE96      -0.0000
     30  N        -32.8730    1.4470  -46.3060 N.am   97  MET97      -0.1977
     31  CA       -33.3580    2.1990  -47.4360 C.3    97  MET97       0.1605
     32  C        -32.7320    1.5830  -48.6670 C.2    97  MET97       0.2287
     33  O        -31.5200    1.3540  -48.6960 O.2    97  MET97      -0.2864
     34  CB       -32.9720    3.6640  -47.3170 C.3    97  MET97       0.0413
     35  CG       -33.5730    4.5670  -48.4080 C.3    97  MET97       0.0598
     36  SD       -35.3660    4.7940  -48.4800 S.3    97  MET97      -0.1393
     37  CE       -35.6770    5.4290  -46.8130 C.3    97  MET97       0.0692
     38  N        -30.7180    7.0810  -52.0920 N.3   102  MET102     -0.1245
     39  CA       -29.5200    7.2520  -51.2980 C.3   102  MET102      0.1570
     40  C        -28.2650    7.3750  -52.1250 C.2   102  MET102      0.2261
     41  O        -28.1590    6.7520  -53.1930 O.2   102  MET102     -0.2867
     42  CB       -29.3380    6.0400  -50.4020 C.3   102  MET102      0.0387
     43  CG       -30.1660    6.1340  -49.1340 C.3   102  MET102      0.0595
     44  SD       -29.3250    5.3380  -47.7870 S.3   102  MET102     -0.1393
     45  CE       -28.2500    6.6810  -47.3480 C.3   102  MET102      0.0692
     46  N        -30.7370   10.1570  -36.8170 N.3   148  PHE148     -0.1241
     47  CA       -29.6440   10.9870  -37.3530 C.3   148  PHE148      0.1605
     48  C        -30.2030   12.3460  -37.7430 C.2   148  PHE148      0.2264
     49  O        -31.0900   12.4030  -38.5770 O.2   148  PHE148     -0.2867
     50  CB       -29.0060   10.2850  -38.5700 C.3   148  PHE148      0.0534
     51  CG       -27.7350   10.9310  -39.0380 C.ar  148  PHE148     -0.0203
     52  CD1      -26.5960   10.9830  -38.1940 C.ar  148  PHE148     -0.0042
     53  CD2      -27.6570   11.5220  -40.2950 C.ar  148  PHE148     -0.0042
     54  CE1      -25.4400   11.5730  -38.6060 C.ar  148  PHE148     -0.0003
     55  CE2      -26.5130   12.1590  -40.6910 C.ar  148  PHE148     -0.0003
     56  CZ       -25.4020   12.1500  -39.8680 C.ar  148  PHE148     -0.0000
     57  N        -28.9930   17.4480  -46.4890 N.3   154  MET154     -0.1231
     58  CA       -27.5550   17.2070  -46.6390 C.3   154  MET154      0.1687
     59  C        -27.2980   16.3720  -47.8740 C.2   154  MET154      0.2434
     60  O        -28.2120   15.7210  -48.3630 O.2   154  MET154     -0.2733
     61  CB       -27.0240   16.5270  -45.3830 C.3   154  MET154      0.0400
     62  CG       -27.4330   15.0810  -45.1740 C.3   154  MET154      0.0596
     63  SD       -27.1040   14.5510  -43.4590 S.3   154  MET154     -0.1393
     64  CE       -27.8490   15.7180  -42.3630 C.3   154  MET154      0.0692
     65  N        -26.0690   16.3670  -48.4030 N.am  155  PRO155     -0.2718
     66  CA       -25.9250   15.4840  -49.5550 C.3   155  PRO155      0.1535
     67  C        -25.9840   14.0100  -49.1390 C.2   155  PRO155      0.2598
     68  O        -25.7480   13.6990  -47.9730 O.2   155  PRO155     -0.2715
     69  CB       -24.5900   15.9040  -50.1310 C.3   155  PRO155      0.0310
     70  CG       -23.8270   16.3290  -48.9300 C.3   155  PRO155      0.0237
     71  CD       -24.7900   16.9260  -47.9720 C.3   155  PRO155      0.0939
     72  N        -26.3520   13.1460  -50.0850 N.am  156  ALA156     -0.1964
     73  CA       -26.3210   11.6310  -49.9670 C.3   156  ALA156      0.1728
     74  C        -27.4120   10.9900  -49.0900 C.2   156  ALA156      0.2616
     75  O        -28.0010    9.9890  -49.4950 O.2   156  ALA156     -0.2715
     76  CB       -24.9920   11.1450  -49.4980 C.3   156  ALA156      0.0334
     77  N        -27.6580   11.5170  -47.8970 N.am  157  TYR157     -0.1974
     78  CA       -28.5600   10.8620  -46.9500 C.3   157  TYR157      0.1639
     79  C        -29.9730   10.8280  -47.5430 C.2   157  TYR157      0.2290
     80  O        -30.7640    9.9440  -47.2150 O.2   157  TYR157     -0.2864
     81  CB       -28.5390   11.5380  -45.5610 C.3   157  TYR157      0.0560
     82  CG       -28.9780   10.6510  -44.4140 C.ar  157  TYR157     -0.0198
     83  CD1      -28.3690    9.4310  -44.1440 C.ar  157  TYR157     -0.0009
     84  CD2      -30.0090   11.0840  -43.5500 C.ar  157  TYR157     -0.0009
     85  CE1      -28.7790    8.6520  -43.0720 C.ar  157  TYR157      0.0417
     86  CE2      -30.4240   10.3000  -42.4590 C.ar  157  TYR157      0.0417
     87  CZ       -29.8130    9.0900  -42.2260 C.ar  157  TYR157      0.1957
     88  OH       -30.2390    8.3600  -41.1750 O.3   157  TYR157     -0.2866
     89  N        -33.3150    8.6080  -46.7390 N.3   160  MET160     -0.1245
     90  CA       -33.1970    8.2690  -45.3300 C.3   160  MET160      0.1570
     91  C        -33.4370    9.4660  -44.4090 C.2   160  MET160      0.2261
     92  O        -34.0110    9.2880  -43.3170 O.2   160  MET160     -0.2867
     93  CB       -31.8520    7.6960  -44.9620 C.3   160  MET160      0.0387
     94  CG       -31.8630    6.9650  -43.6140 C.3   160  MET160      0.0595
     95  SD       -33.0460    5.5570  -43.6450 S.3   160  MET160     -0.1393
     96  CE       -32.6060    4.7960  -42.0640 C.3   160  MET160      0.0692
     97  N        -35.9790    9.6120  -41.1850 N.3   164  LYS164     -0.1245
     98  CA       -35.6450   10.0730  -39.8450 C.3   164  LYS164      0.1561
     99  C        -36.5800   11.2390  -39.4240 C.2   164  LYS164      0.2260
    100  O        -36.9720   11.3190  -38.2500 O.2   164  LYS164     -0.2867
    101  CB       -34.1900   10.4900  -39.7150 C.3   164  LYS164      0.0271
    102  CG       -33.1790    9.4170  -39.8460 C.3   164  LYS164      0.0035
    103  CD       -33.4800    8.2340  -38.9310 C.3   164  LYS164      0.0206
    104  CE       -32.2340    7.3950  -38.6900 C.3   164  LYS164      0.1093
    105  NZ       -32.6720    6.1230  -38.1050 N.3   164  LYS164     -0.1314
    106  N        -23.9420   11.0740  -33.6830 N.3   191  GLY191     -0.1210
    107  CA       -22.9700   11.4000  -34.7560 C.3   191  GLY191      0.1940
    108  C        -22.6050   10.1460  -35.5480 C.2   191  GLY191      0.2454
    109  O        -23.0210    9.0450  -35.1780 O.2   191  GLY191     -0.2732
    110  N        -21.8460   10.2920  -36.6340 N.am  192  PRO192     -0.2717
    111  CA       -21.5530    9.1380  -37.4640 C.3   192  PRO192      0.1535
    112  C        -20.6500    8.0730  -36.8020 C.2   192  PRO192      0.2598
    113  O        -19.7870    8.3880  -35.9830 O.2   192  PRO192     -0.2715
    114  CB       -20.9350    9.7660  -38.7100 C.3   192  PRO192      0.0310
    115  CG       -20.3700   11.0420  -38.2600 C.3   192  PRO192      0.0237
    116  CD       -21.3500   11.5350  -37.2470 C.3   192  PRO192      0.0939
    117  N        -20.9320    6.8170  -37.1310 N.am  193  ILE193     -0.1978
    118  CA       -20.1830    5.6600  -36.6390 C.3   193  ILE193      0.1596
    119  C        -19.9160    4.6610  -37.7960 C.2   193  ILE193      0.2287
    120  O        -20.8690    4.3600  -38.5230 O.2   193  ILE193     -0.2864
    121  CB       -20.9720    4.9530  -35.5300 C.3   193  ILE193      0.0276
    122  CG1      -21.3750    5.9200  -34.4000 C.3   193  ILE193      0.0022
    123  CG2      -20.1890    3.7480  -34.9620 C.3   193  ILE193      0.0022
    124  CD1      -20.2120    6.3620  -33.5330 C.3   193  ILE193      0.0001
    125  N        -20.1930    1.6490  -39.2820 N.3   195  THR195     -0.1218
    126  CA       -21.0380    0.4980  -39.1620 C.3   195  THR195      0.1862
    127  C        -21.3160   -0.0130  -40.5620 C.2   195  THR195      0.2287
    128  O        -21.0810    0.6900  -41.5450 O.2   195  THR195     -0.2866
    129  CB       -22.4230    0.8030  -38.5570 C.3   195  THR195      0.1770
    130  OG1      -23.1460    1.6050  -39.4790 O.3   195  THR195     -0.2211
    131  CG2      -22.3240    1.4720  -37.2330 C.3   195  THR195      0.0375
    132  N        -24.1350   -0.3020  -42.0850 N.3   197  ALA197     -0.1231
    133  CA       -25.1000    0.5020  -42.8320 C.3   197  ALA197      0.1694
    134  C        -24.4310    1.7590  -43.3610 C.2   197  ALA197      0.2591
    135  O        -24.7260    2.1630  -44.4940 O.2   197  ALA197     -0.2718
    136  CB       -26.3040    0.8440  -42.0010 C.3   197  ALA197      0.0304
    137  N        -23.4780    2.3160  -42.6190 N.am  198  MET198     -0.1979
    138  CA       -22.7550    3.4610  -43.1540 C.3   198  MET198      0.1605
    139  C        -22.0580    3.1410  -44.4810 C.2   198  MET198      0.2287
    140  O        -22.1220    3.8770  -45.4570 O.2   198  MET198     -0.2864
    141  CB       -21.7180    4.0140  -42.1540 C.3   198  MET198      0.0413
    142  CG       -21.1640    5.3510  -42.6140 C.3   198  MET198      0.0598
    143  SD       -19.5240    5.7890  -42.0580 S.3   198  MET198     -0.1393
    144  CE       -19.9960    6.3500  -40.4500 C.3   198  MET198      0.0692
    145  N        -24.4660    0.6620  -47.4090 N.3   201  ILE201     -0.1231
    146  CA       -25.6570    1.3860  -47.9160 C.3   201  ILE201      0.1692
    147  C        -25.3000    2.8060  -48.2900 C.2   201  ILE201      0.2591
    148  O        -25.9820    3.3590  -49.0970 O.2   201  ILE201     -0.2718
    149  CB       -26.9940    1.3390  -47.0870 C.3   201  ILE201      0.0266
    150  CG1      -27.1450    0.0970  -46.1530 C.3   201  ILE201      0.0019
    151  CG2      -28.2060    1.4260  -48.0680 C.3   201  ILE201      0.0020
    152  CD1      -28.5760   -0.5120  -46.0180 C.3   201  ILE201      0.0001
    153  N        -24.2820    3.4500  -47.6810 N.am  202  VAL202     -0.1980
    154  CA       -24.0100    4.8760  -47.9620 C.3   202  VAL202      0.1595
    155  C        -22.6740    5.0190  -48.7270 C.2   202  VAL202      0.2287
    156  O        -22.7350    5.2670  -49.9400 O.2   202  VAL202     -0.2864
    157  CB       -24.1750    5.7750  -46.6960 C.3   202  VAL202      0.0276
    158  CG1      -24.4900    7.2180  -47.0380 C.3   202  VAL202      0.0022
    159  CG2      -25.2760    5.2680  -45.7830 C.3   202  VAL202      0.0022
    160  N        -18.7390   11.5210  -48.7060 N.3   214  ILE214     -0.1245
    161  CA       -19.1270   11.2220  -47.3160 C.3   214  ILE214      0.1561
    162  C        -18.0670   11.9500  -46.4820 C.2   214  ILE214      0.2260
    163  O        -18.4110   12.9440  -45.9050 O.2   214  ILE214     -0.2867
    164  CB       -19.3010    9.6690  -47.0330 C.3   214  ILE214      0.0252
    165  CG1      -20.6810    9.1570  -47.5350 C.3   214  ILE214      0.0019
    166  CG2      -19.0620    9.2780  -45.5650 C.3   214  ILE214      0.0019
    167  CD1      -21.0990    9.7640  -48.8810 C.3   214  ILE214      0.0001
    168  N        -18.3760   15.7730  -45.3520 N.3   217  LEU217     -0.1231
    169  CA       -19.5730   15.9200  -44.5500 C.3   217  LEU217      0.1693
    170  C        -19.4060   15.3660  -43.1330 C.2   217  LEU217      0.2591
    171  O        -19.8770   15.9950  -42.1940 O.2   217  LEU217     -0.2718
    172  CB       -20.7980   15.3230  -45.2470 C.3   217  LEU217      0.0284
    173  CG       -22.1140   15.3440  -44.4060 C.3   217  LEU217      0.0019
    174  CD1      -22.5560   16.7540  -43.9840 C.3   217  LEU217      0.0001
    175  CD2      -23.2630   14.6150  -45.0540 C.3   217  LEU217      0.0001
    176  N        -18.6840   14.2770  -42.9640 N.am  218  GLU218     -0.1979
    177  CA       -18.4800   13.7580  -41.6450 C.3   218  GLU218      0.1602
    178  C        -17.5030   14.5150  -40.8300 C.2   218  GLU218      0.2287
    179  O        -17.4770   14.3090  -39.5930 O.2   218  GLU218     -0.2864
    180  CB       -17.9770   12.3380  -41.6550 C.3   218  GLU218      0.0415
    181  CG       -18.5800   11.3820  -42.7000 C.3   218  GLU218      0.1163
    182  CD       -20.0520   11.2660  -42.5770 C.2   218  GLU218      0.3649
    183  OE1      -20.4840   10.0960  -42.4830 O.co2 218  GLU218     -0.2457
    184  OE2      -20.7550   12.3130  -42.5890 O.co2 218  GLU218     -0.2457
@<TRIPOS>BOND
     1    41    40    2
     2    40    39    1
     3    38    39    1
     4    39    42    1
     5    42    43    1
     6    69    66    1
     7    69    70    1
     8    72    73    1
     9    72    67   am
    10    73    76    1
    11    73    74    1
    12   156   155    2
    13    66    67    1
    14    66    65    1
    15    75    74    2
    16    67    68    2
    17    43    44    1
    18   148   147    2
    19    74    77   am
    20    70    71    1
    21   167   165    1
    22   155   154    1
    23   160   161    1
    24    33    32    2
    25    32    31    1
    26    36    35    1
    27    36    37    1
    28    35    34    1
    29    29    28   ar
    30    29    27   ar
    31    65    71    1
    32    65    59   am
    33    60    59    2
    34   147   146    1
    35   147   153   am
    36   151   149    1
    37    28    26   ar
    38   154   153    1
    39   154   157    1
    40   146   145    1
    41   146   149    1
    42    77    78    1
    43    59    58    1
    44    44    45    1
    45    79    80    2
    46    79    78    1
    47   165   164    1
    48    27    25   ar
    49    31    34    1
    50    31    30    1
    51   161   164    1
    52   161   162    1
    53   149   150    1
    54   158   157    1
    55   164   166    1
    56    78    81    1
    57    89    90    1
    58    26    24   ar
    59   157   159    1
    60    58    57    1
    61    58    61    1
    62   162   163    2
    63    30    21   am
    64    25    24   ar
    65   150   152    1
    66    24    23    1
    67    81    82    1
    68   140   139    2
    69    61    62    1
    70   168   169    1
    71    90    93    1
    72    90    91    1
    73   172   169    1
    74   172   173    1
    75    21    22    2
    76    21    20    1
    77    62    63    1
    78   175   173    1
    79    93    94    1
    80   169   170    1
    81   135   134    2
    82   139   138    1
    83    82    83   ar
    84    82    84   ar
    85    91    92    2
    86   173   174    1
    87    23    20    1
    88    20    19    1
    89    83    85   ar
    90    95    94    1
    91    95    96    1
    92    84    86   ar
    93    63    64    1
    94   134   133    1
    95   134   137   am
    96   138   137    1
    97   138   141    1
    98   170   176   am
    99   170   171    2
   100    85    87   ar
   101   176   177    1
   102   133   132    1
   103   133   136    1
   104    19    17   am
   105   181   182    1
   106   181   180    1
   107   142   141    1
   108   142   143    1
   109   184   182   ar
   110   182   183   ar
   111    86    87   ar
   112    87    88    1
   113   143   144    1
   114    18    17    2
   115    17    16    1
   116   180   177    1
   117   177   178    1
   118   128   127    2
   119    97    98    1
   120   178   179    2
   121    55    53   ar
   122    55    56   ar
   123   127   126    1
   124    16    15    1
   125    53    51   ar
   126    56    54   ar
   127   102   101    1
   128   102   103    1
   129    98   101    1
   130    98    99    1
   131   130   129    1
   132    99   100    2
   133    15     9   am
   134   125   126    1
   135   126   129    1
   136    51    50    1
   137    51    52   ar
   138   103   104    1
   139   114   115    1
   140   114   111    1
   141   104   105    1
   142    54    52   ar
   143    49    48    2
   144    50    47    1
   145   129   131    1
   146   120   119    2
   147   115   116    1
   148    13    11    1
   149     9    10    2
   150     9     8    1
   151   119   118    1
   152    48    47    1
   153   111   112    1
   154   111   110    1
   155    47    46    1
   156   116   110    1
   157   117   112   am
   158   117   118    1
   159     8    11    1
   160     8     7    1
   161    11    12    1
   162   112   113    2
   163   118   121    1
   164   110   108   am
   165    12    14    1
   166     7     3   am
   167   108   109    2
   168   108   107    1
   169   121   123    1
   170   121   122    1
   171     4     3    2
   172     3     2    1
   173   107   106    1
   174   122   124    1
   175     2     1    1
   176     2     5    1
   177     6     5    1
