@<TRIPOS>MOLECULE
tmp/5ugvA00.pdb
 154 149 0 0 0
SMALL
GASTEIGER

@<TRIPOS>ATOM
      1  N         61.2290   60.0850   -2.3660 N.3     7  LEU7       -0.1231
      2  CA        62.3400   59.2100   -2.7020 C.3     7  LEU7        0.1693
      3  C         62.0020   57.7950   -2.2480 C.2     7  LEU7        0.2592
      4  O         61.5750   57.5670   -1.1080 O.2     7  LEU7       -0.2718
      5  CB        63.5840   59.6470   -1.9780 C.3     7  LEU7        0.0284
      6  CG        64.5080   60.6530   -2.5790 C.3     7  LEU7        0.0019
      7  CD1       63.6680   61.7400   -3.1940 C.3     7  LEU7        0.0001
      8  CD2       65.4120   61.3240   -1.5510 C.3     7  LEU7        0.0001
      9  N         62.2690   56.8400   -3.1170 N.am    8  GLY8       -0.1957
     10  CA        61.9050   55.4630   -2.8840 C.3     8  GLY8        0.1869
     11  C         60.5000   55.2050   -3.3880 C.2     8  GLY8        0.2309
     12  O         59.8090   54.4090   -2.8200 O.2     8  GLY8       -0.2863
     13  N         58.9390   53.5880   -5.7340 N.3    10  LYS10      -0.1231
     14  CA        58.4470   52.2510   -6.0970 C.3    10  LYS10       0.1693
     15  C         58.4740   51.2410   -4.9390 C.2    10  LYS10       0.2593
     16  O         57.9240   50.1650   -5.0690 O.2    10  LYS10      -0.2718
     17  CB        59.2390   51.6770   -7.2620 C.3    10  LYS10       0.0285
     18  CG        59.0990   52.4880   -8.5450 C.3    10  LYS10       0.0035
     19  CD        59.9100   51.8350   -9.6660 C.3    10  LYS10       0.0206
     20  CE        59.7680   52.5200  -11.0130 C.3    10  LYS10       0.1093
     21  NZ        60.8830   52.2040  -11.9590 N.3    10  LYS10      -0.1314
     22  N         59.0800   51.5870   -3.8090 N.am   11  GLY11      -0.1942
     23  CA        59.0940   50.6790   -2.6770 C.3    11  GLY11       0.2014
     24  C         57.7300   50.5590   -2.0310 C.2    11  GLY11       0.2639
     25  O         56.8120   51.2980   -2.3410 O.2    11  GLY11      -0.2714
     26  N         57.6220   49.6620   -1.0660 N.am   12  LYS12      -0.1963
     27  CA        56.3620   49.4340   -0.3550 C.3    12  LYS12       0.1728
     28  C         55.8730   50.7260    0.3110 C.2    12  LYS12       0.2616
     29  O         54.7620   51.1660    0.0780 O.2    12  LYS12      -0.2715
     30  CB        56.4930   48.2950    0.7100 C.3    12  LYS12       0.0311
     31  CG        55.3160   48.0660    1.6420 C.3    12  LYS12       0.0038
     32  CD        54.2220   47.3070    0.9270 C.3    12  LYS12       0.0206
     33  CE        53.2360   46.7790    1.9550 C.3    12  LYS12       0.1093
     34  NZ        52.3220   47.8120    2.3980 N.3    12  LYS12      -0.1314
     35  N         56.7080   51.3130    1.1380 N.am   13  VAL13      -0.1963
     36  CA        56.3250   52.5200    1.8350 C.3    13  VAL13       0.1727
     37  C         56.2820   53.7560    0.9060 C.2    13  VAL13       0.2616
     38  O         55.3230   54.5270    0.9750 O.2    13  VAL13      -0.2715
     39  CB        57.2600   52.8220    2.9860 C.3    13  VAL13       0.0290
     40  CG1       56.8410   54.1200    3.6890 C.3    13  VAL13       0.0023
     41  CG2       57.2590   51.6470    3.9520 C.3    13  VAL13       0.0023
     42  N         57.2910   53.9240    0.0460 N.am   14  GLY14      -0.1955
     43  CA        57.2680   55.0060   -0.9400 C.3    14  GLY14       0.1869
     44  C         56.0230   55.0740   -1.8210 C.2    14  GLY14       0.2309
     45  O         55.4060   56.1240   -1.9380 O.2    14  GLY14      -0.2863
     46  N         60.7520   59.8010   -7.2370 N.3    33  LEU33      -0.1231
     47  CA        61.9870   59.1670   -7.6690 C.3    33  LEU33       0.1693
     48  C         62.1430   57.7960   -7.0820 C.2    33  LEU33       0.2592
     49  O         61.8590   57.5880   -5.9020 O.2    33  LEU33      -0.2718
     50  CB        63.1460   59.9840   -7.1770 C.3    33  LEU33       0.0284
     51  CG        63.3720   61.3150   -7.8480 C.3    33  LEU33       0.0019
     52  CD1       62.1970   62.2400   -7.6370 C.3    33  LEU33       0.0001
     53  CD2       64.6110   61.9630   -7.2760 C.3    33  LEU33       0.0001
     54  N         62.7040   56.8860   -7.8630 N.am   34  ASP34      -0.1960
     55  CA        63.2480   55.6310   -7.3240 C.3    34  ASP34       0.1840
     56  C         64.7440   55.5280   -7.6410 C.2    34  ASP34       0.2622
     57  O         65.3610   56.5260   -8.0090 O.2    34  ASP34      -0.2715
     58  CB        62.4600   54.4060   -7.8040 C.3    34  ASP34       0.1450
     59  CG        62.5470   53.1810   -6.7740 C.2    34  ASP34       0.3671
     60  OD1       61.9360   53.2240   -5.6730 O.co2  34  ASP34      -0.2456
     61  OD2       63.2650   52.1750   -7.0870 O.co2  34  ASP34      -0.2456
     62  N         65.3210   54.3350   -7.4740 N.am   35  ALA35      -0.1963
     63  CA        66.7450   54.0910   -7.6880 C.3    35  ALA35       0.1728
     64  C         67.1200   54.3810   -9.1100 C.2    35  ALA35       0.2617
     65  O         66.4320   53.9550  -10.0520 O.2    35  ALA35      -0.2715
     66  CB        67.1120   52.6440   -7.3270 C.3    35  ALA35       0.0334
     67  N         68.2080   55.1300   -9.2600 N.am   36  GLY36      -0.1940
     68  CA        68.6980   55.5450  -10.5910 C.3    36  GLY36       0.2014
     69  C         68.1340   56.8520  -11.1370 C.2    36  GLY36       0.2638
     70  O         68.5320   57.2900  -12.2240 O.2    36  GLY36      -0.2714
     71  N         67.2220   57.4910  -10.4060 N.am   37  ASP37      -0.1971
     72  CA        66.7320   58.7830  -10.8590 C.3    37  ASP37       0.1709
     73  C         67.6550   59.8400  -10.2930 C.2    37  ASP37       0.2293
     74  O         68.0650   59.7750   -9.1460 O.2    37  ASP37      -0.2864
     75  CB        65.2800   59.0330  -10.4690 C.3    37  ASP37       0.1436
     76  CG        64.2720   58.1250  -11.2390 C.2    37  ASP37       0.3671
     77  OD1       64.4820   57.9170  -12.4480 O.co2  37  ASP37      -0.2456
     78  OD2       63.2790   57.6160  -10.6300 O.co2  37  ASP37      -0.2456
     79  N         68.7670   63.1870   -8.5030 N.3    39  LEU39      -0.1245
     80  CA        68.2010   64.0600   -7.4720 C.3    39  LEU39       0.1561
     81  C         67.8200   65.4450   -7.9590 C.2    39  LEU39       0.2260
     82  O         66.9990   66.1080   -7.3340 O.2    39  LEU39      -0.2867
     83  CB        69.1350   64.1610   -6.2460 C.3    39  LEU39       0.0270
     84  CG        69.3900   62.8290   -5.5040 C.3    39  LEU39       0.0019
     85  CD1       70.5400   63.0740   -4.5130 C.3    39  LEU39       0.0001
     86  CD2       68.1480   62.2490   -4.8440 C.3    39  LEU39       0.0001
     87  N         62.1100   57.0960    2.2190 N.3    53  PHE53      -0.1227
     88  CA        62.1520   55.7260    2.7830 C.3    53  PHE53       0.1736
     89  C         62.8770   54.8970    1.7000 C.2    53  PHE53       0.2596
     90  O         62.2330   54.4140    0.6960 O.2    53  PHE53      -0.2718
     91  CB        60.7350   55.1990    2.9470 C.3    53  PHE53       0.0547
     92  CG        60.0110   55.6920    4.1330 C.ar   53  PHE53      -0.0202
     93  CD1       59.2630   56.8330    4.0700 C.ar   53  PHE53      -0.0042
     94  CD2       59.9730   54.9240    5.2770 C.ar   53  PHE53      -0.0042
     95  CE1       58.5210   57.2560    5.1610 C.ar   53  PHE53      -0.0003
     96  CE2       59.2130   55.3200    6.3620 C.ar   53  PHE53      -0.0003
     97  CZ        58.5160   56.5070    6.3170 C.ar   53  PHE53      -0.0000
     98  N         64.1990   54.8350    1.8350 N.am   54  THR54      -0.1939
     99  CA        65.0310   54.3210    0.7910 C.3    54  THR54       0.2028
    100  C         65.7540   53.1070    1.3660 C.2    54  THR54       0.2642
    101  O         65.1710   52.0290    1.4730 O.2    54  THR54      -0.2714
    102  CB        65.9610   55.4060    0.1570 C.3    54  THR54       0.1808
    103  OG1       66.6740   56.1300    1.1530 O.3    54  THR54      -0.2208
    104  CG2       65.1930   56.3650   -0.6980 C.3    54  THR54       0.0379
    105  N         67.0130   53.2670    1.7370 N.am   55  HIS55      -0.1959
    106  CA        67.8340   52.1430    2.1830 C.3    55  HIS55       0.1772
    107  C         69.0350   52.7870    2.8930 C.2    55  HIS55       0.2462
    108  O         69.5090   53.8510    2.4490 O.2    55  HIS55      -0.2730
    109  CB        68.2480   51.2790    0.9770 C.3    55  HIS55       0.0785
    110  CG        69.0180   50.0370    1.3380 C.ar   55  HIS55       0.0821
    111  ND1       68.4210   48.8980    1.8380 N.ar   55  HIS55      -0.2267
    112  CD2       70.3420   49.7520    1.2430 C.ar   55  HIS55       0.1154
    113  CE1       69.3430   47.9710    2.0430 C.ar   55  HIS55       0.1986
    114  NE2       70.5170   48.4670    1.6930 N.ar   55  HIS55      -0.2212
    115  N         69.4800   52.2170    4.0190 N.am   56  PRO56      -0.2727
    116  CA        70.5860   52.8230    4.8010 C.3    56  PRO56       0.1402
    117  C         71.8790   53.1360    3.9740 C.2    56  PRO56       0.2269
    118  O         72.6030   54.0790    4.2830 O.2    56  PRO56      -0.2865
    119  CB        70.9020   51.7550    5.8550 C.3    56  PRO56       0.0296
    120  CG        69.6720   50.9110    5.9410 C.3    56  PRO56       0.0237
    121  CD        69.0170   50.9490    4.5970 C.3    56  PRO56       0.0939
    122  N         71.9560   54.4270    0.9310 N.3    58  VAL58      -0.1245
    123  CA        71.8010   55.5910    0.0200 C.3    58  VAL58       0.1561
    124  C         71.3140   56.8610    0.6980 C.2    58  VAL58       0.2260
    125  O         71.3950   57.9470    0.1310 O.2    58  VAL58      -0.2867
    126  CB        70.8230   55.3030   -1.1540 C.3    58  VAL58       0.0252
    127  CG1       71.3040   54.1480   -2.0260 C.3    58  VAL58       0.0019
    128  CG2       69.4210   55.0270   -0.6460 C.3    58  VAL58       0.0019
    129  N         71.6510   61.0920   -0.1970 N.3    62  ASN62      -0.1240
    130  CA        70.4460   61.8600   -0.4550 C.3    62  ASN62       0.1653
    131  C         70.3440   63.0300    0.4950 C.2    62  ASN62       0.2266
    132  O         70.0310   64.1300    0.0630 O.2    62  ASN62      -0.2867
    133  CB        69.2070   61.0140   -0.2740 C.3    62  ASN62       0.1155
    134  CG        69.0900   59.9070   -1.3170 C.2    62  ASN62       0.2627
    135  OD1       69.7630   59.9210   -2.3340 O.2    62  ASN62      -0.2716
    136  ND2       68.2170   58.8990   -1.0170 N.am   62  ASN62      -0.0877
    137  N         62.3770   58.1720    7.1230 N.3    76  GLY76      -0.1210
    138  CA        62.0000   56.9820    7.8410 C.3    76  GLY76       0.1956
    139  C         62.9830   55.8520    7.6600 C.2    76  GLY76       0.2613
    140  O         63.0320   54.9420    8.4430 O.2    76  GLY76      -0.2717
    141  N         63.7830   55.9060    6.6230 N.am   77  THR77      -0.1938
    142  CA        64.9030   54.9530    6.4490 C.3    77  THR77       0.2028
    143  C         65.6810   54.7290    7.7930 C.2    77  THR77       0.2642
    144  O         65.9280   55.6710    8.5480 O.2    77  THR77      -0.2714
    145  CB        65.8610   55.4510    5.3330 C.3    77  THR77       0.1808
    146  OG1       65.1020   55.8730    4.1710 O.3    77  THR77      -0.2208
    147  CG2       66.8880   54.3890    4.9540 C.3    77  THR77       0.0379
    148  N         65.9720   53.4690    8.0820 N.am   78  THR78      -0.1950
    149  CA        66.6330   53.0790    9.3150 C.3    78  THR78       0.1897
    150  C         68.1650   52.9230    9.1070 C.2    78  THR78       0.2313
    151  O         68.7540   53.4810    8.1110 O.2    78  THR78      -0.2863
    152  CB        65.9910   51.8020    9.8900 C.3    78  THR78       0.1794
    153  OG1       65.8650   50.8200    8.8500 O.3    78  THR78      -0.2208
    154  CG2       64.6230   52.1480   10.5280 C.3    78  THR78       0.0378
@<TRIPOS>BOND
     1    77    76   ar
     2    70    69    2
     3    21    20    1
     4    76    78   ar
     5    76    75    1
     6    69    68    1
     7    69    71   am
     8    20    19    1
     9    72    75    1
    10    72    71    1
    11    72    73    1
    12    68    67    1
    13    73    74    2
    14    65    64    2
    15    19    18    1
    16    67    64   am
    17    64    63    1
    18    18    17    1
    19    79    80    1
    20    57    56    2
    21    81    80    1
    22    81    82    2
    23    54    55    1
    24    54    48   am
    25    51    52    1
    26    51    53    1
    27    51    50    1
    28    58    55    1
    29    58    59    1
    30    63    62    1
    31    63    66    1
    32    47    46    1
    33    47    50    1
    34    47    48    1
    35    56    62   am
    36    56    55    1
    37    80    83    1
    38    17    14    1
    39    61    59   ar
    40    48    49    2
    41    59    60   ar
    42    83    84    1
    43    14    13    1
    44    14    15    1
    45    84    86    1
    46    84    85    1
    47    16    15    2
    48    15    22   am
    49    22    23    1
    50    11    10    1
    51    11    12    2
    52     7     6    1
    53     9    10    1
    54     9     3   am
    55     2     1    1
    56     2     3    1
    57     2     5    1
    58    23    24    1
    59     6     5    1
    60     6     8    1
    61    25    24    2
    62   135   134    2
    63     3     4    2
    64    24    26   am
    65   127   126    1
    66    45    44    2
    67    44    43    1
    68   134   136   am
    69   134   133    1
    70   126   128    1
    71   126   123    1
    72    26    27    1
    73    43    42    1
    74   104   102    1
    75   130   133    1
    76   130   129    1
    77   130   131    1
    78    27    28    1
    79    27    30    1
    80   123   124    1
    81   123   122    1
    82    42    37   am
    83   132   131    2
    84    29    28    2
    85   125   124    2
    86   102    99    1
    87   102   103    1
    88    28    35   am
    89    90    89    2
    90    30    31    1
    91    99   100    1
    92    99    98    1
    93    37    38    2
    94    37    36    1
    95    32    31    1
    96    32    33    1
    97   109   110    1
    98   109   106    1
    99    35    36    1
   100   112   110   ar
   101   112   114   ar
   102   110   111   ar
   103   100   101    2
   104   100   105   am
   105   114   113   ar
   106    89    98   am
   107    89    88    1
   108   105   106    1
   109    36    39    1
   110   111   113   ar
   111    33    34    1
   112   106   107    1
   113    87    88    1
   114   108   107    2
   115    88    91    1
   116   107   115   am
   117    91    92    1
   118    39    40    1
   119    39    41    1
   120   117   118    2
   121   117   116    1
   122   115   121    1
   123   115   116    1
   124    93    92   ar
   125    93    95   ar
   126    92    94   ar
   127   146   145    1
   128   121   120    1
   129   116   119    1
   130   147   145    1
   131    95    97   ar
   132    94    96   ar
   133   145   142    1
   134   119   120    1
   135    97    96   ar
   136   142   141    1
   137   142   143    1
   138   141   139   am
   139   137   138    1
   140   139   138    1
   141   139   140    2
   142   143   148   am
   143   143   144    2
   144   148   149    1
   145   151   150    2
   146   153   152    1
   147   150   149    1
   148   149   152    1
   149   152   154    1
