@<TRIPOS>MOLECULE
tmp/5uhoA00.pdb
 146 138 0 0 0
SMALL
GASTEIGER

@<TRIPOS>ATOM
      1  N         12.3370   51.4260  -19.9010 N.3    10  GLY10      -0.1225
      2  CA        13.3890   50.9510  -20.7830 C.3    10  GLY10       0.1811
      3  C         12.9620   49.8970  -21.7780 C.2    10  GLY10       0.2280
      4  O         13.7920   49.0960  -22.1910 O.2    10  GLY10      -0.2866
      5  N         10.7130   48.3010  -25.4060 N.3    12  TYR12      -0.1241
      6  CA        10.4780   48.5230  -26.8230 C.3    12  TYR12       0.1605
      7  C          8.9810   48.7760  -26.9130 C.2    12  TYR12       0.2264
      8  O          8.2360   48.4070  -25.9910 O.2    12  TYR12      -0.2867
      9  CB        10.8800   47.3050  -27.6660 C.3    12  TYR12       0.0534
     10  CG        12.3630   47.0690  -27.6880 C.ar   12  TYR12      -0.0201
     11  CD1       12.9760   46.2910  -26.7170 C.ar   12  TYR12      -0.0009
     12  CD2       13.1580   47.6200  -28.6810 C.ar   12  TYR12      -0.0009
     13  CE1       14.3550   46.0850  -26.7170 C.ar   12  TYR12       0.0417
     14  CE2       14.5370   47.4130  -28.7020 C.ar   12  TYR12       0.0417
     15  CZ        15.1330   46.6470  -27.7140 C.ar   12  TYR12       0.1957
     16  OH        16.4900   46.4510  -27.7090 O.3    12  TYR12      -0.2866
     17  N         13.5150   52.4640  -25.4160 N.3    41  LYS41      -0.1245
     18  CA        14.2110   51.8900  -26.5670 C.3    41  LYS41       0.1561
     19  C         13.7600   52.4760  -27.9140 C.2    41  LYS41       0.2260
     20  O         14.5400   52.4430  -28.8870 O.2    41  LYS41      -0.2867
     21  CB        14.1300   50.3570  -26.5440 C.3    41  LYS41       0.0271
     22  CG        15.0630   49.7140  -25.5240 C.3    41  LYS41       0.0035
     23  CD        16.4510   49.4550  -26.0690 C.3    41  LYS41       0.0206
     24  CE        17.3520   48.8530  -25.0310 C.3    41  LYS41       0.1093
     25  NZ        17.8300   49.8550  -24.0410 N.3    41  LYS41      -0.1314
     26  N         23.5820   47.7210  -24.2250 N.3   117  ASP117     -0.1225
     27  CA        22.7850   46.5060  -24.2600 C.3   117  ASP117      0.1805
     28  C         22.1540   46.4050  -25.6590 C.2   117  ASP117      0.2597
     29  O         21.9270   47.4220  -26.3150 O.2   117  ASP117     -0.2718
     30  CB        21.6860   46.5890  -23.1620 C.3   117  ASP117      0.1424
     31  CG        20.6970   47.7540  -23.2810 C.2   117  ASP117      0.3668
     32  OD1       21.1500   48.9230  -23.3040 O.co2 117  ASP117     -0.2456
     33  OD2       19.4730   47.4940  -23.3390 O.co2 117  ASP117     -0.2456
     34  N         21.8690   45.1900  -26.1030 N.am  118  ASP118     -0.1974
     35  CA        21.2210   44.8960  -27.3860 C.3   118  ASP118      0.1709
     36  C         22.0440   45.3250  -28.6280 C.2   118  ASP118      0.2293
     37  O         21.4840   45.6190  -29.6900 O.2   118  ASP118     -0.2864
     38  CB        19.7850   45.4690  -27.4240 C.3   118  ASP118      0.1436
     39  CG        18.8920   44.9720  -26.2990 C.2   118  ASP118      0.3671
     40  OD1       19.2880   45.1010  -25.1250 O.co2 118  ASP118     -0.2456
     41  OD2       17.7950   44.4620  -26.5960 O.co2 118  ASP118     -0.2456
     42  N         25.4300   50.4720  -18.5690 N.3   158  CYS158     -0.1235
     43  CA        24.8930   49.1450  -18.8580 C.3   158  CYS158      0.1677
     44  C         25.8030   48.3670  -19.8290 C.2   158  CYS158      0.2270
     45  O         26.0580   48.8090  -20.9540 O.2   158  CYS158     -0.2867
     46  CB        23.4320   49.1480  -19.3040 C.3   158  CYS158      0.0956
     47  SG        22.7270   47.4840  -19.4930 S.3   158  CYS158     -0.0801
     48  N         25.1270   42.0670  -19.6880 N.3   162  TYR162     -0.1241
     49  CA        24.2980   42.5650  -18.5730 C.3   162  TYR162      0.1605
     50  C         23.5710   41.4800  -17.7880 C.2   162  TYR162      0.2264
     51  O         22.9160   41.7900  -16.7960 O.2   162  TYR162     -0.2867
     52  CB        23.2870   43.5910  -19.0910 C.3   162  TYR162      0.0534
     53  CG        22.4560   43.0850  -20.2550 C.ar  162  TYR162     -0.0201
     54  CD1       22.9030   43.2240  -21.5670 C.ar  162  TYR162     -0.0009
     55  CD2       21.2080   42.4990  -20.0480 C.ar  162  TYR162     -0.0009
     56  CE1       22.1420   42.7800  -22.6380 C.ar  162  TYR162      0.0417
     57  CE2       20.4360   42.0530  -21.1130 C.ar  162  TYR162      0.0417
     58  CZ        20.9060   42.2010  -22.4070 C.ar  162  TYR162      0.1957
     59  OH        20.1680   41.7780  -23.4800 O.3   162  TYR162     -0.2866
     60  N         24.5060   35.9320  -20.6880 N.3   166  PHE166     -0.1241
     61  CA        25.0220   36.7700  -21.7740 C.3   166  PHE166      0.1605
     62  C         26.4840   37.0670  -21.6580 C.2   166  PHE166      0.2264
     63  O         27.0000   37.8430  -22.4610 O.2   166  PHE166     -0.2867
     64  CB        24.2320   38.0960  -21.8490 C.3   166  PHE166      0.0534
     65  CG        23.0230   38.0920  -22.7480 C.ar  166  PHE166     -0.0203
     66  CD1       22.1260   37.0320  -22.7380 C.ar  166  PHE166     -0.0042
     67  CD2       22.7620   39.1570  -23.5840 C.ar  166  PHE166     -0.0042
     68  CE1       21.0110   37.0210  -23.5750 C.ar  166  PHE166     -0.0003
     69  CE2       21.6360   39.1490  -24.4210 C.ar  166  PHE166     -0.0003
     70  CZ        20.7640   38.0840  -24.4040 C.ar  166  PHE166     -0.0000
     71  N         20.8410   42.6950  -15.0630 N.3   193  THR193     -0.1218
     72  CA        19.4750   42.1890  -15.1330 C.3   193  THR193      0.1862
     73  C         19.2670   40.8030  -14.5140 C.2   193  THR193      0.2287
     74  O         18.2320   40.1730  -14.7690 O.2   193  THR193     -0.2866
     75  CB        19.0000   42.2320  -16.5780 C.3   193  THR193      0.1770
     76  OG1       19.6750   41.2430  -17.3510 O.3   193  THR193     -0.2211
     77  CG2       19.1810   43.5990  -17.2000 C.3   193  THR193      0.0375
     78  N         17.8960   37.3480  -18.7840 N.3   197  VAL197     -0.1231
     79  CA        17.4940   38.7110  -19.1700 C.3   197  VAL197      0.1692
     80  C         16.2960   39.0120  -18.2460 C.2   197  VAL197      0.2591
     81  O         16.2970   40.0040  -17.5010 O.2   197  VAL197     -0.2718
     82  CB        17.1480   38.8680  -20.6930 C.3   197  VAL197      0.0266
     83  CG1       16.2450   40.0790  -20.9440 C.3   197  VAL197      0.0020
     84  CG2       18.4080   38.9580  -21.5560 C.3   197  VAL197      0.0020
     85  N         15.3190   38.0890  -18.2670 N.am  198  VAL198     -0.1980
     86  CA        14.1060   38.1000  -17.4550 C.3   198  VAL198      0.1595
     87  C         14.3460   36.9810  -16.3870 C.2   198  VAL198      0.2287
     88  O         13.9500   35.8310  -16.5830 O.2   198  VAL198     -0.2864
     89  CB        12.8890   37.8530  -18.3880 C.3   198  VAL198      0.0276
     90  CG1       11.5590   37.9680  -17.6530 C.3   198  VAL198      0.0022
     91  CG2       12.9310   38.7920  -19.5810 C.3   198  VAL198      0.0022
     92  N         18.3580   45.9990  -13.0730 N.3   221  TRP221     -0.1241
     93  CA        17.4090   46.4710  -14.0710 C.3   221  TRP221      0.1605
     94  C         16.5100   45.2220  -14.0900 C.2   221  TRP221      0.2264
     95  O         16.8040   44.2570  -14.8000 O.2   221  TRP221     -0.2867
     96  CB        18.0910   46.7540  -15.4480 C.3   221  TRP221      0.0550
     97  CG        17.1640   46.9250  -16.6400 C.ar  221  TRP221      0.0003
     98  CD1       16.1750   46.0730  -17.0490 C.ar  221  TRP221      0.0946
     99  CD2       17.2090   47.9740  -17.6130 C.ar  221  TRP221      0.0152
    100  NE1       15.5730   46.5510  -18.1830 N.ar  221  TRP221     -0.2442
    101  CE2       16.1890   47.7130  -18.5590 C.ar  221  TRP221      0.0810
    102  CE3       18.0180   49.1120  -17.7870 C.ar  221  TRP221      0.0012
    103  CZ2       15.9380   48.5580  -19.6520 C.ar  221  TRP221      0.0191
    104  CZ3       17.7850   49.9380  -18.8850 C.ar  221  TRP221      0.0001
    105  CH2       16.7440   49.6700  -19.7900 C.ar  221  TRP221      0.0015
    106  N         13.6900   42.9540  -15.1330 N.3   223  ASN223     -0.1240
    107  CA        12.7710   42.7210  -16.2510 C.3   223  ASN223      0.1653
    108  C         11.6260   41.7560  -15.9130 C.2   223  ASN223      0.2266
    109  O         10.8830   41.3610  -16.8150 O.2   223  ASN223     -0.2867
    110  CB        13.5260   42.2390  -17.4890 C.3   223  ASN223      0.1155
    111  CG        14.3040   43.2970  -18.2240 C.2   223  ASN223      0.2627
    112  OD1       13.7680   44.3320  -18.6110 O.2   223  ASN223     -0.2716
    113  ND2       15.5850   43.0390  -18.4590 N.am  223  ASN223     -0.0877
    114  N          8.3010   43.0440  -17.2100 N.3   226  ALA226     -0.1245
    115  CA         8.3720   43.5140  -18.5880 C.3   226  ALA226      0.1562
    116  C          7.5260   42.5980  -19.4350 C.2   226  ALA226      0.2260
    117  O          7.4350   41.4110  -19.1160 O.2   226  ALA226     -0.2867
    118  CB         9.8080   43.4730  -19.0730 C.3   226  ALA226      0.0290
    119  N          7.3160   43.3060  -23.2530 N.3   228  ASP228     -0.1225
    120  CA         7.4540   43.5920  -24.6750 C.3   228  ASP228      0.1805
    121  C          7.5770   42.2490  -25.4570 C.2   228  ASP228      0.2597
    122  O          6.6590   41.9740  -26.2340 O.2   228  ASP228     -0.2718
    123  CB         8.5330   44.6340  -25.0090 C.3   228  ASP228      0.1424
    124  CG         9.8160   44.4980  -24.2360 C.2   228  ASP228      0.3668
    125  OD1       10.1450   43.3720  -23.8420 O.co2 228  ASP228     -0.2456
    126  OD2       10.5030   45.5240  -24.0370 O.co2 228  ASP228     -0.2456
    127  N          8.6040   41.3750  -25.1750 N.am  229  TYR229     -0.1976
    128  CA         8.8790   40.0510  -25.8050 C.3   229  TYR229      0.1639
    129  C          7.6420   39.2140  -26.2270 C.2   229  TYR229      0.2290
    130  O          7.6970   38.4750  -27.2280 O.2   229  TYR229     -0.2864
    131  CB         9.8070   39.1780  -24.9400 C.3   229  TYR229      0.0560
    132  CG         9.4500   39.0090  -23.4720 C.ar  229  TYR229     -0.0198
    133  CD1        8.4050   38.1780  -23.0760 C.ar  229  TYR229     -0.0009
    134  CD2       10.2140   39.6040  -22.4770 C.ar  229  TYR229     -0.0009
    135  CE1        8.1020   37.9770  -21.7270 C.ar  229  TYR229      0.0417
    136  CE2        9.9110   39.4280  -21.1260 C.ar  229  TYR229      0.0417
    137  CZ         8.8600   38.6030  -20.7480 C.ar  229  TYR229      0.1957
    138  OH         8.5550   38.4230  -19.4020 O.3   229  TYR229     -0.2866
    139  N         11.8040   47.5010  -15.0140 N.3   256  ASN256     -0.1240
    140  CA        11.3650   47.7220  -16.3810 C.3   256  ASN256      0.1653
    141  C         10.0090   46.9370  -16.3740 C.2   256  ASN256      0.2266
    142  O         10.0190   45.6970  -16.2870 O.2   256  ASN256     -0.2867
    143  CB        12.3750   47.1450  -17.3640 C.3   256  ASN256      0.1155
    144  CG        12.0580   47.4340  -18.8070 C.2   256  ASN256      0.2627
    145  OD1       11.3340   48.3800  -19.1300 O.2   256  ASN256     -0.2716
    146  ND2       12.6020   46.6320  -19.7170 N.am  256  ASN256     -0.0877
@<TRIPOS>BOND
     1    37    36    2
     2    20    19    2
     3    14    12   ar
     4    14    15   ar
     5    12    10   ar
     6    36    35    1
     7    19    18    1
     8    15    16    1
     9    15    13   ar
    10    10     9    1
    11    10    11   ar
    12     9     6    1
    13    38    35    1
    14    38    39    1
    15    35    34    1
    16   130   129    2
    17     7     6    1
    18     7     8    2
    19     6     5    1
    20    13    11   ar
    21    41    39   ar
    22    18    21    1
    23    18    17    1
    24    21    22    1
    25    29    28    2
    26    39    40   ar
    27   122   121    2
    28   129   128    1
    29    34    28   am
    30    23    22    1
    31    23    24    1
    32   128   127    1
    33   128   131    1
    34    28    27    1
    35   121   127   am
    36   121   120    1
    37    24    25    1
    38   123   120    1
    39   123   124    1
    40   131   132    1
    41   120   119    1
    42    69    70   ar
    43    69    67   ar
    44    70    68   ar
    45    27    26    1
    46    27    30    1
    47   124   126   ar
    48   124   125   ar
    49    67    65   ar
    50    68    66   ar
    51    59    58    1
    52   132   133   ar
    53   132   134   ar
    54    33    31   ar
    55    32    31   ar
    56    31    30    1
    57   133   135   ar
    58    65    66   ar
    59    65    64    1
    60    56    58   ar
    61    56    54   ar
    62   134   136   ar
    63    63    62    2
    64    58    57   ar
    65     4     3    2
    66    64    61    1
    67     3     2    1
    68    61    62    1
    69    61    60    1
    70   135   137   ar
    71    54    53   ar
    72    84    82    1
    73   136   137   ar
    74    57    55   ar
    75    45    44    2
    76    83    82    1
    77     2     1    1
    78   137   138    1
    79    82    79    1
    80    53    55   ar
    81    53    52    1
    82    44    43    1
    83   105   103   ar
    84   105   104   ar
    85   146   144   am
    86    48    49    1
    87   103   101   ar
    88    91    89    1
    89    47    46    1
    90   116   117    2
    91   116   115    1
    92    46    43    1
    93    79    78    1
    94    79    80    1
    95   145   144    2
    96    52    49    1
    97   118   115    1
    98   104   102   ar
    99    43    42    1
   100   144   143    1
   101   112   111    2
   102   115   114    1
   103    49    50    1
   104   101   100   ar
   105   101    99   ar
   106   113   111   am
   107    89    90    1
   108    89    86    1
   109    85    80   am
   110    85    86    1
   111    80    81    2
   112   111   110    1
   113   100    98   ar
   114    50    51    2
   115   102    99   ar
   116    99    97   ar
   117   110   107    1
   118    86    87    1
   119   143   140    1
   120    76    75    1
   121    77    75    1
   122    98    97   ar
   123   109   108    2
   124    97    96    1
   125    88    87    2
   126    75    72    1
   127   140   141    1
   128   140   139    1
   129   141   142    2
   130   107   108    1
   131   107   106    1
   132    96    93    1
   133    72    71    1
   134    72    73    1
   135    95    94    2
   136    74    73    2
   137    94    93    1
   138    93    92    1
