@<TRIPOS>MOLECULE
tmp/5uhzA01.pdb
 144 141 0 0 0
SMALL
GASTEIGER

@<TRIPOS>ATOM
      1  N         13.9690  -16.4670   15.0860 N.3    12  PHE12      -0.1227
      2  CA        12.9580  -17.0570   14.2010 C.3    12  PHE12       0.1736
      3  C         12.4110  -18.3560   14.8080 C.2    12  PHE12       0.2595
      4  O         11.2110  -18.4620   15.0700 O.2    12  PHE12      -0.2718
      5  CB        13.5690  -17.2350   12.7850 C.3    12  PHE12       0.0547
      6  CG        12.8930  -18.2720   11.9140 C.ar   12  PHE12      -0.0202
      7  CD1       13.3700  -19.5930   11.8760 C.ar   12  PHE12      -0.0042
      8  CD2       11.8220  -17.9230   11.0830 C.ar   12  PHE12      -0.0042
      9  CE1       12.7640  -20.5480   11.0630 C.ar   12  PHE12      -0.0003
     10  CE2       11.2180  -18.8750   10.2680 C.ar   12  PHE12      -0.0003
     11  CZ        11.6880  -20.1870   10.2570 C.ar   12  PHE12      -0.0000
     12  N         13.3030  -19.3030   15.0890 N.am   13  PHE13      -0.1976
     13  CA        12.9070  -20.6100   15.6080 C.3    13  PHE13       0.1639
     14  C         12.5440  -20.6140   17.1010 C.2    13  PHE13       0.2290
     15  O         11.8010  -21.4840   17.5490 O.2    13  PHE13      -0.2864
     16  CB        13.9890  -21.6540   15.3240 C.3    13  PHE13       0.0560
     17  CG        13.4830  -23.0730   15.3760 C.ar   13  PHE13      -0.0200
     18  CD1       12.6830  -23.5760   14.3550 C.ar   13  PHE13      -0.0042
     19  CD2       13.7850  -23.9010   16.4530 C.ar   13  PHE13      -0.0042
     20  CE1       12.2080  -24.8790   14.3970 C.ar   13  PHE13      -0.0003
     21  CE2       13.3080  -25.2040   16.5010 C.ar   13  PHE13      -0.0003
     22  CZ        12.5220  -25.6940   15.4700 C.ar   13  PHE13      -0.0000
     23  N         21.1500  -26.7880   17.8170 N.3    95  LYS95      -0.1245
     24  CA        22.1200  -27.2140   16.8130 C.3    95  LYS95       0.1561
     25  C         22.4310  -26.0280   15.8820 C.2    95  LYS95       0.2260
     26  O         21.6710  -25.0570   15.8640 O.2    95  LYS95      -0.2867
     27  CB        21.6660  -28.4520   16.0200 C.3    95  LYS95       0.0271
     28  CG        20.2260  -28.5070   15.5120 C.3    95  LYS95       0.0035
     29  CD        19.8390  -27.4390   14.4950 C.3    95  LYS95       0.0206
     30  CE        20.6760  -27.5040   13.2250 C.3    95  LYS95       0.1093
     31  NZ        20.0330  -26.7590   12.1050 N.3    95  LYS95      -0.1314
     32  N         14.7990  -33.7020   14.9620 N.3   124  PHE124     -0.1241
     33  CA        14.3630  -34.5560   13.8450 C.3   124  PHE124      0.1605
     34  C         14.0600  -35.9980   14.2560 C.2   124  PHE124      0.2264
     35  O         13.0670  -36.5690   13.7920 O.2   124  PHE124     -0.2867
     36  CB        15.3640  -34.5150   12.6770 C.3   124  PHE124      0.0534
     37  CG        15.1160  -33.3880   11.6990 C.ar  124  PHE124     -0.0203
     38  CD1       14.9880  -32.0770   12.1390 C.ar  124  PHE124     -0.0042
     39  CD2       15.0180  -33.6400   10.3350 C.ar  124  PHE124     -0.0042
     40  CE1       14.7620  -31.0440   11.2430 C.ar  124  PHE124     -0.0003
     41  CE2       14.7960  -32.6120    9.4340 C.ar  124  PHE124     -0.0003
     42  CZ        14.6640  -31.3120    9.8900 C.ar  124  PHE124     -0.0000
     43  N         14.5730  -22.0980    2.0840 N.3   158  VAL158     -0.1245
     44  CA        14.9290  -21.9400    3.5110 C.3   158  VAL158      0.1561
     45  C         15.6870  -20.6390    3.8150 C.2   158  VAL158      0.2260
     46  O         15.8040  -20.2460    4.9790 O.2   158  VAL158     -0.2867
     47  CB        15.7860  -23.1180    4.0440 C.3   158  VAL158      0.0252
     48  CG1       15.0320  -24.4330    3.9240 C.3   158  VAL158      0.0019
     49  CG2       17.1480  -23.1940    3.3430 C.3   158  VAL158      0.0019
     50  N         15.9150  -17.9670    7.1020 N.3   162  GLN162     -0.1245
     51  CA        17.2450  -18.1100    7.7130 C.3   162  GLN162      0.1566
     52  C         18.3450  -17.6080    6.7620 C.2   162  GLN162      0.2260
     53  O         19.0350  -18.4250    6.1510 O.2   162  GLN162     -0.2867
     54  CB        17.4870  -19.5790    8.0870 C.3   162  GLN162      0.0367
     55  CG        16.5810  -20.0960    9.1910 C.3   162  GLN162      0.0905
     56  CD        16.5930  -21.6140    9.3120 C.2   162  GLN162      0.2608
     57  OE1       15.6390  -22.2770    8.9200 O.2   162  GLN162     -0.2717
     58  NE2       17.6680  -22.1660    9.8610 N.am  162  GLN162     -0.0878
     59  N         22.1500  -18.9210    6.2640 N.3   165  LEU165     -0.1245
     60  CA        22.3870  -20.1600    5.4990 C.3   165  LEU165      0.1561
     61  C         23.0210  -19.9280    4.1170 C.2   165  LEU165      0.2260
     62  O         23.8140  -20.7560    3.6610 O.2   165  LEU165     -0.2867
     63  CB        21.0850  -20.9660    5.3470 C.3   165  LEU165      0.0270
     64  CG        20.4130  -21.4840    6.6210 C.3   165  LEU165      0.0019
     65  CD1       19.1420  -22.2400    6.2650 C.3   165  LEU165      0.0001
     66  CD2       21.3490  -22.3670    7.4390 C.3   165  LEU165      0.0001
     67  N         23.8970  -27.5710    8.7010 N.3   175  ASP175     -0.1225
     68  CA        22.5380  -27.0820    8.9510 C.3   175  ASP175      0.1805
     69  C         21.5160  -28.2170    8.9870 C.2   175  ASP175      0.2597
     70  O         20.7530  -28.3370    9.9460 O.2   175  ASP175     -0.2718
     71  CB        22.1190  -26.0680    7.8830 C.3   175  ASP175      0.1424
     72  CG        20.6680  -25.6470    8.0160 C.2   175  ASP175      0.3668
     73  OD1       20.2430  -25.3280    9.1480 O.co2 175  ASP175     -0.2456
     74  OD2       19.9550  -25.6340    6.9880 O.co2 175  ASP175     -0.2456
     75  N         21.4900  -29.0170    7.9250 N.am  176  LEU176     -0.1979
     76  CA        20.4680  -30.0430    7.7310 C.3   176  LEU176      0.1596
     77  C         21.0150  -31.4620    7.8470 C.2   176  LEU176      0.2287
     78  O         20.4430  -32.2860    8.5550 O.2   176  LEU176     -0.2864
     79  CB        19.8080  -29.8750    6.3620 C.3   176  LEU176      0.0297
     80  CG        18.8760  -31.0500    6.0010 C.3   176  LEU176      0.0022
     81  CD1       17.5150  -30.8560    6.6420 C.3   176  LEU176      0.0001
     82  CD2       18.7900  -31.2330    4.5030 C.3   176  LEU176      0.0001
     83  N         21.0070  -33.2980   11.0330 N.3   179  HIS179     -0.1241
     84  CA        19.7800  -34.0030   11.4110 C.3   179  HIS179      0.1621
     85  C         19.7030  -35.4150   10.8200 C.2   179  HIS179      0.2264
     86  O         19.3560  -36.3800   11.5140 O.2   179  HIS179     -0.2867
     87  CB        18.5360  -33.2630   10.9180 C.3   179  HIS179      0.0745
     88  CG        18.3180  -31.9200   11.5370 C.ar  179  HIS179      0.0817
     89  ND1       18.1420  -31.7420   12.8910 N.ar  179  HIS179     -0.2268
     90  CD2       18.1740  -30.6980   10.9740 C.ar  179  HIS179      0.1154
     91  CE1       17.9310  -30.4620   13.1380 C.ar  179  HIS179      0.1986
     92  NE2       17.9480  -29.8060   11.9910 N.ar  179  HIS179     -0.2212
     93  N         19.4600  -29.2050   -1.1850 N.3   229  TYR229     -0.1241
     94  CA        18.5140  -28.0840   -1.3520 C.3   229  TYR229      0.1605
     95  C         18.5010  -27.5440   -2.8020 C.2   229  TYR229      0.2264
     96  O         18.1050  -26.4030   -3.0330 O.2   229  TYR229     -0.2867
     97  CB        18.8160  -26.9610   -0.3420 C.3   229  TYR229      0.0534
     98  CG        18.1470  -27.1490    1.0100 C.ar  229  TYR229     -0.0201
     99  CD1       16.7550  -27.2250    1.1130 C.ar  229  TYR229     -0.0009
    100  CD2       18.8990  -27.2240    2.1920 C.ar  229  TYR229     -0.0009
    101  CE1       16.1330  -27.3890    2.3390 C.ar  229  TYR229      0.0417
    102  CE2       18.2770  -27.3860    3.4280 C.ar  229  TYR229      0.0417
    103  CZ        16.8950  -27.4710    3.4880 C.ar  229  TYR229      0.1957
    104  OH        16.2580  -27.6410    4.6850 O.3   229  TYR229     -0.2866
    105  N          9.4650  -30.8430    1.3830 N.3   238  PHE238     -0.1228
    106  CA         9.9960  -30.1650    2.5770 C.3   238  PHE238      0.1721
    107  C          8.9840  -30.1970    3.7360 C.2   238  PHE238      0.2437
    108  O          7.8170  -29.8670    3.5160 O.2   238  PHE238     -0.2733
    109  CB        10.3550  -28.7130    2.2390 C.3   238  PHE238      0.0547
    110  CG        10.9270  -27.9320    3.3910 C.ar  238  PHE238     -0.0202
    111  CD1       12.2970  -27.9590    3.6600 C.ar  238  PHE238     -0.0042
    112  CD2       10.1040  -27.1470    4.1950 C.ar  238  PHE238     -0.0042
    113  CE1       12.8250  -27.2350    4.7210 C.ar  238  PHE238     -0.0003
    114  CE2       10.6300  -26.4190    5.2540 C.ar  238  PHE238     -0.0003
    115  CZ        11.9930  -26.4630    5.5180 C.ar  238  PHE238     -0.0000
    116  N          9.3790  -30.5750    4.9570 N.am  239  PRO239     -0.2729
    117  CA        10.7260  -30.9630    5.3550 C.3   239  PRO239      0.1401
    118  C         10.7240  -32.4200    5.8090 C.2   239  PRO239      0.2269
    119  O         11.0540  -32.7300    6.9600 O.2   239  PRO239     -0.2865
    120  CB        10.9890  -30.0190    6.5220 C.3   239  PRO239      0.0296
    121  CG         9.6560  -29.9470    7.2040 C.3   239  PRO239      0.0237
    122  CD         8.6020  -30.1420    6.1350 C.3   239  PRO239      0.0939
    123  N          5.6490  -26.7400    8.2420 N.3   285  TRP285     -0.1241
    124  CA         6.5980  -26.8780    9.3660 C.3   285  TRP285      0.1605
    125  C          6.0720  -27.7270   10.5310 C.2   285  TRP285      0.2264
    126  O          6.7980  -27.9670   11.5030 O.2   285  TRP285     -0.2867
    127  CB         6.9610  -25.4940    9.9140 C.3   285  TRP285      0.0550
    128  CG         7.6300  -24.6220    8.9250 C.ar  285  TRP285      0.0003
    129  CD1        7.0330  -23.8520    7.9740 C.ar  285  TRP285      0.0946
    130  CD2        9.0390  -24.4250    8.7850 C.ar  285  TRP285      0.0152
    131  NE1        7.9840  -23.1900    7.2400 N.ar  285  TRP285     -0.2442
    132  CE2        9.2260  -23.5190    7.7170 C.ar  285  TRP285      0.0810
    133  CE3       10.1670  -24.9260    9.4600 C.ar  285  TRP285      0.0012
    134  CZ2       10.5010  -23.0960    7.3020 C.ar  285  TRP285      0.0191
    135  CZ3       11.4410  -24.5090    9.0470 C.ar  285  TRP285      0.0001
    136  CH2       11.5930  -23.6000    7.9750 C.ar  285  TRP285      0.0015
    137  N          8.1040  -30.6480   12.2680 N.3   288  ILE288     -0.1245
    138  CA         9.2100  -30.1000   13.0540 C.3   288  ILE288      0.1561
    139  C          8.6470  -29.4850   14.3330 C.2   288  ILE288      0.2260
    140  O          9.1350  -29.7730   15.4280 O.2   288  ILE288     -0.2867
    141  CB        10.0370  -29.0670   12.2500 C.3   288  ILE288      0.0252
    142  CG1       10.7590  -29.7620   11.0810 C.3   288  ILE288      0.0019
    143  CG2       11.0450  -28.3470   13.1460 C.3   288  ILE288      0.0019
    144  CD1       11.4200  -28.8160   10.1040 C.3   288  ILE288      0.0001
@<TRIPOS>BOND
     1    96    95    2
     2    95    94    1
     3    94    93    1
     4    94    97    1
     5    97    98    1
     6    98    99   ar
     7    98   100   ar
     8    99   101   ar
     9   105   106    1
    10    43    44    1
    11   100   102   ar
    12   109   106    1
    13   109   110    1
    14   101   103   ar
    15   106   107    1
    16    49    47    1
    17   110   111   ar
    18   110   112   ar
    19   102   103   ar
    20   103   104    1
    21    44    45    1
    22    44    47    1
    23   108   107    2
    24   111   113   ar
    25    62    61    2
    26   107   116   am
    27    45    46    2
    28    48    47    1
    29    61    60    1
    30   112   114   ar
    31    82    80    1
    32   113   115   ar
    33   116   117    1
    34   116   122    1
    35   114   115   ar
    36    63    60    1
    37    63    64    1
    38   117   118    1
    39   117   120    1
    40    60    59    1
    41   118   119    2
    42    80    79    1
    43    80    81    1
    44   122   121    1
    45    53    52    2
    46    65    64    1
    47    79    76    1
    48   120   121    1
    49    64    66    1
    50    52    51    1
    51    74    72   ar
    52    50    51    1
    53   131   132   ar
    54   131   129   ar
    55   134   132   ar
    56   134   136   ar
    57    51    54    1
    58   132   130   ar
    59    76    77    1
    60    76    75    1
    61    77    78    2
    62    71    72    1
    63    71    68    1
    64    75    69   am
    65   129   128   ar
    66   136   135   ar
    67    72    73   ar
    68    54    55    1
    69   123   124    1
    70    67    68    1
    71   130   128   ar
    72   130   133   ar
    73    57    56    2
    74   128   127    1
    75    68    69    1
    76    69    70    2
    77   135   133   ar
    78    55    56    1
    79    56    58   am
    80   124   127    1
    81   124   125    1
    82    41    42   ar
    83    41    39   ar
    84    42    40   ar
    85   144   142    1
    86    11    10   ar
    87    11     9   ar
    88    10     8   ar
    89    39    37   ar
    90   125   126    2
    91    85    84    1
    92    85    86    2
    93    87    84    1
    94    87    88    1
    95    90    88   ar
    96    90    92   ar
    97    83    84    1
    98     9     7   ar
    99   142   141    1
   100     8     6   ar
   101    40    38   ar
   102    88    89   ar
   103    37    38   ar
   104    37    36    1
   105     7     6   ar
   106     6     5    1
   107    92    91   ar
   108    31    30    1
   109   141   138    1
   110   141   143    1
   111   137   138    1
   112    36    33    1
   113     5     2    1
   114    89    91   ar
   115   138   139    1
   116    30    29    1
   117    35    34    2
   118    33    34    1
   119    33    32    1
   120     2     3    1
   121     2     1    1
   122   139   140    2
   123    18    20   ar
   124    18    17   ar
   125    20    22   ar
   126    29    28    1
   127     3     4    2
   128     3    12   am
   129    12    13    1
   130    16    17    1
   131    16    13    1
   132    17    19   ar
   133    22    21   ar
   134    28    27    1
   135    13    14    1
   136    26    25    2
   137    25    24    1
   138    27    24    1
   139    19    21   ar
   140    24    23    1
   141    14    15    2
