@<TRIPOS>MOLECULE
tmp/5ui0A00.pdb
 120 114 0 0 0
SMALL
GASTEIGER

@<TRIPOS>ATOM
      1  N         34.4010   23.4650   26.6960 N.3    66  LYS66      -0.1245
      2  CA        35.8190   23.6150   27.0090 C.3    66  LYS66       0.1561
      3  C         36.5980   24.1560   25.8110 C.2    66  LYS66       0.2260
      4  O         37.5540   24.9230   25.9830 O.2    66  LYS66      -0.2867
      5  CB        36.4010   22.2700   27.4480 C.3    66  LYS66       0.0271
      6  CG        37.7580   22.3770   28.1390 C.3    66  LYS66       0.0035
      7  CD        37.5940   22.6470   29.6300 C.3    66  LYS66       0.0206
      8  CE        37.3600   21.3100   30.3550 C.3    66  LYS66       0.1093
      9  NZ        37.0630   21.4280   31.8230 N.3    66  LYS66      -0.1314
     10  N         35.9580   27.8440   25.9890 N.3    69  SER69      -0.1202
     11  CA        36.7180   28.3860   27.1140 C.3    69  SER69       0.2020
     12  C         38.2030   28.4770   26.7790 C.2    69  SER69       0.2618
     13  O         38.8550   29.4790   27.0920 O.2    69  SER69      -0.2717
     14  CB        36.4970   27.5330   28.3650 C.3    69  SER69       0.2103
     15  OG        37.2720   28.0360   29.4480 O.3    69  SER69      -0.2182
     16  N         38.7530   27.4440   26.1290 N.am   70  ASP70      -0.1973
     17  CA        40.1670   27.4770   25.7520 C.3    70  ASP70       0.1709
     18  C         40.4540   28.5910   24.7460 C.2    70  ASP70       0.2293
     19  O         41.5270   29.2140   24.7840 O.2    70  ASP70      -0.2864
     20  CB        40.6170   26.1300   25.1740 C.3    70  ASP70       0.1436
     21  CG        40.6700   25.0140   26.2210 C.2    70  ASP70       0.3671
     22  OD1       40.6650   25.2930   27.4450 O.co2  70  ASP70      -0.2456
     23  OD2       40.7490   23.8400   25.7990 O.co2  70  ASP70      -0.2456
     24  N         52.9010   25.7000   29.6550 N.3   160  ARG160     -0.1245
     25  CA        52.4390   24.3660   30.0520 C.3   160  ARG160      0.1563
     26  C         52.3460   23.3730   28.8880 C.2   160  ARG160      0.2260
     27  O         52.1890   22.1790   29.1410 O.2   160  ARG160     -0.2867
     28  CB        51.0680   24.3800   30.7620 C.3   160  ARG160      0.0307
     29  CG        51.0280   25.2030   32.0430 C.3   160  ARG160      0.0489
     30  CD        49.5780   25.5300   32.3580 C.3   160  ARG160      0.2205
     31  NE        48.9540   24.4250   33.0340 N.pl3 160  ARG160     -0.0865
     32  CZ        47.7250   23.9700   32.8260 C.cat 160  ARG160      0.5346
     33  NH1       46.9110   24.5040   31.9180 N.pl3 160  ARG160      0.1354
     34  NH2       47.3210   22.9430   33.5550 N.pl3 160  ARG160      0.1354
     35  N         46.5500   26.5900   26.8120 N.3   182  LEU182     -0.1245
     36  CA        46.7370   26.0080   28.1340 C.3   182  LEU182      0.1561
     37  C         47.5720   26.8850   29.0520 C.2   182  LEU182      0.2260
     38  O         47.7890   26.5130   30.2050 O.2   182  LEU182     -0.2867
     39  CB        47.3800   24.6260   28.0210 C.3   182  LEU182      0.0270
     40  CG        46.4430   23.6450   27.3310 C.3   182  LEU182      0.0019
     41  CD1       47.2010   22.3790   26.9210 C.3   182  LEU182      0.0001
     42  CD2       45.2660   23.3380   28.2560 C.3   182  LEU182      0.0001
     43  N         48.8610   29.8750   31.5850 N.3   184  ARG184     -0.1245
     44  CA        48.2470   30.4200   32.7910 C.3   184  ARG184      0.1563
     45  C         49.1000   31.5550   33.3490 C.2   184  ARG184      0.2260
     46  O         50.3270   31.5830   33.1770 O.2   184  ARG184     -0.2867
     47  CB        48.0700   29.3400   33.8730 C.3   184  ARG184      0.0307
     48  CG        47.1970   28.1620   33.4440 C.3   184  ARG184      0.0489
     49  CD        45.7140   28.5290   33.3970 C.3   184  ARG184      0.2205
     50  NE        44.8860   27.3910   32.9750 N.pl3 184  ARG184     -0.0865
     51  CZ        44.3970   27.2190   31.7480 C.cat 184  ARG184      0.5346
     52  NH1       44.6310   28.1220   30.7900 N.pl3 184  ARG184      0.1354
     53  NH2       43.6440   26.1530   31.4770 N.pl3 184  ARG184      0.1354
     54  N         51.2400   26.9540   40.1420 N.3   192  TYR192     -0.1227
     55  CA        49.9150   26.6340   39.6370 C.3   192  TYR192      0.1736
     56  C         49.5500   25.2210   40.0700 C.2   192  TYR192      0.2595
     57  O         50.3560   24.2950   39.9240 O.2   192  TYR192     -0.2718
     58  CB        49.8850   26.7440   38.1140 C.3   192  TYR192      0.0548
     59  CG        48.5190   26.5570   37.5130 C.ar  192  TYR192     -0.0200
     60  CD1       47.6340   27.6210   37.4280 C.ar  192  TYR192     -0.0009
     61  CD2       48.1130   25.3180   37.0290 C.ar  192  TYR192     -0.0009
     62  CE1       46.3830   27.4680   36.8780 C.ar  192  TYR192      0.0417
     63  CE2       46.8500   25.1490   36.4710 C.ar  192  TYR192      0.0417
     64  CZ        45.9930   26.2330   36.4010 C.ar  192  TYR192      0.1957
     65  OH        44.7530   26.0900   35.8510 O.3   192  TYR192     -0.2866
     66  N         48.3370   25.0550   40.5890 N.am  193  LYS193     -0.1966
     67  CA        47.8950   23.7660   41.0980 C.3   193  LYS193      0.1728
     68  C         47.1850   22.9890   39.9950 C.2   193  LYS193      0.2616
     69  O         46.1660   23.4450   39.4630 O.2   193  LYS193     -0.2715
     70  CB        46.9920   23.9560   42.3150 C.3   193  LYS193      0.0311
     71  CG        46.4130   22.6590   42.8580 C.3   193  LYS193      0.0038
     72  CD        47.4780   21.5950   43.1430 C.3   193  LYS193      0.0206
     73  CE        48.3570   21.9320   44.3370 C.3   193  LYS193      0.1093
     74  NZ        49.3590   20.8570   44.6040 N.3   193  LYS193     -0.1314
     75  N         47.7390   21.8300   39.6400 N.am  194  MET194     -0.1963
     76  CA        47.1490   20.9960   38.5990 C.3   194  MET194      0.1736
     77  C         45.9760   20.1950   39.1510 C.2   194  MET194      0.2617
     78  O         45.9580   19.8200   40.3240 O.2   194  MET194     -0.2715
     79  CB        48.1840   20.0260   38.0150 C.3   194  MET194      0.0427
     80  CG        49.4790   20.6730   37.5410 C.3   194  MET194      0.0599
     81  SD        49.3560   21.1760   35.8090 S.3   194  MET194     -0.1393
     82  CE        48.6000   19.7200   35.0710 C.3   194  MET194      0.0692
     83  N         45.0100   19.8950   38.2820 N.am  195  THR195     -0.1951
     84  CA        43.9580   18.9540   38.6510 C.3   195  THR195      0.1897
     85  C         44.5130   17.5270   38.6760 C.2   195  THR195      0.2313
     86  O         45.6720   17.2740   38.3320 O.2   195  THR195     -0.2863
     87  CB        42.7820   19.0550   37.6860 C.3   195  THR195      0.1794
     88  OG1       43.2110   18.6420   36.3870 O.3   195  THR195     -0.2208
     89  CG2       42.2890   20.4820   37.6070 C.3   195  THR195      0.0378
     90  N         43.9640   14.8170   36.8250 N.3   197  ASN197     -0.1225
     91  CA        44.3940   14.3340   35.5150 C.3   197  ASN197      0.1785
     92  C         44.3490   15.5150   34.5610 C.2   197  ASN197      0.2598
     93  O         43.2610   15.9610   34.1890 O.2   197  ASN197     -0.2718
     94  CB        43.5000   13.1980   35.0070 C.3   197  ASN197      0.1169
     95  CG        43.6480   11.9340   35.8240 C.2   197  ASN197      0.2627
     96  OD1       44.7660   11.4680   36.0620 O.2   197  ASN197     -0.2716
     97  ND2       42.5230   11.3700   36.2620 N.am  197  ASN197     -0.0877
     98  N         45.5210   16.0200   34.1630 N.am  198  GLY198     -0.1942
     99  CA        45.5790   17.2140   33.3520 C.3   198  GLY198      0.2014
    100  C         45.3690   16.9590   31.8770 C.2   198  GLY198      0.2639
    101  O         45.1800   15.8310   31.4120 O.2   198  GLY198     -0.2714
    102  N         45.4490   18.0520   31.1180 N.am  199  ARG199     -0.1963
    103  CA        45.3300   18.0240   29.6680 C.3   199  ARG199      0.1729
    104  C         46.6580   18.3710   29.0090 C.2   199  ARG199      0.2616
    105  O         46.6910   18.9420   27.9130 O.2   199  ARG199     -0.2715
    106  CB        44.2220   18.9750   29.1910 C.3   199  ARG199      0.0348
    107  CG        42.8310   18.6600   29.7740 C.3   199  ARG199      0.0492
    108  CD        41.7420   19.5460   29.1500 C.3   199  ARG199      0.2205
    109  NE        41.8940   20.9560   29.5090 N.pl3 199  ARG199     -0.0865
    110  CZ        41.6320   21.9660   28.6750 C.cat 199  ARG199      0.5346
    111  NH1       41.2260   21.7190   27.4340 N.pl3 199  ARG199      0.1354
    112  NH2       41.7900   23.2210   29.0670 N.pl3 199  ARG199      0.1354
    113  N         47.7780   18.0400   29.6870 N.am  200  LEU200     -0.1977
    114  CA        49.1090   18.3050   29.1570 C.3   200  LEU200      0.1596
    115  C         49.7150   17.0110   28.6420 C.2   200  LEU200      0.2287
    116  O         49.7210   16.0090   29.3750 O.2   200  LEU200     -0.2864
    117  CB        50.0200   18.9120   30.2270 C.3   200  LEU200      0.0297
    118  CG        49.4490   20.0640   31.0610 C.3   200  LEU200      0.0022
    119  CD1       50.5050   20.5790   32.0570 C.3   200  LEU200      0.0001
    120  CD2       48.9600   21.1900   30.1350 C.3   200  LEU200      0.0001
@<TRIPOS>BOND
     1    18    19    2
     2    18    17    1
     3    20    17    1
     4    20    21    1
     5    17    16    1
     6    23    21   ar
     7     3     4    2
     8     3     2    1
     9    10    11    1
    10    16    12   am
    11    21    22   ar
    12     1     2    1
    13    12    13    2
    14    12    11    1
    15    35    36    1
    16    41    40    1
    17     2     5    1
    18    11    14    1
    19    40    39    1
    20    40    42    1
    21   111   110    1
    22     5     6    1
    23   105   104    2
    24    39    36    1
    25    36    37    1
    26     6     7    1
    27    14    15    1
    28   115   114    1
    29   115   116    2
    30   110   112    1
    31   110   109    2
    32    26    27    2
    33    26    25    1
    34   104   103    1
    35   104   113   am
    36    37    38    2
    37   108   109    1
    38   108   107    1
    39   114   113    1
    40   114   117    1
    41   106   103    1
    42   106   107    1
    43     7     8    1
    44    24    25    1
    45   103   102    1
    46    25    28    1
    47   120   118    1
    48   117   118    1
    49     8     9    1
    50    28    29    1
    51    52    51    1
    52   118   119    1
    53   102   100   am
    54   101   100    2
    55    53    51    1
    56    43    44    1
    57    51    50    2
    58   100    99    1
    59    33    32    1
    60    29    30    1
    61    30    31    1
    62    44    45    1
    63    44    47    1
    64    32    31    2
    65    32    34    1
    66    50    49    1
    67    46    45    2
    68    99    98    1
    69    49    48    1
    70    48    47    1
    71    98    92   am
    72    93    92    2
    73    92    91    1
    74    94    91    1
    75    94    95    1
    76    82    81    1
    77    91    90    1
    78    81    80    1
    79    95    96    2
    80    95    97   am
    81    65    64    1
    82    88    87    1
    83    64    63   ar
    84    64    62   ar
    85    63    61   ar
    86    62    60   ar
    87    61    59   ar
    88    60    59   ar
    89    59    58    1
    90    80    79    1
    91    89    87    1
    92    87    84    1
    93    79    76    1
    94    58    55    1
    95    83    84    1
    96    83    77   am
    97    86    85    2
    98    76    77    1
    99    76    75    1
   100    84    85    1
   101    77    78    2
   102    69    68    2
   103    55    56    1
   104    55    54    1
   105    75    68   am
   106    57    56    2
   107    68    67    1
   108    56    66   am
   109    66    67    1
   110    67    70    1
   111    70    71    1
   112    71    72    1
   113    72    73    1
   114    73    74    1
