@<TRIPOS>MOLECULE
tmp/5ui1B00.pdb
 132 128 0 0 0
SMALL
GASTEIGER

@<TRIPOS>ATOM
      1  N         42.3030   40.3290   66.0040 N.3    67  HIS67      -0.1241
      2  CA        41.1610   39.8080   66.7600 C.3    67  HIS67       0.1621
      3  C         41.1110   40.2600   68.2160 C.2    67  HIS67       0.2264
      4  O         40.9510   39.4420   69.1290 O.2    67  HIS67      -0.2867
      5  CB        41.1250   38.2720   66.6610 C.3    67  HIS67       0.0745
      6  CG        40.4990   37.7720   65.4010 C.ar   67  HIS67       0.0817
      7  ND1       39.2430   38.1690   64.9940 N.ar   67  HIS67      -0.2268
      8  CD2       40.9450   36.9070   64.4620 C.ar   67  HIS67       0.1154
      9  CE1       38.9420   37.5680   63.8610 C.ar   67  HIS67       0.1986
     10  NE2       39.9580   36.8010   63.5150 N.ar   67  HIS67      -0.2212
     11  N         40.3520   41.5510   60.1570 N.3    94  ASP94      -0.1239
     12  CA        40.0510   40.8150   61.3890 C.3    94  ASP94       0.1674
     13  C         40.7400   41.4390   62.6040 C.2    94  ASP94       0.2266
     14  O         41.5050   40.7770   63.3220 O.2    94  ASP94      -0.2867
     15  CB        40.4110   39.3340   61.2450 C.3    94  ASP94       0.1410
     16  CG        39.3780   38.5400   60.4620 C.2    94  ASP94       0.3668
     17  OD1       38.4090   39.0960   59.9090 O.co2  94  ASP94      -0.2456
     18  OD2       39.5760   37.3150   60.3560 O.co2  94  ASP94      -0.2456
     19  N         36.1550   38.1070   68.9060 N.3    98  ARG98      -0.1245
     20  CA        36.8230   37.0480   69.6630 C.3    98  ARG98       0.1563
     21  C         37.5600   37.6140   70.8740 C.2    98  ARG98       0.2260
     22  O         37.1180   37.4190   72.0150 O.2    98  ARG98      -0.2867
     23  CB        37.7360   36.1900   68.7800 C.3    98  ARG98       0.0307
     24  CG        37.0420   35.6070   67.5560 C.3    98  ARG98       0.0489
     25  CD        36.3560   34.2880   67.8700 C.3    98  ARG98       0.2205
     26  NE        35.9130   33.5660   66.6700 N.pl3  98  ARG98      -0.0865
     27  CZ        35.1230   32.4860   66.6780 C.cat  98  ARG98       0.5346
     28  NH1       34.6650   31.9840   67.8250 N.pl3  98  ARG98       0.1354
     29  NH2       34.7720   31.9070   65.5260 N.pl3  98  ARG98       0.1354
     30  N         36.4380   39.9270   57.0070 N.3   126  ASN126     -0.1225
     31  CA        35.0310   39.5360   57.1560 C.3   126  ASN126      0.1785
     32  C         34.4820   39.8460   58.5430 C.2   126  ASN126      0.2597
     33  O         33.2720   39.9690   58.7120 O.2   126  ASN126     -0.2718
     34  CB        34.8140   38.0610   56.8170 C.3   126  ASN126      0.1169
     35  CG        35.5800   37.1240   57.7400 C.2   126  ASN126      0.2627
     36  OD1       36.7800   37.2940   57.9560 O.2   126  ASN126     -0.2716
     37  ND2       34.8780   36.1560   58.3160 N.am  126  ASN126     -0.0877
     38  N         35.3710   39.9910   59.5250 N.am  127  HIS127     -0.1975
     39  CA        34.9690   40.3740   60.8810 C.3   127  HIS127      0.1656
     40  C         34.7650   41.8680   61.0940 C.2   127  HIS127      0.2291
     41  O         34.3060   42.2560   62.1580 O.2   127  HIS127     -0.2864
     42  CB        35.9420   39.8100   61.9270 C.3   127  HIS127      0.0771
     43  CG        35.5570   38.4530   62.4180 C.ar  127  HIS127      0.0820
     44  ND1       34.6170   38.2760   63.4060 N.ar  127  HIS127     -0.2267
     45  CD2       35.9590   37.2110   62.0520 C.ar  127  HIS127      0.1154
     46  CE1       34.4620   36.9870   63.6420 C.ar  127  HIS127      0.1986
     47  NE2       35.2740   36.3200   62.8420 N.ar  127  HIS127     -0.2212
     48  N         29.0860   39.5560   61.7860 N.3   132  MET132     -0.1245
     49  CA        30.1000   38.9670   62.6620 C.3   132  MET132      0.1570
     50  C         30.2030   39.7080   64.0010 C.2   132  MET132      0.2261
     51  O         30.2340   39.0710   65.0510 O.2   132  MET132     -0.2867
     52  CB        31.4490   38.9000   61.9530 C.3   132  MET132      0.0387
     53  CG        31.4230   38.0530   60.6900 C.3   132  MET132      0.0595
     54  SD        31.2080   36.2980   61.0350 S.3   132  MET132     -0.1393
     55  CE        29.4510   36.0520   60.8040 C.3   132  MET132      0.0692
     56  N         30.2770   37.7210   67.5810 N.3   136  TYR136     -0.1241
     57  CA        31.5990   37.3230   68.0790 C.3   136  TYR136      0.1605
     58  C         32.2960   38.3030   69.0350 C.2   136  TYR136      0.2264
     59  O         33.4590   38.0820   69.3980 O.2   136  TYR136     -0.2867
     60  CB        32.4960   36.9320   66.8960 C.3   136  TYR136      0.0534
     61  CG        32.0160   35.6550   66.2510 C.ar  136  TYR136     -0.0201
     62  CD1       32.2680   34.4150   66.8460 C.ar  136  TYR136     -0.0009
     63  CD2       31.2800   35.6810   65.0690 C.ar  136  TYR136     -0.0009
     64  CE1       31.8130   33.2370   66.2700 C.ar  136  TYR136      0.0417
     65  CE2       30.8210   34.5080   64.4830 C.ar  136  TYR136      0.0417
     66  CZ        31.0790   33.2940   65.0900 C.ar  136  TYR136      0.1957
     67  OH        30.6160   32.1420   64.4980 O.3   136  TYR136     -0.2866
     68  N         36.3580   36.3130   52.4100 N.3   209  TRP209     -0.1241
     69  CA        35.9250   34.9970   52.9280 C.3   209  TRP209      0.1605
     70  C         36.6530   33.7340   52.4170 C.2   209  TRP209      0.2264
     71  O         36.6710   32.7370   53.1290 O.2   209  TRP209     -0.2867
     72  CB        34.4080   34.8300   52.7090 C.3   209  TRP209      0.0550
     73  CG        33.5460   35.5750   53.7100 C.ar  209  TRP209      0.0003
     74  CD1       33.0100   36.8230   53.5690 C.ar  209  TRP209      0.0946
     75  CD2       33.1120   35.0970   54.9890 C.ar  209  TRP209      0.0152
     76  NE1       32.2820   37.1560   54.6850 N.ar  209  TRP209     -0.2442
     77  CE2       32.3260   36.1180   55.5740 C.ar  209  TRP209      0.0810
     78  CE3       33.3250   33.9160   55.7060 C.ar  209  TRP209      0.0012
     79  CZ2       31.7380   35.9860   56.8370 C.ar  209  TRP209      0.0191
     80  CZ3       32.7410   33.7800   56.9680 C.ar  209  TRP209      0.0001
     81  CH2       31.9530   34.8180   57.5190 C.ar  209  TRP209      0.0015
     82  N         32.8160   27.1790   55.2800 N.3   223  ARG223     -0.1245
     83  CA        32.2370   28.3190   55.9870 C.3   223  ARG223      0.1563
     84  C         30.7920   28.6150   55.5860 C.2   223  ARG223      0.2260
     85  O         30.0970   29.3340   56.3020 O.2   223  ARG223     -0.2867
     86  CB        33.0770   29.5710   55.7390 C.3   223  ARG223      0.0307
     87  CG        34.5400   29.4630   56.1490 C.3   223  ARG223      0.0489
     88  CD        35.2730   30.7220   55.7260 C.3   223  ARG223      0.2205
     89  NE        36.7130   30.6520   55.9560 N.pl3 223  ARG223     -0.0865
     90  CZ        37.3160   30.8260   57.1340 C.cat 223  ARG223      0.5346
     91  NH1       36.6240   31.0860   58.2470 N.pl3 223  ARG223      0.1354
     92  NH2       38.6430   30.7530   57.1980 N.pl3 223  ARG223      0.1354
     93  N         43.0800   35.6690   57.5650 N.3   250  HIS250     -0.1241
     94  CA        41.7640   34.9880   57.6640 C.3   250  HIS250      0.1621
     95  C         41.8080   33.7600   58.5900 C.2   250  HIS250      0.2264
     96  O         41.0840   33.7270   59.5950 O.2   250  HIS250     -0.2867
     97  CB        41.2360   34.6280   56.2540 C.3   250  HIS250      0.0745
     98  CG        39.7750   34.2810   56.1630 C.ar  250  HIS250      0.0817
     99  ND1       38.8250   34.7030   57.0640 N.ar  250  HIS250     -0.2268
    100  CD2       39.0970   33.6050   55.2040 C.ar  250  HIS250      0.1154
    101  CE1       37.6370   34.2530   56.7010 C.ar  250  HIS250      0.1986
    102  NE2       37.7740   33.5870   55.5700 N.ar  250  HIS250     -0.2212
    103  N         43.5740   30.8730   61.2170 N.3   252  VAL252     -0.1245
    104  CA        44.5660   30.5750   62.2480 C.3   252  VAL252      0.1561
    105  C         45.5940   29.6260   61.6420 C.2   252  VAL252      0.2260
    106  O         45.2280   28.6900   60.9260 O.2   252  VAL252     -0.2867
    107  CB        43.9830   29.8390   63.4820 C.3   252  VAL252      0.0252
    108  CG1       45.0110   29.8260   64.6110 C.3   252  VAL252      0.0019
    109  CG2       42.6870   30.4610   63.9770 C.3   252  VAL252      0.0019
    110  N         49.1830   35.4690   59.9580 N.3   269  PHE269     -0.1241
    111  CA        48.2170   35.4710   61.0630 C.3   269  PHE269      0.1605
    112  C         48.9470   36.0250   62.2790 C.2   269  PHE269      0.2264
    113  O         50.0040   35.4960   62.6490 O.2   269  PHE269     -0.2867
    114  CB        47.7110   34.0460   61.3160 C.3   269  PHE269      0.0534
    115  CG        46.5720   33.9600   62.3000 C.ar  269  PHE269     -0.0203
    116  CD1       45.2770   34.2820   61.9110 C.ar  269  PHE269     -0.0042
    117  CD2       46.7880   33.5410   63.6080 C.ar  269  PHE269     -0.0042
    118  CE1       44.2280   34.2110   62.8090 C.ar  269  PHE269     -0.0003
    119  CE2       45.7400   33.4640   64.5110 C.ar  269  PHE269     -0.0003
    120  CZ        44.4560   33.7950   64.1080 C.ar  269  PHE269     -0.0000
    121  N         45.6760   32.1640   69.9820 N.3   274  TYR274     -0.1241
    122  CA        44.3650   32.6800   69.6100 C.3   274  TYR274      0.1605
    123  C         43.2750   32.2340   70.5870 C.2   274  TYR274      0.2264
    124  O         43.1780   31.0470   70.9010 O.2   274  TYR274     -0.2867
    125  CB        44.0520   32.2090   68.1880 C.3   274  TYR274      0.0534
    126  CG        42.7900   32.7510   67.5650 C.ar  274  TYR274     -0.0201
    127  CD1       42.4550   34.1050   67.6490 C.ar  274  TYR274     -0.0009
    128  CD2       41.9530   31.9200   66.8380 C.ar  274  TYR274     -0.0009
    129  CE1       41.3030   34.5920   67.0470 C.ar  274  TYR274      0.0417
    130  CE2       40.8020   32.4000   66.2340 C.ar  274  TYR274      0.0417
    131  CZ        40.4850   33.7330   66.3370 C.ar  274  TYR274      0.1957
    132  OH        39.3420   34.1980   65.7440 O.3   274  TYR274     -0.2866
@<TRIPOS>BOND
     1    68    69    1
     2    70    69    1
     3    70    71    2
     4    72    69    1
     5    72    73    1
     6    74    73   ar
     7    74    76   ar
     8    73    75   ar
     9    76    77   ar
    10    75    77   ar
    11    75    78   ar
    12   100   102   ar
    13   100    98   ar
    14    82    83    1
    15   102   101   ar
    16    77    79   ar
    17    84    83    1
    18    84    85    2
    19    78    80   ar
    20    88    89    1
    21    88    87    1
    22    86    83    1
    23    86    87    1
    24    89    90    2
    25    98    97    1
    26    98    99   ar
    27    97    94    1
    28   101    99   ar
    29    34    31    1
    30    34    35    1
    31    79    81   ar
    32    80    81   ar
    33    30    31    1
    34    90    92    1
    35    90    91    1
    36    31    32    1
    37    93    94    1
    38    94    95    1
    39    35    36    2
    40    35    37   am
    41    32    33    2
    42    32    38   am
    43    95    96    2
    44    38    39    1
    45    17    16   ar
    46   110   111    1
    47    11    12    1
    48    18    16   ar
    49    16    15    1
    50    53    54    1
    51    53    52    1
    52    55    54    1
    53    39    40    1
    54    39    42    1
    55   106   105    2
    56   111   114    1
    57   111   112    1
    58    40    41    2
    59   103   104    1
    60    15    12    1
    61   114   115    1
    62    12    13    1
    63   105   104    1
    64    48    49    1
    65   116   115   ar
    66   116   118   ar
    67    42    43    1
    68    52    49    1
    69    45    43   ar
    70    45    47   ar
    71   104   107    1
    72   112   113    2
    73   115   117   ar
    74    43    44   ar
    75    13    14    2
    76    49    50    1
    77   118   120   ar
    78    47    46   ar
    79    44    46   ar
    80   107   109    1
    81   107   108    1
    82    10     9   ar
    83    10     8   ar
    84   117   119   ar
    85     9     7   ar
    86    50    51    2
    87   120   119   ar
    88     8     6   ar
    89    65    63   ar
    90    65    66   ar
    91    67    66    1
    92     7     6   ar
    93    63    61   ar
    94    66    64   ar
    95     6     5    1
    96    29    27    1
    97   132   131    1
    98     1     2    1
    99   130   131   ar
   100   130   128   ar
   101    61    62   ar
   102    61    60    1
   103    64    62   ar
   104   131   129   ar
   105     5     2    1
   106    26    27    2
   107    26    25    1
   108    27    28    1
   109     2     3    1
   110   128   126   ar
   111    60    57    1
   112   129   127   ar
   113    24    25    1
   114    24    23    1
   115   126   127   ar
   116   126   125    1
   117    56    57    1
   118    57    58    1
   119   125   122    1
   120     3     4    2
   121    23    20    1
   122    19    20    1
   123    58    59    2
   124   122   121    1
   125   122   123    1
   126    20    21    1
   127   123   124    2
   128    21    22    2
