@<TRIPOS>MOLECULE
tmp/5ui2A00.pdb
 91 88 0 0 0
SMALL
GASTEIGER

@<TRIPOS>ATOM
      1  N         51.7490  -10.2440    8.9890 N.3    53  ALA53      -0.1231
      2  CA        52.9530   -9.7180    8.3580 C.3    53  ALA53       0.1694
      3  C         53.4410   -8.5330    9.1970 C.2    53  ALA53       0.2592
      4  O         52.6860   -7.5790    9.4140 O.2    53  ALA53      -0.2718
      5  CB        52.6550   -9.2740    6.9350 C.3    53  ALA53       0.0304
      6  N         54.6840   -8.6240    9.7110 N.am   54  ALA54      -0.1966
      7  CA        55.3070   -7.5860   10.5380 C.3    54  ALA54       0.1713
      8  C         55.3860   -6.2440    9.7780 C.2    54  ALA54       0.2458
      9  O         55.6700   -6.2500    8.5740 O.2    54  ALA54      -0.2730
     10  CB        56.6950   -8.0290   10.9760 C.3    54  ALA54       0.0333
     11  N         55.0750   -5.0960   10.4280 N.am   55  PRO55      -0.2716
     12  CA        55.1280   -3.8180    9.7070 C.3    55  PRO55       0.1536
     13  C         56.5490   -3.3520    9.4310 C.2    55  PRO55       0.2599
     14  O         57.4440   -3.5710   10.2500 O.2    55  PRO55      -0.2715
     15  CB        54.3910   -2.8390   10.6340 C.3    55  PRO55       0.0310
     16  CG        53.9380   -3.6290   11.8120 C.3    55  PRO55       0.0237
     17  CD        54.7210   -4.8890   11.8430 C.3    55  PRO55       0.0939
     18  N         56.7350   -2.7090    8.2780 N.am   56  GLY56      -0.1955
     19  CA        58.0260   -2.1630    7.8720 C.3    56  GLY56       0.1869
     20  C         58.3760   -0.8920    8.6230 C.2    56  GLY56       0.2309
     21  O         57.5410   -0.3530    9.3610 O.2    56  GLY56      -0.2863
     22  N         56.1780    2.3230    8.2940 N.3    59  ASN59      -0.1240
     23  CA        54.9620    2.3460    9.1050 C.3    59  ASN59       0.1653
     24  C         55.3200    2.6490   10.5630 C.2    59  ASN59       0.2266
     25  O         54.6900    3.5120   11.1830 O.2    59  ASN59      -0.2867
     26  CB        54.2090    1.0000    8.9950 C.3    59  ASN59       0.1155
     27  CG        52.8530    0.9430    9.6760 C.2    59  ASN59       0.2627
     28  OD1       52.2540    1.9570   10.0420 O.2    59  ASN59      -0.2716
     29  ND2       52.3140   -0.2540    9.8250 N.am   59  ASN59      -0.0877
     30  N         46.4230    1.7300    9.4620 N.3   103  ASN103     -0.1240
     31  CA        47.6820    0.9840    9.4000 C.3   103  ASN103      0.1653
     32  C         48.6950    1.3580   10.4880 C.2   103  ASN103      0.2266
     33  O         49.3590    0.4570   11.0050 O.2   103  ASN103     -0.2867
     34  CB        48.2980    1.0200    8.0080 C.3   103  ASN103      0.1155
     35  CG        47.5620    0.1920    6.9770 C.2   103  ASN103      0.2627
     36  OD1       46.7340   -0.6810    7.2850 O.2   103  ASN103     -0.2716
     37  ND2       47.8640    0.4430    5.7130 N.am  103  ASN103     -0.0877
     38  N         50.7660    6.9640    6.1390 N.3   175  GLU175     -0.1245
     39  CA        51.9690    6.4440    5.4700 C.3   175  GLU175      0.1567
     40  C         52.2010    7.1500    4.1250 C.2   175  GLU175      0.2260
     41  O         51.2240    7.5440    3.4870 O.2   175  GLU175     -0.2867
     42  CB        51.8280    4.9390    5.1880 C.3   175  GLU175      0.0388
     43  CG        51.5020    4.0880    6.3910 C.3   175  GLU175      0.1160
     44  CD        51.3030    2.6370    6.0160 C.2   175  GLU175      0.3649
     45  OE1       52.2790    1.8660    6.1380 O.co2 175  GLU175     -0.2457
     46  OE2       50.1950    2.2740    5.5590 O.co2 175  GLU175     -0.2457
     47  N         53.1050    5.3780   -2.0720 N.3   178  VAL178     -0.1245
     48  CA        54.1320    4.7750   -2.9260 C.3   178  VAL178      0.1561
     49  C         53.6800    4.9360   -4.3940 C.2   178  VAL178      0.2260
     50  O         52.5340    4.5950   -4.6990 O.2   178  VAL178     -0.2867
     51  CB        54.4220    3.2880   -2.5520 C.3   178  VAL178      0.0252
     52  CG1       55.5560    2.7070   -3.4000 C.3   178  VAL178      0.0019
     53  CG2       54.7390    3.1370   -1.0630 C.3   178  VAL178      0.0019
     54  N         46.4190    1.0420    0.2730 N.3   247  GLN247     -0.1231
     55  CA        47.7030    0.6610   -0.3240 C.3   247  GLN247      0.1698
     56  C         47.9950   -0.8270   -0.1430 C.2   247  GLN247      0.2592
     57  O         47.7680   -1.3740    0.9360 O.2   247  GLN247     -0.2718
     58  CB        48.8610    1.5080    0.2330 C.3   247  GLN247      0.0381
     59  CG        48.7890    2.9880   -0.1390 C.3   247  GLN247      0.0905
     60  CD        50.0940    3.6840    0.1460 C.2   247  GLN247      0.2608
     61  OE1       51.0340    3.6490   -0.6570 O.2   247  GLN247     -0.2717
     62  NE2       50.1830    4.3320    1.2970 N.am  247  GLN247     -0.0878
     63  N         48.4960   -1.4710   -1.2110 N.am  248  ASN248     -0.1974
     64  CA        48.9080   -2.8830   -1.2510 C.3   248  ASN248      0.1688
     65  C         47.8230   -3.9480   -1.0550 C.2   248  ASN248      0.2292
     66  O         48.1140   -5.0620   -0.6100 O.2   248  ASN248     -0.2864
     67  CB        50.1810   -3.1390   -0.4170 C.3   248  ASN248      0.1181
     68  CG        51.3330   -2.2570   -0.8260 C.2   248  ASN248      0.2629
     69  OD1       51.5990   -2.0490   -2.0170 O.2   248  ASN248     -0.2716
     70  ND2       52.0280   -1.7030    0.1520 N.am  248  ASN248     -0.0877
     71  N         47.4550   -6.6280    3.0060 N.3   277  PRO277     -0.2102
     72  CA        48.9120   -6.7960    3.2020 C.3   277  PRO277      0.1504
     73  C         49.2920   -7.2490    4.6220 C.2   277  PRO277      0.2575
     74  O         50.3950   -7.7520    4.8240 O.2   277  PRO277     -0.2718
     75  CB        49.4780   -5.4150    2.8660 C.3   277  PRO277      0.0282
     76  CG        48.3390   -4.4760    3.0970 C.3   277  PRO277      0.0208
     77  CD        47.1180   -5.2260    2.6800 C.3   277  PRO277      0.0893
     78  N         48.3590   -7.1180    5.5870 N.am  278  TRP278     -0.1977
     79  CA        48.5570   -7.5310    6.9730 C.3   278  TRP278      0.1640
     80  C         48.6380   -9.0430    7.1460 C.2   278  TRP278      0.2290
     81  O         49.1980   -9.5030    8.1350 O.2   278  TRP278     -0.2864
     82  CB        47.4710   -6.9290    7.8770 C.3   278  TRP278      0.0576
     83  CG        47.6760   -5.4680    8.1170 C.ar  278  TRP278      0.0006
     84  CD1       47.0400   -4.4370    7.4920 C.ar  278  TRP278      0.0946
     85  CD2       48.6590   -4.8730    8.9770 C.ar  278  TRP278      0.0152
     86  NE1       47.5320   -3.2330    7.9420 N.ar  278  TRP278     -0.2442
     87  CE2       48.5400   -3.4720    8.8430 C.ar  278  TRP278      0.0810
     88  CE3       49.6330   -5.3900    9.8490 C.ar  278  TRP278      0.0012
     89  CZ2       49.3530   -2.5790    9.5560 C.ar  278  TRP278      0.0191
     90  CZ3       50.4320   -4.5050   10.5600 C.ar  278  TRP278      0.0001
     91  CH2       50.2870   -3.1180   10.4120 C.ar  278  TRP278      0.0015
@<TRIPOS>BOND
     1    50    49    2
     2    49    48    1
     3    52    51    1
     4    48    51    1
     5    48    47    1
     6    51    53    1
     7    69    68    2
     8    64    63    1
     9    64    65    1
    10    64    67    1
    11    63    56   am
    12    65    66    2
    13    68    67    1
    14    68    70   am
    15    61    60    2
    16    55    56    1
    17    55    58    1
    18    55    54    1
    19    56    57    2
    20    59    60    1
    21    59    58    1
    22    60    62   am
    23    77    71    1
    24    77    76    1
    25    75    76    1
    26    75    72    1
    27    71    72    1
    28    72    73    1
    29    41    40    2
    30    40    39    1
    31    73    74    2
    32    73    78   am
    33    42    39    1
    34    42    43    1
    35    39    38    1
    36    46    44   ar
    37    78    79    1
    38    37    35   am
    39    44    45   ar
    40    44    43    1
    41     5     2    1
    42    79    80    1
    43    79    82    1
    44    35    36    2
    45    35    34    1
    46    80    81    2
    47    84    86   ar
    48    84    83   ar
    49    19    18    1
    50    19    20    1
    51    82    83    1
    52    86    87   ar
    53    34    31    1
    54    83    85   ar
    55    18    13   am
    56    22    23    1
    57     2     1    1
    58     2     3    1
    59     9     8    2
    60    20    21    2
    61    87    85   ar
    62    87    89   ar
    63    85    88   ar
    64    26    23    1
    65    26    27    1
    66    23    24    1
    67     3     4    2
    68     3     6   am
    69    31    30    1
    70    31    32    1
    71    13    12    1
    72    13    14    2
    73    89    91   ar
    74    27    29   am
    75    27    28    2
    76    12    11    1
    77    12    15    1
    78     6     7    1
    79     8    11   am
    80     8     7    1
    81    88    90   ar
    82    91    90   ar
    83    11    17    1
    84    32    33    2
    85     7    10    1
    86    24    25    2
    87    15    16    1
    88    16    17    1
