@<TRIPOS>MOLECULE
tmp/5ui3D00.pdb
 130 118 0 0 0
SMALL
GASTEIGER

@<TRIPOS>ATOM
      1  N          2.8450    2.4580    7.6490 N.3    14  ALA14      -0.1245
      2  CA         3.9250    2.8140    6.7460 C.3    14  ALA14       0.1562
      3  C          4.2930    1.5090    6.0520 C.2    14  ALA14       0.2260
      4  O          5.1050    0.7290    6.5510 O.2    14  ALA14      -0.2867
      5  CB         5.1060    3.4150    7.4860 C.3    14  ALA14       0.0290
      6  N          1.0730    4.9990    4.3360 N.3    46  ILE46      -0.1245
      7  CA         2.1590    5.8440    3.8350 C.3    46  ILE46       0.1561
      8  C          2.8320    5.0150    2.7580 C.2    46  ILE46       0.2260
      9  O          3.3540    3.9210    3.0430 O.2    46  ILE46      -0.2867
     10  CB         3.2220    6.1830    4.8950 C.3    46  ILE46       0.0252
     11  CG1        2.5960    6.7890    6.1610 C.3    46  ILE46       0.0019
     12  CG2        4.2930    7.1030    4.2890 C.3    46  ILE46       0.0019
     13  CD1        1.7570    8.0280    5.9510 C.3    46  ILE46       0.0001
     14  N          7.2810    5.5340    2.4650 N.3    49  GLY49      -0.1210
     15  CA         7.8200    6.2250    3.6320 C.3    49  GLY49       0.1956
     16  C          9.1890    5.6470    3.9730 C.2    49  GLY49       0.2613
     17  O          9.7630    4.8680    3.1960 O.2    49  GLY49      -0.2717
     18  N          9.7100    6.0080    5.1480 N.am   50  THR50      -0.1938
     19  CA        10.9950    5.4790    5.5770 C.3    50  THR50       0.2028
     20  C         10.9500    3.9390    5.5670 C.2    50  THR50       0.2642
     21  O         11.8200    3.2950    4.9880 O.2    50  THR50      -0.2714
     22  CB        11.3910    5.9760    6.9730 C.3    50  THR50       0.1808
     23  OG1       11.1460    7.3870    7.0810 O.3    50  THR50      -0.2208
     24  CG2       12.8650    5.7090    7.2440 C.3    50  THR50       0.0379
     25  N          9.9130    3.3900    6.1950 N.am   51  THR51      -0.1950
     26  CA         9.6650    1.9360    6.2760 C.3    51  THR51       0.1897
     27  C          9.5050    1.2920    4.9050 C.2    51  THR51       0.2313
     28  O          9.9660    0.1540    4.6690 O.2    51  THR51      -0.2863
     29  CB         8.4080    1.6460    7.1100 C.3    51  THR51       0.1794
     30  OG1        8.5020    2.3450    8.3540 O.3    51  THR51      -0.2208
     31  CG2        8.2170    0.1700    7.3750 C.3    51  THR51       0.0378
     32  N          3.1530   12.9960    2.9880 N.3   107  LEU107     -0.1245
     33  CA         3.9960   13.0270    4.1870 C.3   107  LEU107      0.1561
     34  C          5.2260   13.8780    3.8440 C.2   107  LEU107      0.2260
     35  O          5.8600   13.6510    2.8120 O.2   107  LEU107     -0.2867
     36  CB         4.4180   11.6100    4.6100 C.3   107  LEU107      0.0270
     37  CG         5.2310   11.4630    5.9120 C.3   107  LEU107      0.0019
     38  CD1        4.4150   11.9260    7.1000 C.3   107  LEU107      0.0001
     39  CD2        5.6850   10.0270    6.1400 C.3   107  LEU107      0.0001
     40  N          6.5930   15.5170    9.2280 N.3   137  TYR137     -0.1241
     41  CA         7.3050   14.3650    9.8000 C.3   137  TYR137      0.1605
     42  C          8.6000   14.8140   10.4910 C.2   137  TYR137      0.2264
     43  O          9.5290   15.3280    9.8490 O.2   137  TYR137     -0.2867
     44  CB         7.5430   13.3830    8.6680 C.3   137  TYR137      0.0534
     45  CG         8.2400   12.0680    8.9380 C.ar  137  TYR137     -0.0201
     46  CD1        8.4460   11.5650   10.2220 C.ar  137  TYR137     -0.0009
     47  CD2        8.6700   11.3000    7.8580 C.ar  137  TYR137     -0.0009
     48  CE1        9.0830   10.3360   10.4030 C.ar  137  TYR137      0.0417
     49  CE2        9.2940   10.0940    8.0390 C.ar  137  TYR137      0.0417
     50  CZ         9.4990    9.6170    9.3190 C.ar  137  TYR137      0.1957
     51  OH        10.1270    8.4070    9.4460 O.3   137  TYR137     -0.2866
     52  N         11.6830   13.5640   12.7670 N.3   139  VAL139     -0.1245
     53  CA        12.4570   12.3980   13.2150 C.3   139  VAL139      0.1561
     54  C         13.9510   12.7780   13.2120 C.2   139  VAL139      0.2260
     55  O         14.7270   12.3470   12.3560 O.2   139  VAL139     -0.2867
     56  CB        12.1170   11.1250   12.3990 C.3   139  VAL139      0.0252
     57  CG1       12.3640   11.2970   10.8950 C.3   139  VAL139      0.0019
     58  CG2       12.8360    9.9110   12.9660 C.3   139  VAL139      0.0019
     59  N         17.0590   10.5540   12.5860 N.3   142  ARG142     -0.1245
     60  CA        17.3930   10.2960   11.1850 C.3   142  ARG142      0.1563
     61  C         17.8190   11.5240   10.3770 C.2   142  ARG142      0.2260
     62  O         18.6530   11.3900    9.5060 O.2   142  ARG142     -0.2867
     63  CB        16.2070    9.6480   10.4700 C.3   142  ARG142      0.0307
     64  CG        15.8440    8.2810   10.9810 C.3   142  ARG142      0.0489
     65  CD        14.6250    7.7720   10.2350 C.3   142  ARG142      0.2205
     66  NE        14.2590    6.4050   10.6150 N.pl3 142  ARG142     -0.0865
     67  CZ        14.8370    5.3020   10.1540 C.cat 142  ARG142      0.5346
     68  NH1       15.8390    5.3620    9.2580 N.pl3 142  ARG142      0.1354
     69  NH2       14.3880    4.1160   10.5630 N.pl3 142  ARG142      0.1354
     70  N          3.6840   13.7330   12.3270 N.3   165  LYS165     -0.1245
     71  CA         4.1640   12.3940   12.6170 C.3   165  LYS165      0.1561
     72  C          5.3740   12.6760   13.4960 C.2   165  LYS165      0.2260
     73  O          6.4670   13.0230   12.9990 O.2   165  LYS165     -0.2867
     74  CB         4.5290   11.6030   11.3500 C.3   165  LYS165      0.0271
     75  CG         5.0930   10.2020   11.6090 C.3   165  LYS165      0.0035
     76  CD         5.4970    9.4390   10.3370 C.3   165  LYS165      0.0206
     77  CE         6.2180    8.1290   10.6560 C.3   165  LYS165      0.1093
     78  NZ         6.7150    7.2310    9.5350 N.3   165  LYS165     -0.1314
     79  N          8.2270   11.7990   16.2650 N.3   167  CYS167     -0.1235
     80  CA         9.0520   10.6870   16.7670 C.3   167  CYS167      0.1677
     81  C          9.8930   11.0060   18.0050 C.2   167  CYS167      0.2270
     82  O         10.5930   10.1230   18.4890 O.2   167  CYS167     -0.2867
     83  CB         9.9490   10.1520   15.6430 C.3   167  CYS167      0.0956
     84  SG         9.0220    9.5040   14.2270 S.3   167  CYS167     -0.0801
     85  N          4.9560    8.3460   15.7970 N.3   186  GLY186     -0.1210
     86  CA         5.7790    7.5440   14.9000 C.3   186  GLY186      0.1956
     87  C          6.5180    6.3880   15.5430 C.2   186  GLY186      0.2611
     88  O          7.2710    5.6960   14.8520 O.2   186  GLY186     -0.2717
     89  N          6.3130    6.1570   16.8440 N.am  187  ASN187     -0.1974
     90  CA         7.0280    5.0950   17.5840 C.3   187  ASN187      0.1688
     91  C          6.0380    4.0690   18.1520 C.2   187  ASN187      0.2292
     92  O          5.3120    4.3560   19.1210 O.2   187  ASN187     -0.2864
     93  CB         7.8530    5.7110   18.7280 C.3   187  ASN187      0.1181
     94  CG         8.9670    6.6130   18.2230 C.2   187  ASN187      0.2629
     95  OD1        9.7100    6.2260   17.3190 O.2   187  ASN187     -0.2716
     96  ND2        9.0730    7.8150   18.7820 N.am  187  ASN187     -0.0877
     97  N          1.2900    6.1130   13.2110 N.3   204  ILE204     -0.1245
     98  CA         1.8030    5.7610   11.8930 C.3   204  ILE204      0.1561
     99  C          2.8710    4.6950   12.1600 C.2   204  ILE204      0.2260
    100  O          3.9460    4.9840   12.6740 O.2   204  ILE204     -0.2867
    101  CB         2.3270    6.9980   11.1340 C.3   204  ILE204      0.0252
    102  CG1        1.1430    7.9320   10.8000 C.3   204  ILE204      0.0019
    103  CG2        3.0470    6.6100    9.8580 C.3   204  ILE204      0.0019
    104  CD1        1.5280    9.3480   10.4540 C.3   204  ILE204      0.0001
    105  N          5.0160    0.8330   12.0440 N.3   206  VAL206     -0.1245
    106  CA         5.8230   -0.1800   11.3830 C.3   206  VAL206      0.1561
    107  C          5.2730   -1.5770   11.6580 C.2   206  VAL206      0.2260
    108  O          5.0620   -2.3820   10.7560 O.2   206  VAL206     -0.2867
    109  CB         7.2680   -0.1010   11.9040 C.3   206  VAL206      0.0252
    110  CG1        8.1350   -1.2570   11.4120 C.3   206  VAL206      0.0019
    111  CG2        7.8650    1.2530   11.5540 C.3   206  VAL206      0.0019
    112  N         13.0770   -3.0940   16.0800 N.3   239  PHE239     -0.1241
    113  CA        14.0380   -1.9990   15.9830 C.3   239  PHE239      0.1605
    114  C         15.4190   -2.3580   16.5230 C.2   239  PHE239      0.2264
    115  O         16.1860   -1.4700   16.8570 O.2   239  PHE239     -0.2867
    116  CB        13.4620   -0.7600   16.6810 C.3   239  PHE239      0.0534
    117  CG        12.3010   -0.1690   15.9490 C.ar  239  PHE239     -0.0203
    118  CD1       11.0280   -0.7390   16.0550 C.ar  239  PHE239     -0.0042
    119  CD2       12.4790    0.9490   15.1280 C.ar  239  PHE239     -0.0042
    120  CE1        9.9560   -0.1980   15.3510 C.ar  239  PHE239     -0.0003
    121  CE2       11.4090    1.4880   14.4250 C.ar  239  PHE239     -0.0003
    122  CZ        10.1550    0.9160   14.5400 C.ar  239  PHE239     -0.0000
    123  N         15.0930    0.3330   11.4080 N.3   243  ASN243     -0.1240
    124  CA        13.9350    0.0640   10.5620 C.3   243  ASN243      0.1653
    125  C         14.2680    0.5380    9.1300 C.2   243  ASN243      0.2266
    126  O         14.8170    1.6430    8.9750 O.2   243  ASN243     -0.2867
    127  CB        12.7300    0.8100   11.1500 C.3   243  ASN243      0.1155
    128  CG        11.4960    0.7210   10.2900 C.2   243  ASN243      0.2627
    129  OD1       11.0200   -0.3710    9.9800 O.2   243  ASN243     -0.2716
    130  ND2       10.9700    1.8800    9.8940 N.am  243  ASN243     -0.0877
@<TRIPOS>BOND
     1    14    15    1
     2     8     9    2
     3     8     7    1
     4    35    34    2
     5    32    33    1
     6    17    16    2
     7    15    16    1
     8     7     6    1
     9     7    10    1
    10    34    33    1
    11    16    18   am
    12    33    36    1
    13    12    10    1
    14    36    37    1
    15    28    27    2
    16    10    11    1
    17    27    26    1
    18    21    20    2
    19    18    19    1
    20    20    19    1
    21    20    25   am
    22    19    22    1
    23    37    39    1
    24    37    38    1
    25    13    11    1
    26     3     4    2
    27     3     2    1
    28    25    26    1
    29    26    29    1
    30     2     5    1
    31     2     1    1
    32    22    23    1
    33    22    24    1
    34    29    31    1
    35    29    30    1
    36    47    49   ar
    37    47    45   ar
    38    49    50   ar
    39    44    45    1
    40    44    41    1
    41    45    46   ar
    42   126   125    2
    43   125   124    1
    44    40    41    1
    45    68    67    1
    46    50    51    1
    47    50    48   ar
    48    62    61    2
    49    78    77    1
    50    41    42    1
    51    43    42    2
    52   103   101    1
    53   130   128   am
    54   129   128    2
    55    67    69    1
    56    67    66    2
    57    46    48   ar
    58    65    66    1
    59    65    64    1
    60   128   127    1
    61    76    77    1
    62    76    75    1
    63    61    60    1
    64   104   102    1
    65    63    64    1
    66    63    60    1
    67   124   127    1
    68   124   123    1
    69   108   107    2
    70   102   101    1
    71    57    56    1
    72   101    98    1
    73    60    59    1
    74    74    75    1
    75    74    71    1
    76   106   107    1
    77   106   109    1
    78   106   105    1
    79   110   109    1
    80   111   109    1
    81    98    99    1
    82    98    97    1
    83    99   100    2
    84    70    71    1
    85    55    54    2
    86    56    58    1
    87    56    53    1
    88    71    72    1
    89    52    53    1
    90    73    72    2
    91    54    53    1
    92    84    83    1
    93   121   122   ar
    94   121   119   ar
    95   122   120   ar
    96    88    87    2
    97    86    87    1
    98    86    85    1
    99   119   117   ar
   100   120   118   ar
   101    87    89   am
   102    83    80    1
   103   117   118   ar
   104   117   116    1
   105   113   112    1
   106   113   114    1
   107   113   116    1
   108    79    80    1
   109   114   115    2
   110    80    81    1
   111    89    90    1
   112    95    94    2
   113    90    91    1
   114    90    93    1
   115    81    82    2
   116    91    92    2
   117    94    93    1
   118    94    96   am
