@<TRIPOS>MOLECULE
tmp/5ui4C00.pdb
 158 151 0 0 0
SMALL
GASTEIGER

@<TRIPOS>ATOM
      1  N        -30.2890   84.9110   49.4680 N.3    10  LYS10      -0.1245
      2  CA       -29.7070   85.7040   50.5460 C.3    10  LYS10       0.1561
      3  C        -30.4270   87.0420   50.7260 C.2    10  LYS10       0.2260
      4  O        -31.1610   87.4780   49.8360 O.2    10  LYS10      -0.2867
      5  CB       -28.2100   85.8890   50.2830 C.3    10  LYS10       0.0271
      6  CG       -27.3390   84.7740   50.8410 C.3    10  LYS10       0.0035
      7  CD       -26.7990   83.8250   49.7990 C.3    10  LYS10       0.0206
      8  CE       -25.2780   83.6910   49.8150 C.3    10  LYS10       0.1093
      9  NZ       -24.8220   82.4010   50.3990 N.3    10  LYS10      -0.1314
     10  N        -23.6850   76.6530   57.6350 N.3    50  TYR50      -0.1241
     11  CA       -22.3280   76.9620   57.1710 C.3    50  TYR50       0.1605
     12  C        -21.2300   76.3670   58.0810 C.2    50  TYR50       0.2264
     13  O        -20.1720   76.9790   58.2680 O.2    50  TYR50      -0.2867
     14  CB       -22.1510   78.4890   57.0440 C.3    50  TYR50       0.0534
     15  CG       -22.9980   79.1430   55.9670 C.ar   50  TYR50      -0.0201
     16  CD1      -22.8710   78.7650   54.6310 C.ar   50  TYR50      -0.0009
     17  CD2      -23.9060   80.1620   56.2770 C.ar   50  TYR50      -0.0009
     18  CE1      -23.6270   79.3680   53.6400 C.ar   50  TYR50       0.0417
     19  CE2      -24.6680   80.7680   55.2890 C.ar   50  TYR50       0.0417
     20  CZ       -24.5240   80.3700   53.9740 C.ar   50  TYR50       0.1957
     21  OH       -25.2780   80.9580   52.9950 O.3    50  TYR50      -0.2866
     22  N        -17.5420   75.9910   57.0450 N.3    53  LEU53      -0.1245
     23  CA       -16.8020   77.2540   57.0250 C.3    53  LEU53       0.1561
     24  C        -16.5830   77.8750   58.4070 C.2    53  LEU53       0.2260
     25  O        -16.1450   79.0190   58.5010 O.2    53  LEU53      -0.2867
     26  CB       -17.5450   78.2580   56.1410 C.3    53  LEU53       0.0270
     27  CG       -17.9590   77.7720   54.7490 C.3    53  LEU53       0.0019
     28  CD1      -18.8100   78.8310   54.0630 C.3    53  LEU53       0.0001
     29  CD2      -16.7420   77.4410   53.9060 C.3    53  LEU53       0.0001
     30  N        -13.1660   79.9640   59.3260 N.3    56  ARG56      -0.1245
     31  CA       -12.6840   80.8010   58.2250 C.3    56  ARG56       0.1563
     32  C        -12.7330   82.2490   58.6860 C.2    56  ARG56       0.2260
     33  O        -13.5650   82.5880   59.5360 O.2    56  ARG56      -0.2867
     34  CB       -13.5840   80.6480   57.0100 C.3    56  ARG56       0.0307
     35  CG       -13.6940   79.2310   56.4790 C.3    56  ARG56       0.0489
     36  CD       -12.3830   78.6680   55.9550 C.3    56  ARG56       0.2205
     37  NE       -12.6640   78.0450   54.6770 N.pl3  56  ARG56      -0.0865
     38  CZ       -12.9800   78.6670   53.5690 C.cat  56  ARG56       0.5346
     39  NH1      -13.2680   77.9390   52.5120 N.pl3  56  ARG56       0.1354
     40  NH2      -12.9860   79.9790   53.5060 N.pl3  56  ARG56       0.1354
     41  N        -13.8580   84.9880   57.4030 N.3    58  PHE58      -0.1241
     42  CA       -15.1250   85.6790   57.1040 C.3    58  PHE58       0.1605
     43  C        -16.3560   85.1550   57.8600 C.2    58  PHE58       0.2264
     44  O        -17.3890   85.8260   57.8530 O.2    58  PHE58      -0.2867
     45  CB       -15.4160   85.6550   55.5910 C.3    58  PHE58       0.0534
     46  CG       -15.4620   84.2700   54.9870 C.ar   58  PHE58      -0.0203
     47  CD1      -16.5610   83.4340   55.1750 C.ar   58  PHE58      -0.0042
     48  CD2      -14.4000   83.8070   54.2170 C.ar   58  PHE58      -0.0042
     49  CE1      -16.5910   82.1660   54.6190 C.ar   58  PHE58      -0.0003
     50  CE2      -14.4340   82.5450   53.6530 C.ar   58  PHE58      -0.0003
     51  CZ       -15.5270   81.7180   53.8540 C.ar   58  PHE58      -0.0000
     52  N        -18.6990   87.4340   59.9660 N.3    61  GLY61      -0.1210
     53  CA       -19.3660   88.3960   59.0890 C.3    61  GLY61       0.1956
     54  C        -20.3950   87.7860   58.1530 C.2    61  GLY61       0.2611
     55  O        -21.3920   88.4360   57.8350 O.2    61  GLY61      -0.2717
     56  N        -20.1460   86.5480   57.7120 N.am   62  LEU62      -0.1979
     57  CA       -21.1210   85.7600   56.9420 C.3    62  LEU62       0.1596
     58  C        -22.4190   85.5380   57.7340 C.2    62  LEU62       0.2287
     59  O        -23.5140   85.8090   57.2320 O.2    62  LEU62      -0.2864
     60  CB       -20.5290   84.3990   56.5380 C.3    62  LEU62       0.0297
     61  CG       -21.4380   83.3880   55.8170 C.3    62  LEU62       0.0022
     62  CD1      -21.9080   83.9270   54.4760 C.3    62  LEU62       0.0001
     63  CD2      -20.7230   82.0580   55.6410 C.3    62  LEU62       0.0001
     64  N        -24.3050   88.9410   58.1800 N.3    65  TYR65      -0.1241
     65  CA       -24.9090   89.2860   56.8810 C.3    65  TYR65       0.1605
     66  C        -26.1720   88.4800   56.5890 C.2    65  TYR65       0.2264
     67  O        -27.1840   89.0400   56.1730 O.2    65  TYR65      -0.2867
     68  CB       -23.8470   89.1090   55.7730 C.3    65  TYR65       0.0534
     69  CG       -24.3030   88.7270   54.3720 C.ar   65  TYR65      -0.0201
     70  CD1      -23.7950   87.5780   53.7570 C.ar   65  TYR65      -0.0009
     71  CD2      -25.1920   89.5250   53.6410 C.ar   65  TYR65      -0.0009
     72  CE1      -24.1760   87.2220   52.4780 C.ar   65  TYR65       0.0417
     73  CE2      -25.5760   89.1690   52.3520 C.ar   65  TYR65       0.0417
     74  CZ       -25.0610   88.0160   51.7760 C.ar   65  TYR65       0.1957
     75  OH       -25.4110   87.6340   50.5010 O.3    65  TYR65      -0.2866
     76  N        -19.1190   80.6600   43.2560 N.3    92  THR92      -0.1203
     77  CA       -19.4520   81.2840   44.5440 C.3    92  THR92       0.1994
     78  C        -18.9450   82.7200   44.6190 C.2    92  THR92       0.2617
     79  O        -19.6580   83.6030   45.0870 O.2    92  THR92      -0.2717
     80  CB       -18.9060   80.4610   45.7310 C.3    92  THR92       0.1784
     81  OG1      -19.3610   79.1090   45.6170 O.3    92  THR92      -0.2211
     82  CG2      -19.3780   81.0200   47.0670 C.3    92  THR92       0.0376
     83  N        -17.7190   82.9410   44.1480 N.am   93  ASN93      -0.1974
     84  CA       -17.2070   84.2880   43.9370 C.3    93  ASN93       0.1688
     85  C        -17.7840   84.8220   42.6260 C.2    93  ASN93       0.2292
     86  O        -17.5600   84.2180   41.5730 O.2    93  ASN93      -0.2864
     87  CB       -15.6850   84.2850   43.8580 C.3    93  ASN93       0.1181
     88  CG       -15.0910   85.6830   43.9530 C.2    93  ASN93       0.2629
     89  OD1      -15.7300   86.6850   43.6200 O.2    93  ASN93      -0.2716
     90  ND2      -13.8520   85.7530   44.3900 N.am   93  ASN93      -0.0877
     91  N        -25.4390   84.7230   39.7010 N.3   103  ARG103     -0.1245
     92  CA       -24.4160   85.5920   40.2920 C.3   103  ARG103      0.1563
     93  C        -23.6950   86.4130   39.2260 C.2   103  ARG103      0.2260
     94  O        -23.3810   87.5760   39.4470 O.2   103  ARG103     -0.2867
     95  CB       -23.4070   84.7810   41.1110 C.3   103  ARG103      0.0307
     96  CG       -23.9870   84.1460   42.3730 C.3   103  ARG103      0.0489
     97  CD       -22.8640   83.6780   43.2850 C.3   103  ARG103      0.2205
     98  NE       -23.3240   82.8600   44.4100 N.pl3 103  ARG103     -0.0865
     99  CZ       -23.3040   81.5270   44.4660 C.cat 103  ARG103      0.5346
    100  NH1      -22.8540   80.7830   43.4540 N.pl3 103  ARG103      0.1354
    101  NH2      -23.7430   80.9130   45.5630 N.pl3 103  ARG103      0.1354
    102  N        -19.5820   91.4030   44.4620 N.3   109  GLN109     -0.1231
    103  CA       -18.6450   91.0200   45.5280 C.3   109  GLN109      0.1698
    104  C        -19.0410   89.6930   46.1780 C.2   109  GLN109      0.2592
    105  O        -20.2290   89.4070   46.3350 O.2   109  GLN109     -0.2718
    106  CB       -18.5940   92.1170   46.5940 C.3   109  GLN109      0.0381
    107  CG       -17.3550   92.0730   47.4730 C.3   109  GLN109      0.0905
    108  CD       -17.5000   92.9360   48.7130 C.2   109  GLN109      0.2608
    109  OE1      -18.2930   92.6210   49.6050 O.2   109  GLN109     -0.2717
    110  NE2      -16.7350   94.0230   48.7830 N.am  109  GLN109     -0.0878
    111  N        -18.0410   88.9020   46.5670 N.am  110  VAL110     -0.1966
    112  CA       -18.2710   87.5900   47.1960 C.3   110  VAL110      0.1727
    113  C        -19.0670   87.6830   48.5060 C.2   110  VAL110      0.2617
    114  O        -19.9050   86.8260   48.7830 O.2   110  VAL110     -0.2715
    115  CB       -16.9450   86.8030   47.3900 C.3   110  VAL110      0.0290
    116  CG1      -16.0490   87.4460   48.4500 C.3   110  VAL110      0.0023
    117  CG2      -17.2190   85.3400   47.7220 C.3   110  VAL110      0.0023
    118  N        -18.8160   88.7310   49.2910 N.am  111  GLY111     -0.1940
    119  CA       -19.5410   88.9700   50.5470 C.3   111  GLY111      0.2014
    120  C        -21.0260   89.2850   50.4110 C.2   111  GLY111      0.2639
    121  O        -21.7810   89.1180   51.3710 O.2   111  GLY111     -0.2714
    122  N        -21.4350   89.7490   49.2290 N.am  112  ARG112     -0.1963
    123  CA       -22.8370   90.0000   48.9060 C.3   112  ARG112      0.1729
    124  C        -23.1970   89.2920   47.5990 C.2   112  ARG112      0.2616
    125  O        -23.4160   89.9430   46.5730 O.2   112  ARG112     -0.2715
    126  CB       -23.0680   91.5010   48.7650 C.3   112  ARG112      0.0348
    127  CG       -22.7870   92.3130   50.0200 C.3   112  ARG112      0.0492
    128  CD       -23.8930   92.1690   51.0520 C.3   112  ARG112      0.2205
    129  NE       -23.5890   92.9120   52.2770 N.pl3 112  ARG112     -0.0865
    130  CZ       -22.8150   92.4820   53.2800 C.cat 112  ARG112      0.5346
    131  NH1      -22.2320   91.2810   53.2560 N.pl3 112  ARG112      0.1354
    132  NH2      -22.6240   93.2680   54.3350 N.pl3 112  ARG112      0.1354
    133  N        -23.2590   87.9590   47.6460 N.am  113  ASN113     -0.1972
    134  CA       -23.4360   87.1370   46.4360 C.3   113  ASN113      0.1688
    135  C        -24.8360   86.4870   46.2840 C.2   113  ASN113      0.2292
    136  O        -24.9680   85.3920   45.7150 O.2   113  ASN113     -0.2864
    137  CB       -22.3050   86.1020   46.3270 C.3   113  ASN113      0.1181
    138  CG       -22.3830   85.0230   47.3870 C.2   113  ASN113      0.2629
    139  OD1      -23.0120   85.2080   48.4260 O.2   113  ASN113     -0.2716
    140  ND2      -21.7280   83.8890   47.1340 N.am  113  ASN113     -0.0877
    141  N        -27.2600   84.4870   46.5640 N.3   115  ILE115     -0.1231
    142  CA       -27.8790   83.1600   46.4870 C.3   115  ILE115      0.1692
    143  C        -26.9520   82.0530   47.0140 C.2   115  ILE115      0.2592
    144  O        -25.7270   82.1750   46.9160 O.2   115  ILE115     -0.2718
    145  CB       -28.3290   82.8710   45.0360 C.3   115  ILE115      0.0266
    146  CG1      -29.1570   81.5890   44.9540 C.3   115  ILE115      0.0019
    147  CG2      -27.1330   82.8220   44.0890 C.3   115  ILE115      0.0020
    148  CD1      -29.9840   81.4990   43.6930 C.3   115  ILE115      0.0001
    149  N        -27.5440   81.0160   47.6190 N.am  116  HIS116     -0.1976
    150  CA       -26.8400   79.7880   47.9980 C.3   116  HIS116      0.1656
    151  C        -27.4740   78.5910   47.2910 C.2   116  HIS116      0.2291
    152  O        -28.6910   78.5230   47.1600 O.2   116  HIS116     -0.2864
    153  CB       -26.8860   79.5470   49.5160 C.3   116  HIS116      0.0771
    154  CG       -26.5310   78.1430   49.9100 C.ar  116  HIS116      0.0820
    155  ND1      -25.2340   77.7310   50.1320 N.ar  116  HIS116     -0.2267
    156  CD2      -27.3050   77.0410   50.0650 C.ar  116  HIS116      0.1154
    157  CE1      -25.2270   76.4420   50.4270 C.ar  116  HIS116      0.1986
    158  NE2      -26.4710   75.9980   50.3880 N.ar  116  HIS116     -0.2212
@<TRIPOS>BOND
     1    93    94    2
     2    93    92    1
     3    91    92    1
     4    92    95    1
     5    95    96    1
     6    86    85    2
     7    96    97    1
     8    85    84    1
     9    76    77    1
    10    97    98    1
    11   100    99    1
    12    89    88    2
    13   148   146    1
    14    87    84    1
    15    87    88    1
    16    84    83    1
    17    88    90   am
    18   147   145    1
    19    83    78   am
    20    98    99    2
    21   102   103    1
    22    99   101    1
    23    77    78    1
    24    77    80    1
    25    78    79    2
    26   146   145    1
    27   145   142    1
    28   103   104    1
    29   103   106    1
    30    81    80    1
    31   136   135    2
    32    80    82    1
    33   104   105    2
    34   104   111   am
    35   135   134    1
    36   137   134    1
    37   137   138    1
    38   134   133    1
    39   142   141    1
    40   142   143    1
    41   111   112    1
    42   125   124    2
    43   106   107    1
    44   144   143    2
    45   143   149   am
    46   140   138   am
    47   152   151    2
    48   112   115    1
    49   112   113    1
    50   151   150    1
    51   138   139    2
    52   115   117    1
    53   115   116    1
    54   107   108    1
    55   124   133   am
    56   124   123    1
    57   149   150    1
    58   150   153    1
    59   113   114    2
    60   113   118   am
    61   108   110   am
    62   108   109    2
    63   126   123    1
    64   126   127    1
    65   123   122    1
    66   122   120   am
    67   118   119    1
    68     1     2    1
    69   153   154    1
    70     7     8    1
    71     7     6    1
    72     8     9    1
    73     4     3    2
    74   154   156   ar
    75   154   155   ar
    76   127   128    1
    77   156   158   ar
    78   155   157   ar
    79     5     2    1
    80     5     6    1
    81   158   157   ar
    82   120   119    1
    83   120   121    2
    84    75    74    1
    85     2     3    1
    86   128   129    1
    87    74    73   ar
    88    74    72   ar
    89   129   130    2
    90    73    71   ar
    91    72    70   ar
    92    39    38    1
    93    21    20    1
    94   131   130    1
    95   130   132    1
    96    40    38    1
    97    38    37    2
    98    18    20   ar
    99    18    16   ar
   100    71    69   ar
   101    50    51   ar
   102    50    48   ar
   103    70    69   ar
   104    51    49   ar
   105    29    27    1
   106    20    19   ar
   107    28    27    1
   108    48    46   ar
   109    69    68    1
   110    62    61    1
   111    49    47   ar
   112    16    15   ar
   113    37    36    1
   114    27    26    1
   115    46    47   ar
   116    46    45    1
   117    19    17   ar
   118    45    42    1
   119    63    61    1
   120    68    65    1
   121    61    60    1
   122    36    35    1
   123    15    17   ar
   124    15    14    1
   125    26    23    1
   126    67    66    2
   127    35    34    1
   128    60    57    1
   129    66    65    1
   130    65    64    1
   131    57    56    1
   132    57    58    1
   133    34    31    1
   134    23    22    1
   135    23    24    1
   136    14    11    1
   137    42    41    1
   138    42    43    1
   139    11    10    1
   140    11    12    1
   141    59    58    2
   142    56    54   am
   143    55    54    2
   144    44    43    2
   145    12    13    2
   146    54    53    1
   147    31    32    1
   148    31    30    1
   149    24    25    2
   150    32    33    2
   151    53    52    1
