@<TRIPOS>MOLECULE
tmp/5ui9A01.pdb
 145 140 0 0 0
SMALL
GASTEIGER

@<TRIPOS>ATOM
      1  N         13.4090  -18.8850   14.8180 N.3    13  PHE13      -0.1241
      2  CA        12.9600  -20.1860   15.2950 C.3    13  PHE13       0.1605
      3  C         12.4900  -20.2050   16.7490 C.2    13  PHE13       0.2264
      4  O         11.6460  -21.0290   17.1080 O.2    13  PHE13      -0.2867
      5  CB        14.0190  -21.2690   15.0770 C.3    13  PHE13       0.0534
      6  CG        13.4490  -22.6600   15.1200 C.ar   13  PHE13      -0.0203
      7  CD1       12.6620  -23.1300   14.0690 C.ar   13  PHE13      -0.0042
      8  CD2       13.6520  -23.4810   16.2220 C.ar   13  PHE13      -0.0042
      9  CE1       12.1210  -24.4020   14.1040 C.ar   13  PHE13      -0.0003
     10  CE2       13.1050  -24.7590   16.2640 C.ar   13  PHE13      -0.0003
     11  CZ        12.3510  -25.2240   15.1980 C.ar   13  PHE13      -0.0000
     12  N         20.9290  -26.6380   17.7420 N.3    95  LYS95      -0.1245
     13  CA        21.9040  -27.0450   16.7270 C.3    95  LYS95       0.1561
     14  C         22.2450  -25.8230   15.8610 C.2    95  LYS95       0.2260
     15  O         21.4980  -24.8410   15.8880 O.2    95  LYS95      -0.2867
     16  CB        21.4340  -28.2330   15.8550 C.3    95  LYS95       0.0271
     17  CG        19.9890  -28.2600   15.3500 C.3    95  LYS95       0.0035
     18  CD        19.5970  -27.1440   14.3850 C.3    95  LYS95       0.0206
     19  CE        20.3820  -27.1900   13.0770 C.3    95  LYS95       0.1093
     20  NZ        19.7820  -26.3050   12.0420 N.3    95  LYS95      -0.1314
     21  N         15.6830  -31.8870   17.0010 N.3   123  ASN123     -0.1225
     22  CA        14.2480  -32.2420   17.0130 C.3   123  ASN123      0.1785
     23  C         13.7590  -33.1410   15.8650 C.2   123  ASN123      0.2597
     24  O         12.6180  -33.6050   15.8960 O.2   123  ASN123     -0.2718
     25  CB        13.3490  -30.9810   17.1850 C.3   123  ASN123      0.1169
     26  CG        13.5380  -29.9260   16.0930 C.2   123  ASN123      0.2627
     27  OD1       13.8620  -30.2320   14.9480 O.2   123  ASN123     -0.2716
     28  ND2       13.3140  -28.6650   16.4520 N.am  123  ASN123     -0.0877
     29  N         14.6160  -33.4250   14.8840 N.am  124  PHE124     -0.1976
     30  CA        14.2020  -34.2280   13.7120 C.3   124  PHE124      0.1639
     31  C         13.8630  -35.6640   14.0920 C.2   124  PHE124      0.2290
     32  O         12.8310  -36.1740   13.6710 O.2   124  PHE124     -0.2864
     33  CB        15.2450  -34.1800   12.5890 C.3   124  PHE124      0.0560
     34  CG        15.0050  -33.0830   11.5930 C.ar  124  PHE124     -0.0200
     35  CD1       14.8720  -31.7690   12.0090 C.ar  124  PHE124     -0.0042
     36  CD2       14.9180  -33.3640   10.2270 C.ar  124  PHE124     -0.0042
     37  CE1       14.6420  -30.7540   11.0930 C.ar  124  PHE124     -0.0003
     38  CE2       14.7020  -32.3510    9.3050 C.ar  124  PHE124     -0.0003
     39  CZ        14.5560  -31.0470    9.7340 C.ar  124  PHE124     -0.0000
     40  N         16.8730  -36.0020    2.3090 N.3   152  PHE152     -0.1241
     41  CA        16.1710  -34.7280    2.4590 C.3   152  PHE152      0.1605
     42  C         16.5850  -33.8950    1.2600 C.2   152  PHE152      0.2264
     43  O         17.6750  -33.3110    1.2520 O.2   152  PHE152     -0.2867
     44  CB        16.5680  -34.0600    3.7840 C.3   152  PHE152      0.0534
     45  CG        15.7920  -32.7980    4.1110 C.ar  152  PHE152     -0.0203
     46  CD1       16.0920  -31.5850    3.4960 C.ar  152  PHE152     -0.0042
     47  CD2       14.8030  -32.8110    5.0930 C.ar  152  PHE152     -0.0042
     48  CE1       15.3910  -30.4300    3.8130 C.ar  152  PHE152     -0.0003
     49  CE2       14.1050  -31.6580    5.4150 C.ar  152  PHE152     -0.0003
     50  CZ        14.4010  -30.4660    4.7730 C.ar  152  PHE152     -0.0000
     51  N         14.5280  -21.6700    2.3850 N.3   158  VAL158     -0.1245
     52  CA        14.9400  -21.5110    3.7960 C.3   158  VAL158      0.1561
     53  C         15.6630  -20.1990    4.0710 C.2   158  VAL158      0.2260
     54  O         15.7480  -19.7810    5.2190 O.2   158  VAL158     -0.2867
     55  CB        15.9030  -22.6270    4.2980 C.3   158  VAL158      0.0252
     56  CG1       15.1500  -23.8930    4.6390 C.3   158  VAL158      0.0019
     57  CG2       17.0580  -22.8860    3.3160 C.3   158  VAL158      0.0019
     58  N         15.8460  -17.5130    7.3130 N.3   162  GLN162     -0.1245
     59  CA        17.1750  -17.7440    7.8870 C.3   162  GLN162      0.1566
     60  C         18.2770  -17.2550    6.9190 C.2   162  GLN162      0.2260
     61  O         19.0290  -18.0710    6.3890 O.2   162  GLN162     -0.2867
     62  CB        17.3380  -19.2390    8.2230 C.3   162  GLN162      0.0367
     63  CG        16.3570  -19.7440    9.2830 C.3   162  GLN162      0.0905
     64  CD        16.2410  -21.2540    9.3460 C.2   162  GLN162      0.2608
     65  OE1       15.1780  -21.8120    9.0470 O.2   162  GLN162     -0.2717
     66  NE2       17.3270  -21.9280    9.7490 N.am  162  GLN162     -0.0878
     67  N         22.0970  -18.4800    6.3590 N.3   165  LEU165     -0.1245
     68  CA        22.3610  -19.7160    5.6190 C.3   165  LEU165      0.1561
     69  C         22.9970  -19.4880    4.2350 C.2   165  LEU165      0.2260
     70  O         23.7520  -20.3380    3.7570 O.2   165  LEU165     -0.2867
     71  CB        21.0680  -20.5360    5.4680 C.3   165  LEU165      0.0270
     72  CG        20.4260  -21.0870    6.7510 C.3   165  LEU165      0.0019
     73  CD1       19.1350  -21.8360    6.4350 C.3   165  LEU165      0.0001
     74  CD2       21.3960  -21.9710    7.5350 C.3   165  LEU165      0.0001
     75  N         23.8740  -27.2260    8.7000 N.3   175  ASP175     -0.1225
     76  CA        22.5170  -26.7590    8.9670 C.3   175  ASP175      0.1805
     77  C         21.4870  -27.8890    9.0140 C.2   175  ASP175      0.2597
     78  O         20.6330  -27.9280    9.9050 O.2   175  ASP175     -0.2718
     79  CB        22.0790  -25.7480    7.9090 C.3   175  ASP175      0.1424
     80  CG        20.6270  -25.3330    8.0750 C.2   175  ASP175      0.3668
     81  OD1       20.2540  -24.9440    9.2060 O.co2 175  ASP175     -0.2456
     82  OD2       19.8630  -25.4140    7.0870 O.co2 175  ASP175     -0.2456
     83  N         21.5580  -28.7810    8.0280 N.am  176  LEU176     -0.1979
     84  CA        20.4860  -29.7350    7.7540 C.3   176  LEU176      0.1596
     85  C         20.9600  -31.1800    7.8470 C.2   176  LEU176      0.2287
     86  O         20.2910  -32.0110    8.4790 O.2   176  LEU176     -0.2864
     87  CB        19.8880  -29.4140    6.3790 C.3   176  LEU176      0.0297
     88  CG        18.7740  -30.2760    5.7800 C.3   176  LEU176      0.0022
     89  CD1       19.3210  -31.5330    5.1190 C.3   176  LEU176      0.0001
     90  CD2       17.6900  -30.6040    6.8000 C.3   176  LEU176      0.0001
     91  N         20.8730  -32.9420   11.0890 N.3   179  HIS179     -0.1241
     92  CA        19.6380  -33.6510   11.4080 C.3   179  HIS179      0.1621
     93  C         19.6000  -35.0360   10.7790 C.2   179  HIS179      0.2264
     94  O         19.2720  -36.0170   11.4470 O.2   179  HIS179     -0.2867
     95  CB        18.3940  -32.9100   10.8960 C.3   179  HIS179      0.0745
     96  CG        18.1640  -31.5650   11.5100 C.ar  179  HIS179      0.0817
     97  ND1       17.9800  -31.3810   12.8660 N.ar  179  HIS179     -0.2268
     98  CD2       18.0200  -30.3460   10.9410 C.ar  179  HIS179      0.1154
     99  CE1       17.7600  -30.1000   13.1040 C.ar  179  HIS179      0.1986
    100  NE2       17.7880  -29.4490   11.9550 N.ar  179  HIS179     -0.2212
    101  N         19.4730  -28.7240   -0.9860 N.3   229  TYR229     -0.1241
    102  CA        18.5580  -27.5730   -1.0600 C.3   229  TYR229      0.1605
    103  C         18.4830  -26.9770   -2.4880 C.2   229  TYR229      0.2264
    104  O         18.0210  -25.8420   -2.6720 O.2   229  TYR229     -0.2867
    105  CB        18.9400  -26.5040   -0.0270 C.3   229  TYR229      0.0534
    106  CG        18.2010  -26.6280    1.2950 C.ar  229  TYR229     -0.0201
    107  CD1       16.8000  -26.5940    1.3420 C.ar  229  TYR229     -0.0009
    108  CD2       18.8900  -26.7630    2.5000 C.ar  229  TYR229     -0.0009
    109  CE1       16.1170  -26.6900    2.5460 C.ar  229  TYR229      0.0417
    110  CE2       18.2090  -26.8670    3.7060 C.ar  229  TYR229      0.0417
    111  CZ        16.8280  -26.8280    3.7210 C.ar  229  TYR229      0.1957
    112  OH        16.1480  -26.9290    4.9070 O.3   229  TYR229     -0.2866
    113  N          9.5120  -30.2850    1.5350 N.3   238  PHE238     -0.1241
    114  CA         9.9880  -29.7050    2.8040 C.3   238  PHE238      0.1605
    115  C          8.9090  -29.8280    3.9010 C.2   238  PHE238      0.2264
    116  O          7.7550  -29.4830    3.6320 O.2   238  PHE238     -0.2867
    117  CB        10.3870  -28.2280    2.6110 C.3   238  PHE238      0.0534
    118  CG        10.8570  -27.5390    3.8740 C.ar  238  PHE238     -0.0203
    119  CD1        9.9490  -26.9100    4.7250 C.ar  238  PHE238     -0.0042
    120  CD2       12.2090  -27.5070    4.2060 C.ar  238  PHE238     -0.0042
    121  CE1       10.3740  -26.2800    5.8880 C.ar  238  PHE238     -0.0003
    122  CE2       12.6430  -26.8840    5.3690 C.ar  238  PHE238     -0.0003
    123  CZ        11.7240  -26.2630    6.2090 C.ar  238  PHE238     -0.0000
    124  N          5.8380  -25.7740    8.1200 N.3   285  TRP285     -0.1241
    125  CA         6.7090  -26.0450    9.2860 C.3   285  TRP285      0.1605
    126  C          6.1100  -26.9770   10.3430 C.2   285  TRP285      0.2264
    127  O          6.7770  -27.2960   11.3350 O.2   285  TRP285     -0.2867
    128  CB         7.0920  -24.7290    9.9630 C.3   285  TRP285      0.0550
    129  CG         7.9860  -23.8990    9.1360 C.ar  285  TRP285      0.0003
    130  CD1        7.6220  -22.9770    8.2000 C.ar  285  TRP285      0.0946
    131  CD2        9.4120  -23.9080    9.1640 C.ar  285  TRP285      0.0152
    132  NE1        8.7400  -22.4050    7.6460 N.ar  285  TRP285     -0.2442
    133  CE2        9.8530  -22.9610    8.2170 C.ar  285  TRP285      0.0810
    134  CE3       10.3630  -24.6220    9.9050 C.ar  285  TRP285      0.0012
    135  CZ2       11.2090  -22.7090    7.9830 C.ar  285  TRP285      0.0191
    136  CZ3       11.7140  -24.3710    9.6750 C.ar  285  TRP285      0.0001
    137  CH2       12.1220  -23.4230    8.7190 C.ar  285  TRP285      0.0015
    138  N          8.0050  -30.0190   11.9930 N.3   288  ILE288     -0.1245
    139  CA         9.0880  -29.5530   12.8690 C.3   288  ILE288      0.1561
    140  C          8.4990  -28.9560   14.1440 C.2   288  ILE288      0.2260
    141  O          8.9770  -29.2270   15.2560 O.2   288  ILE288     -0.2867
    142  CB        10.0070  -28.5280   12.1450 C.3   288  ILE288      0.0252
    143  CG1       10.7850  -29.2200   11.0100 C.3   288  ILE288      0.0019
    144  CG2       10.9760  -27.8550   13.1220 C.3   288  ILE288      0.0019
    145  CD1       11.5650  -28.2730   10.1180 C.3   288  ILE288      0.0001
@<TRIPOS>BOND
     1   104   103    2
     2   103   102    1
     3   102   101    1
     4   102   105    1
     5   105   106    1
     6    43    42    2
     7    42    41    1
     8   106   107   ar
     9   106   108   ar
    10   107   109   ar
    11   113   114    1
    12    40    41    1
    13    51    52    1
    14    41    44    1
    15   108   110   ar
    16   109   111   ar
    17   117   114    1
    18   117   118    1
    19   114   115    1
    20    57    55    1
    21    46    48   ar
    22    46    45   ar
    23   116   115    2
    24   110   111   ar
    25   111   112    1
    26    70    69    2
    27    44    45    1
    28    52    53    1
    29    52    55    1
    30    48    50   ar
    31   118   120   ar
    32   118   119   ar
    33    53    54    2
    34    45    47   ar
    35   120   122   ar
    36    69    68    1
    37    55    56    1
    38   119   121   ar
    39    50    49   ar
    40    47    49   ar
    41    89    88    1
    42   122   123   ar
    43    71    68    1
    44    71    72    1
    45    68    67    1
    46    88    87    1
    47    88    90    1
    48   121   123   ar
    49    87    84    1
    50    61    60    2
    51    73    72    1
    52    72    74    1
    53    60    59    1
    54    82    80   ar
    55    58    59    1
    56   132   130   ar
    57   132   133   ar
    58    84    85    1
    59    84    83    1
    60    85    86    2
    61    59    62    1
    62    79    80    1
    63    79    76    1
    64   135   133   ar
    65   135   137   ar
    66    83    77   am
    67    80    81   ar
    68   124   125    1
    69   130   129   ar
    70   133   131   ar
    71    62    63    1
    72    75    76    1
    73   137   136   ar
    74    76    77    1
    75    77    78    2
    76    65    64    2
    77   129   131   ar
    78   129   128    1
    79   131   134   ar
    80    63    64    1
    81   125   128    1
    82   125   126    1
    83    38    39   ar
    84    38    36   ar
    85    64    66   am
    86   136   134   ar
    87    39    37   ar
    88   145   143    1
    89    36    34   ar
    90   126   127    2
    91    93    92    1
    92    93    94    2
    93    95    92    1
    94    95    96    1
    95    98    96   ar
    96    98   100   ar
    97   143   142    1
    98    91    92    1
    99    37    35   ar
   100    96    97   ar
   101    34    35   ar
   102    34    33    1
   103   100    99   ar
   104   138   139    1
   105    20    19    1
   106   142   139    1
   107   142   144    1
   108    33    30    1
   109    97    99   ar
   110   139   140    1
   111    19    18    1
   112    32    31    2
   113    30    31    1
   114    30    29    1
   115     7     9   ar
   116     7     6   ar
   117     9    11   ar
   118   140   141    2
   119    18    17    1
   120     1     2    1
   121    29    23   am
   122    27    26    2
   123     5     6    1
   124     5     2    1
   125     6     8   ar
   126    11    10   ar
   127     2     3    1
   128    17    16    1
   129    16    13    1
   130    14    15    2
   131    14    13    1
   132    23    24    2
   133    23    22    1
   134    26    28   am
   135    26    25    1
   136     8    10   ar
   137    13    12    1
   138     3     4    2
   139    21    22    1
   140    22    25    1
