@<TRIPOS>MOLECULE
tmp/5uiaA01.pdb
 145 140 0 0 0
SMALL
GASTEIGER

@<TRIPOS>ATOM
      1  N         13.2110  -19.2110   14.8740 N.3    13  PHE13      -0.1241
      2  CA        12.7770  -20.5080   15.4140 C.3    13  PHE13       0.1605
      3  C         12.3090  -20.4940   16.8770 C.2    13  PHE13       0.2264
      4  O         11.4750  -21.3030   17.2670 O.2    13  PHE13      -0.2867
      5  CB        13.8410  -21.5850   15.2300 C.3    13  PHE13       0.0534
      6  CG        13.2700  -22.9850   15.2040 C.ar   13  PHE13      -0.0203
      7  CD1       12.5520  -23.4340   14.0940 C.ar   13  PHE13      -0.0042
      8  CD2       13.4270  -23.8420   16.2870 C.ar   13  PHE13      -0.0042
      9  CE1       12.0180  -24.7150   14.0670 C.ar   13  PHE13      -0.0003
     10  CE2       12.8930  -25.1210   16.2670 C.ar   13  PHE13      -0.0003
     11  CZ        12.1980  -25.5650   15.1530 C.ar   13  PHE13      -0.0000
     12  N         20.9270  -26.7880   17.8650 N.3    95  LYS95      -0.1245
     13  CA        21.9230  -27.2310   16.9100 C.3    95  LYS95       0.1561
     14  C         22.2460  -26.0550   15.9650 C.2    95  LYS95       0.2260
     15  O         21.5190  -25.0520   15.9770 O.2    95  LYS95      -0.2867
     16  CB        21.4800  -28.4870   16.1270 C.3    95  LYS95       0.0271
     17  CG        20.0590  -28.5410   15.5680 C.3    95  LYS95       0.0035
     18  CD        19.6950  -27.4490   14.5700 C.3    95  LYS95       0.0206
     19  CE        20.5130  -27.5330   13.2920 C.3    95  LYS95       0.1093
     20  NZ        20.0010  -26.5790   12.2670 N.3    95  LYS95      -0.1314
     21  N         15.6570  -32.1230   17.0440 N.3   123  ASN123     -0.1225
     22  CA        14.2350  -32.5130   17.0590 C.3   123  ASN123      0.1785
     23  C         13.7600  -33.4580   15.9360 C.2   123  ASN123      0.2597
     24  O         12.6420  -33.9840   16.0060 O.2   123  ASN123     -0.2718
     25  CB        13.3010  -31.2880   17.1970 C.3   123  ASN123      0.1169
     26  CG        13.4800  -30.2450   16.0980 C.2   123  ASN123      0.2627
     27  OD1       13.8220  -30.5570   14.9510 O.2   123  ASN123     -0.2716
     28  ND2       13.2300  -28.9880   16.4500 N.am  123  ASN123     -0.0877
     29  N         14.6000  -33.7150   14.9390 N.am  124  PHE124     -0.1976
     30  CA        14.1810  -34.5530   13.8010 C.3   124  PHE124      0.1639
     31  C         13.8410  -35.9750   14.2040 C.2   124  PHE124      0.2290
     32  O         12.8290  -36.5020   13.7480 O.2   124  PHE124     -0.2864
     33  CB        15.2060  -34.5270   12.6630 C.3   124  PHE124      0.0560
     34  CG        14.9660  -33.4240   11.6680 C.ar  124  PHE124     -0.0200
     35  CD1       14.8500  -32.1060   12.0910 C.ar  124  PHE124     -0.0042
     36  CD2       14.8510  -33.7050   10.3020 C.ar  124  PHE124     -0.0042
     37  CE1       14.6280  -31.0800   11.1740 C.ar  124  PHE124     -0.0003
     38  CE2       14.6330  -32.6890    9.3820 C.ar  124  PHE124     -0.0003
     39  CZ        14.5230  -31.3740    9.8170 C.ar  124  PHE124     -0.0000
     40  N         16.7810  -36.3970    2.3630 N.3   152  PHE152     -0.1241
     41  CA        16.0870  -35.1140    2.4290 C.3   152  PHE152      0.1605
     42  C         16.5570  -34.3420    1.2060 C.2   152  PHE152      0.2264
     43  O         17.6480  -33.7730    1.2130 O.2   152  PHE152     -0.2867
     44  CB        16.4480  -34.3950    3.7370 C.3   152  PHE152      0.0534
     45  CG        15.6370  -33.1480    4.0210 C.ar  152  PHE152     -0.0203
     46  CD1       15.7970  -31.9860    3.2640 C.ar  152  PHE152     -0.0042
     47  CD2       14.7450  -33.1150    5.1000 C.ar  152  PHE152     -0.0042
     48  CE1       15.0690  -30.8420    3.5510 C.ar  152  PHE152     -0.0003
     49  CE2       14.0210  -31.9700    5.3900 C.ar  152  PHE152     -0.0003
     50  CZ        14.1840  -30.8320    4.6170 C.ar  152  PHE152     -0.0000
     51  N         14.5000  -22.0050    2.0050 N.3   158  VAL158     -0.1245
     52  CA        14.8350  -21.8520    3.4350 C.3   158  VAL158      0.1561
     53  C         15.5450  -20.5500    3.7620 C.2   158  VAL158      0.2260
     54  O         15.5940  -20.1470    4.9300 O.2   158  VAL158     -0.2867
     55  CB        15.7550  -22.9880    3.9630 C.3   158  VAL158      0.0252
     56  CG1       15.0110  -24.2980    3.9920 C.3   158  VAL158      0.0019
     57  CG2       17.0500  -23.1200    3.1500 C.3   158  VAL158      0.0019
     58  N         15.6410  -17.9260    7.0770 N.3   162  GLN162     -0.1245
     59  CA        16.9630  -18.1120    7.6950 C.3   162  GLN162      0.1566
     60  C         18.0880  -17.5670    6.7770 C.2   162  GLN162      0.2260
     61  O         18.8560  -18.3560    6.2080 O.2   162  GLN162     -0.2867
     62  CB        17.1810  -19.6080    8.0180 C.3   162  GLN162      0.0367
     63  CG        16.1810  -20.1790    9.0220 C.3   162  GLN162      0.0905
     64  CD        16.2570  -21.6900    9.1790 C.2   162  GLN162      0.2608
     65  OE1       15.2840  -22.3950    8.8900 O.2   162  GLN162     -0.2717
     66  NE2       17.4030  -22.1950    9.6440 N.am  162  GLN162     -0.0878
     67  N         21.9470  -18.8310    6.3560 N.3   165  LEU165     -0.1245
     68  CA        22.2550  -20.0620    5.6220 C.3   165  LEU165      0.1561
     69  C         22.9290  -19.8240    4.2560 C.2   165  LEU165      0.2260
     70  O         23.7280  -20.6540    3.8180 O.2   165  LEU165     -0.2867
     71  CB        20.9930  -20.9290    5.4580 C.3   165  LEU165      0.0270
     72  CG        20.3590  -21.4900    6.7470 C.3   165  LEU165      0.0019
     73  CD1       19.0700  -22.2370    6.4270 C.3   165  LEU165      0.0001
     74  CD2       21.3130  -22.3830    7.5410 C.3   165  LEU165      0.0001
     75  N         23.7410  -27.4700    8.6300 N.3   175  ASP175     -0.1225
     76  CA        22.3630  -27.0660    8.8910 C.3   175  ASP175      0.1805
     77  C         21.3780  -28.2420    8.9400 C.2   175  ASP175      0.2597
     78  O         20.5690  -28.3270    9.8660 O.2   175  ASP175     -0.2718
     79  CB        21.8940  -26.0770    7.8390 C.3   175  ASP175      0.1424
     80  CG        20.4560  -25.6720    8.0370 C.2   175  ASP175      0.3668
     81  OD1       20.1150  -25.2560    9.1650 O.co2 175  ASP175     -0.2456
     82  OD2       19.6680  -25.7770    7.0730 O.co2 175  ASP175     -0.2456
     83  N         21.4510  -29.1270    7.9420 N.am  176  LEU176     -0.1979
     84  CA        20.4360  -30.1620    7.7080 C.3   176  LEU176      0.1596
     85  C         20.9710  -31.5830    7.8640 C.2   176  LEU176      0.2287
     86  O         20.3490  -32.4100    8.5250 O.2   176  LEU176     -0.2864
     87  CB        19.8630  -29.9990    6.3030 C.3   176  LEU176      0.0297
     88  CG        18.9440  -31.1170    5.7850 C.3   176  LEU176      0.0022
     89  CD1       17.6670  -31.1720    6.6040 C.3   176  LEU176      0.0001
     90  CD2       18.6480  -30.9180    4.3060 C.3   176  LEU176      0.0001
     91  N         20.8660  -33.2240   11.1420 N.3   179  HIS179     -0.1241
     92  CA        19.6480  -33.9480   11.4770 C.3   179  HIS179      0.1621
     93  C         19.6100  -35.3490   10.8620 C.2   179  HIS179      0.2264
     94  O         19.2630  -36.3190   11.5390 O.2   179  HIS179     -0.2867
     95  CB        18.4090  -33.2140   10.9700 C.3   179  HIS179      0.0745
     96  CG        18.1960  -31.8600   11.5610 C.ar  179  HIS179      0.0817
     97  ND1       18.0540  -31.6520   12.9160 N.ar  179  HIS179     -0.2268
     98  CD2       18.0350  -30.6520   10.9720 C.ar  179  HIS179      0.1154
     99  CE1       17.8420  -30.3690   13.1380 C.ar  179  HIS179      0.1986
    100  NE2       17.8260  -29.7390   11.9770 N.ar  179  HIS179     -0.2212
    101  N         19.4890  -29.1560   -1.1970 N.3   229  TYR229     -0.1241
    102  CA        18.5930  -28.0080   -1.3400 C.3   229  TYR229      0.1605
    103  C         18.5880  -27.4640   -2.7870 C.2   229  TYR229      0.2264
    104  O         18.2130  -26.3130   -3.0240 O.2   229  TYR229     -0.2867
    105  CB        18.9530  -26.9130   -0.3060 C.3   229  TYR229      0.0534
    106  CG        18.2220  -27.0490    1.0200 C.ar  229  TYR229     -0.0201
    107  CD1       16.8190  -27.0750    1.0680 C.ar  229  TYR229     -0.0009
    108  CD2       18.9200  -27.1180    2.2360 C.ar  229  TYR229     -0.0009
    109  CE1       16.1370  -27.1900    2.2690 C.ar  229  TYR229      0.0417
    110  CE2       18.2420  -27.2280    3.4450 C.ar  229  TYR229      0.0417
    111  CZ        16.8540  -27.2670    3.4530 C.ar  229  TYR229      0.1957
    112  OH        16.1660  -27.3910    4.6340 O.3   229  TYR229     -0.2866
    113  N          9.4350  -30.7890    1.3190 N.3   238  PHE238     -0.1241
    114  CA         9.9200  -30.1050    2.5410 C.3   238  PHE238      0.1605
    115  C          8.8780  -30.1750    3.6700 C.2   238  PHE238      0.2264
    116  O          7.7260  -29.8030    3.4260 O.2   238  PHE238     -0.2867
    117  CB        10.2550  -28.6440    2.2180 C.3   238  PHE238      0.0534
    118  CG        10.7780  -27.8570    3.3820 C.ar  238  PHE238     -0.0203
    119  CD1       12.1490  -27.7980    3.6410 C.ar  238  PHE238     -0.0042
    120  CD2        9.9050  -27.1360    4.2060 C.ar  238  PHE238     -0.0042
    121  CE1       12.6320  -27.0520    4.7090 C.ar  238  PHE238     -0.0003
    122  CE2       10.3840  -26.3940    5.2750 C.ar  238  PHE238     -0.0003
    123  CZ        11.7470  -26.3520    5.5280 C.ar  238  PHE238     -0.0000
    124  N          5.5190  -26.5580    8.0280 N.3   285  TRP285     -0.1241
    125  CA         6.4200  -26.7160    9.1810 C.3   285  TRP285      0.1605
    126  C          5.8710  -27.6170   10.3000 C.2   285  TRP285      0.2264
    127  O          6.6000  -27.9210   11.2340 O.2   285  TRP285     -0.2867
    128  CB         6.7910  -25.3440    9.7690 C.3   285  TRP285      0.0550
    129  CG         7.6730  -24.5310    8.8870 C.ar  285  TRP285      0.0003
    130  CD1        7.2820  -23.7210    7.8640 C.ar  285  TRP285      0.0946
    131  CD2        9.1050  -24.4400    8.9530 C.ar  285  TRP285      0.0152
    132  NE1        8.3790  -23.1320    7.2840 N.ar  285  TRP285     -0.2442
    133  CE2        9.5110  -23.5530    7.9300 C.ar  285  TRP285      0.0810
    134  CE3       10.0860  -25.0180    9.7850 C.ar  285  TRP285      0.0012
    135  CZ2       10.8620  -23.2300    7.7000 C.ar  285  TRP285      0.0191
    136  CZ3       11.4420  -24.7030    9.5560 C.ar  285  TRP285      0.0001
    137  CH2       11.8110  -23.8120    8.5170 C.ar  285  TRP285      0.0015
    138  N          7.8670  -30.5370   12.0620 N.3   288  ILE288     -0.1245
    139  CA         8.9690  -30.0280   12.8600 C.3   288  ILE288      0.1561
    140  C          8.4170  -29.4000   14.1440 C.2   288  ILE288      0.2260
    141  O          8.9630  -29.6060   15.2440 O.2   288  ILE288     -0.2867
    142  CB         9.8260  -29.0020   12.0580 C.3   288  ILE288      0.0252
    143  CG1       10.6020  -29.7210   10.9500 C.3   288  ILE288      0.0019
    144  CG2       10.7950  -28.2410   12.9710 C.3   288  ILE288      0.0019
    145  CD1       11.3090  -28.7940    9.9730 C.3   288  ILE288      0.0001
@<TRIPOS>BOND
     1   104   103    2
     2   103   102    1
     3   102   101    1
     4   102   105    1
     5   105   106    1
     6   106   107   ar
     7   106   108   ar
     8   107   109   ar
     9    42    43    2
    10    42    41    1
    11   113   114    1
    12    51    52    1
    13   117   114    1
    14   117   118    1
    15   108   110   ar
    16   109   111   ar
    17    40    41    1
    18    41    44    1
    19   114   115    1
    20    57    55    1
    21    46    48   ar
    22    46    45   ar
    23   118   119   ar
    24   118   120   ar
    25   116   115    2
    26    52    53    1
    27    52    55    1
    28   110   111   ar
    29   111   112    1
    30    48    50   ar
    31   119   121   ar
    32    44    45    1
    33    53    54    2
    34    70    69    2
    35    55    56    1
    36    45    47   ar
    37   120   122   ar
    38    69    68    1
    39    90    88    1
    40    50    49   ar
    41   121   123   ar
    42    47    49   ar
    43   122   123   ar
    44    71    68    1
    45    71    72    1
    46    68    67    1
    47    88    87    1
    48    88    89    1
    49    61    60    2
    50    87    84    1
    51    73    72    1
    52    72    74    1
    53    60    59    1
    54    82    80   ar
    55    58    59    1
    56   132   130   ar
    57   132   133   ar
    58    59    62    1
    59   135   133   ar
    60   135   137   ar
    61    84    85    1
    62    84    83    1
    63    79    80    1
    64    79    76    1
    65   130   129   ar
    66    85    86    2
    67   133   131   ar
    68    83    77   am
    69    62    63    1
    70   124   125    1
    71    80    81   ar
    72   137   136   ar
    73    75    76    1
    74   129   131   ar
    75   129   128    1
    76    65    64    2
    77    76    77    1
    78    77    78    2
    79   131   134   ar
    80    63    64    1
    81    64    66   am
    82   125   128    1
    83   125   126    1
    84    38    39   ar
    85    38    36   ar
    86   136   134   ar
    87    39    37   ar
    88   145   143    1
    89   126   127    2
    90    36    34   ar
    91    93    92    1
    92    93    94    2
    93   143   142    1
    94    95    92    1
    95    95    96    1
    96    98    96   ar
    97    98   100   ar
    98    91    92    1
    99    37    35   ar
   100    96    97   ar
   101    34    35   ar
   102    34    33    1
   103   100    99   ar
   104   142   139    1
   105   142   144    1
   106   138   139    1
   107    20    19    1
   108    33    30    1
   109   139   140    1
   110    97    99   ar
   111    19    18    1
   112    32    31    2
   113    30    31    1
   114    30    29    1
   115     9     7   ar
   116     9    11   ar
   117     7     6   ar
   118   140   141    2
   119    18    17    1
   120     1     2    1
   121    29    23   am
   122    27    26    2
   123    11    10   ar
   124     6     5    1
   125     6     8   ar
   126     5     2    1
   127     2     3    1
   128    17    16    1
   129    23    24    2
   130    23    22    1
   131    14    15    2
   132    14    13    1
   133    26    28   am
   134    26    25    1
   135    16    13    1
   136    10     8   ar
   137     3     4    2
   138    13    12    1
   139    21    22    1
   140    22    25    1
