@<TRIPOS>MOLECULE
tmp/5uibA01.pdb
 145 140 0 0 0
SMALL
GASTEIGER

@<TRIPOS>ATOM
      1  N         13.1630  -18.9780   14.9040 N.3    13  PHE13      -0.1241
      2  CA        12.7290  -20.2980   15.3790 C.3    13  PHE13       0.1605
      3  C         12.3390  -20.3180   16.8610 C.2    13  PHE13       0.2264
      4  O         11.5640  -21.1670   17.2840 O.2    13  PHE13      -0.2867
      5  CB        13.8130  -21.3520   15.1240 C.3    13  PHE13       0.0534
      6  CG        13.3200  -22.7740   15.2600 C.ar   13  PHE13      -0.0203
      7  CD1       12.5210  -23.3440   14.2750 C.ar   13  PHE13      -0.0042
      8  CD2       13.6410  -23.5410   16.3810 C.ar   13  PHE13      -0.0042
      9  CE1       12.0690  -24.6480   14.3890 C.ar   13  PHE13      -0.0003
     10  CE2       13.1820  -24.8490   16.5030 C.ar   13  PHE13      -0.0003
     11  CZ        12.3980  -25.4020   15.5030 C.ar   13  PHE13      -0.0000
     12  N         20.9810  -26.3020   17.6370 N.3    95  LYS95      -0.1245
     13  CA        22.0070  -26.7770   16.7140 C.3    95  LYS95       0.1561
     14  C         22.3320  -25.6760   15.6770 C.2    95  LYS95       0.2260
     15  O         21.5560  -24.7280   15.5260 O.2    95  LYS95      -0.2867
     16  CB        21.6400  -28.1280   16.0790 C.3    95  LYS95       0.0271
     17  CG        20.1970  -28.3300   15.6510 C.3    95  LYS95       0.0035
     18  CD        19.6860  -27.3070   14.6430 C.3    95  LYS95       0.0206
     19  CE        20.4620  -27.3470   13.3370 C.3    95  LYS95       0.1093
     20  NZ        20.1270  -26.1670   12.5030 N.3    95  LYS95      -0.1314
     21  N         15.6470  -31.8740   17.1840 N.3   123  ASN123     -0.1225
     22  CA        14.2350  -32.2760   17.1500 C.3   123  ASN123      0.1785
     23  C         13.7850  -33.1240   15.9510 C.2   123  ASN123      0.2597
     24  O         12.6330  -33.5530   15.9200 O.2   123  ASN123     -0.2718
     25  CB        13.3260  -31.0440   17.2860 C.3   123  ASN123      0.1169
     26  CG        13.5580  -30.0060   16.2030 C.2   123  ASN123      0.2627
     27  OD1       13.8840  -30.3300   15.0580 O.2   123  ASN123     -0.2716
     28  ND2       13.4050  -28.7410   16.5680 N.am  123  ASN123     -0.0877
     29  N         14.6680  -33.3940   14.9870 N.am  124  PHE124     -0.1976
     30  CA        14.2830  -34.2110   13.8230 C.3   124  PHE124      0.1639
     31  C         13.8950  -35.6490   14.1950 C.2   124  PHE124      0.2290
     32  O         12.8030  -36.0960   13.8460 O.2   124  PHE124     -0.2864
     33  CB        15.3280  -34.1400   12.6970 C.3   124  PHE124      0.0560
     34  CG        14.9400  -33.2000   11.5890 C.ar  124  PHE124     -0.0200
     35  CD1       14.8150  -31.8360   11.8310 C.ar  124  PHE124     -0.0042
     36  CD2       14.6670  -33.6740   10.3060 C.ar  124  PHE124     -0.0042
     37  CE1       14.4460  -30.9560   10.8110 C.ar  124  PHE124     -0.0003
     38  CE2       14.2980  -32.7980    9.2810 C.ar  124  PHE124     -0.0003
     39  CZ        14.1900  -31.4390    9.5340 C.ar  124  PHE124     -0.0000
     40  N         16.7400  -35.9320    2.3210 N.3   152  PHE152     -0.1241
     41  CA        16.0550  -34.6570    2.4440 C.3   152  PHE152      0.1605
     42  C         16.4570  -33.8280    1.2410 C.2   152  PHE152      0.2264
     43  O         17.4720  -33.1350    1.2840 O.2   152  PHE152     -0.2867
     44  CB        16.4570  -33.9800    3.7420 C.3   152  PHE152      0.0534
     45  CG        15.5770  -32.8150    4.1290 C.ar  152  PHE152     -0.0203
     46  CD1       15.6330  -31.5960    3.4340 C.ar  152  PHE152     -0.0042
     47  CD2       14.7160  -32.9180    5.2140 C.ar  152  PHE152     -0.0042
     48  CE1       14.8400  -30.5240    3.8120 C.ar  152  PHE152     -0.0003
     49  CE2       13.9260  -31.8510    5.5850 C.ar  152  PHE152     -0.0003
     50  CZ        13.9850  -30.6550    4.8870 C.ar  152  PHE152     -0.0000
     51  N         14.5320  -21.7350    2.0290 N.3   158  VAL158     -0.1245
     52  CA        14.8440  -21.5680    3.4510 C.3   158  VAL158      0.1561
     53  C         15.6150  -20.2700    3.7540 C.2   158  VAL158      0.2260
     54  O         15.7360  -19.8760    4.9190 O.2   158  VAL158     -0.2867
     55  CB        15.6470  -22.7760    3.9990 C.3   158  VAL158      0.0252
     56  CG1       14.7790  -24.0310    3.9940 C.3   158  VAL158      0.0019
     57  CG2       16.9530  -23.0040    3.2210 C.3   158  VAL158      0.0019
     58  N         15.7330  -17.6310    6.9970 N.3   162  GLN162     -0.1245
     59  CA        17.0590  -17.7250    7.6200 C.3   162  GLN162      0.1566
     60  C         18.1590  -17.1930    6.6630 C.2   162  GLN162      0.2260
     61  O         18.8800  -17.9890    6.0530 O.2   162  GLN162     -0.2867
     62  CB        17.3340  -19.1960    8.0210 C.3   162  GLN162      0.0367
     63  CG        16.2700  -19.8510    8.9150 C.3   162  GLN162      0.0905
     64  CD        16.5800  -21.3040    9.3100 C.2   162  GLN162      0.2608
     65  OE1       15.7210  -22.1810    9.2080 O.2   162  GLN162     -0.2717
     66  NE2       17.7970  -21.5560    9.7790 N.am  162  GLN162     -0.0878
     67  N         21.9610  -18.5160    6.1510 N.3   165  LEU165     -0.1245
     68  CA        22.2470  -19.7660    5.4430 C.3   165  LEU165      0.1561
     69  C         23.0270  -19.5780    4.1330 C.2   165  LEU165      0.2260
     70  O         23.9270  -20.3570    3.8330 O.2   165  LEU165     -0.2867
     71  CB        20.9460  -20.5440    5.1940 C.3   165  LEU165      0.0270
     72  CG        20.1940  -21.0570    6.4310 C.3   165  LEU165      0.0019
     73  CD1       18.9890  -21.8980    6.0380 C.3   165  LEU165      0.0001
     74  CD2       21.1080  -21.8610    7.3370 C.3   165  LEU165      0.0001
     75  N         23.8870  -27.2400    8.7080 N.3   175  ASP175     -0.1225
     76  CA        22.5550  -26.7620    9.0240 C.3   175  ASP175      0.1805
     77  C         21.5290  -27.8800    9.0760 C.2   175  ASP175      0.2597
     78  O         20.8210  -28.0220   10.0640 O.2   175  ASP175     -0.2718
     79  CB        22.1120  -25.7520    7.9750 C.3   175  ASP175      0.1424
     80  CG        20.7030  -25.2600    8.2040 C.2   175  ASP175      0.3668
     81  OD1       20.4140  -24.8490    9.3460 O.co2 175  ASP175     -0.2456
     82  OD2       19.8930  -25.2790    7.2520 O.co2 175  ASP175     -0.2456
     83  N         21.4300  -28.6450    7.9920 N.am  176  LEU176     -0.1979
     84  CA        20.3300  -29.5980    7.7830 C.3   176  LEU176      0.1596
     85  C         20.7800  -31.0480    7.8740 C.2   176  LEU176      0.2287
     86  O         20.1420  -31.8480    8.5450 O.2   176  LEU176     -0.2864
     87  CB        19.6810  -29.3280    6.4220 C.3   176  LEU176      0.0297
     88  CG        18.4910  -30.1730    5.9130 C.3   176  LEU176      0.0022
     89  CD1       18.9520  -31.4140    5.1420 C.3   176  LEU176      0.0001
     90  CD2       17.4980  -30.5320    7.0230 C.3   176  LEU176      0.0001
     91  N         20.8640  -33.0200   11.1000 N.3   179  HIS179     -0.1241
     92  CA        19.6560  -33.7390   11.4970 C.3   179  HIS179      0.1621
     93  C         19.6370  -35.1300   10.8810 C.2   179  HIS179      0.2264
     94  O         19.5000  -36.1250   11.5930 O.2   179  HIS179     -0.2867
     95  CB        18.3890  -33.0190   11.0360 C.3   179  HIS179      0.0745
     96  CG        18.1620  -31.6840   11.6720 C.ar  179  HIS179      0.0817
     97  ND1       17.6860  -31.5400   12.9560 N.ar  179  HIS179     -0.2268
     98  CD2       18.2910  -30.4310   11.1770 C.ar  179  HIS179      0.1154
     99  CE1       17.5620  -30.2560   13.2360 C.ar  179  HIS179      0.1986
    100  NE2       17.9230  -29.5610   12.1730 N.ar  179  HIS179     -0.2212
    101  N         19.4220  -28.7620   -1.2630 N.3   229  TYR229     -0.1241
    102  CA        18.4490  -27.6650   -1.3940 C.3   229  TYR229      0.1605
    103  C         18.3700  -27.1420   -2.8290 C.2   229  TYR229      0.2264
    104  O         17.8960  -26.0340   -3.0490 O.2   229  TYR229     -0.2867
    105  CB        18.7270  -26.5360   -0.3840 C.3   229  TYR229      0.0534
    106  CG        18.0870  -26.7870    0.9780 C.ar  229  TYR229     -0.0201
    107  CD1       16.6910  -26.8160    1.1210 C.ar  229  TYR229     -0.0009
    108  CD2       18.8720  -27.0020    2.1220 C.ar  229  TYR229     -0.0009
    109  CE1       16.1020  -27.0500    2.3480 C.ar  229  TYR229      0.0417
    110  CE2       18.2840  -27.2390    3.3540 C.ar  229  TYR229      0.0417
    111  CZ        16.9030  -27.2600    3.4570 C.ar  229  TYR229      0.1957
    112  OH        16.3180  -27.5100    4.6670 O.3   229  TYR229     -0.2866
    113  N          9.3710  -30.6670    1.2840 N.3   238  PHE238     -0.1241
    114  CA         9.8910  -29.9980    2.4800 C.3   238  PHE238      0.1605
    115  C          8.8280  -29.8870    3.5870 C.2   238  PHE238      0.2264
    116  O          7.7350  -29.4170    3.2880 O.2   238  PHE238     -0.2867
    117  CB        10.3770  -28.6020    2.0780 C.3   238  PHE238      0.0534
    118  CG        10.7530  -27.7260    3.2290 C.ar  238  PHE238     -0.0203
    119  CD1        9.7860  -26.9530    3.8840 C.ar  238  PHE238     -0.0042
    120  CD2       12.0720  -27.6560    3.6600 C.ar  238  PHE238     -0.0042
    121  CE1       10.1270  -26.1390    4.9550 C.ar  238  PHE238     -0.0003
    122  CE2       12.4190  -26.8380    4.7300 C.ar  238  PHE238     -0.0003
    123  CZ        11.4440  -26.0790    5.3770 C.ar  238  PHE238     -0.0000
    124  N          5.5170  -26.4500    8.0850 N.3   285  TRP285     -0.1241
    125  CA         6.4190  -26.5720    9.2290 C.3   285  TRP285      0.1605
    126  C          5.8190  -27.3870   10.3850 C.2   285  TRP285      0.2264
    127  O          6.5410  -27.7620   11.3040 O.2   285  TRP285     -0.2867
    128  CB         6.7910  -25.1770    9.7580 C.3   285  TRP285      0.0550
    129  CG         7.4910  -24.2890    8.7610 C.ar  285  TRP285      0.0003
    130  CD1        6.9150  -23.5550    7.7580 C.ar  285  TRP285      0.0946
    131  CD2        8.8970  -24.0250    8.6960 C.ar  285  TRP285      0.0152
    132  NE1        7.8760  -22.8650    7.0640 N.ar  285  TRP285     -0.2442
    133  CE2        9.1020  -23.1250    7.6220 C.ar  285  TRP285      0.0810
    134  CE3       10.0110  -24.4630    9.4430 C.ar  285  TRP285      0.0012
    135  CZ2       10.3810  -22.6530    7.2680 C.ar  285  TRP285      0.0191
    136  CZ3       11.2910  -23.9930    9.0940 C.ar  285  TRP285      0.0001
    137  CH2       11.4590  -23.0960    8.0120 C.ar  285  TRP285      0.0015
    138  N          7.8930  -30.2250   12.0540 N.3   288  ILE288     -0.1245
    139  CA         9.0020  -29.8170   12.9350 C.3   288  ILE288      0.1561
    140  C          8.4740  -29.1580   14.2120 C.2   288  ILE288      0.2260
    141  O          9.0040  -29.3700   15.3060 O.2   288  ILE288     -0.2867
    142  CB         9.9550  -28.8220   12.2190 C.3   288  ILE288      0.0252
    143  CG1       10.6440  -29.5020   11.0150 C.3   288  ILE288      0.0019
    144  CG2       10.9980  -28.2410   13.1890 C.3   288  ILE288      0.0019
    145  CD1       11.1580  -28.5450    9.9610 C.3   288  ILE288      0.0001
@<TRIPOS>BOND
     1   104   103    2
     2   103   102    1
     3   102   101    1
     4   102   105    1
     5   105   106    1
     6   106   107   ar
     7   106   108   ar
     8   107   109   ar
     9    42    43    2
    10    42    41    1
    11   113   114    1
    12    51    52    1
    13   117   114    1
    14   117   118    1
    15   108   110   ar
    16    40    41    1
    17   109   111   ar
    18    41    44    1
    19   114   115    1
    20    57    55    1
    21   118   120   ar
    22   118   119   ar
    23   116   115    2
    24   110   111   ar
    25    46    48   ar
    26    46    45   ar
    27    52    53    1
    28    52    55    1
    29   111   112    1
    30   120   122   ar
    31    44    45    1
    32    53    54    2
    33    48    50   ar
    34    70    69    2
    35   119   121   ar
    36    56    55    1
    37    45    47   ar
    38    69    68    1
    39   122   123   ar
    40    50    49   ar
    41   121   123   ar
    42    89    88    1
    43    71    68    1
    44    71    72    1
    45    47    49   ar
    46    68    67    1
    47    88    87    1
    48    88    90    1
    49    73    72    1
    50    61    60    2
    51    87    84    1
    52    72    74    1
    53    60    59    1
    54    58    59    1
    55   132   133   ar
    56   132   130   ar
    57    82    80   ar
    58   135   133   ar
    59   135   137   ar
    60    59    62    1
    61   133   131   ar
    62   130   129   ar
    63    84    85    1
    64    84    83    1
    65    85    86    2
    66    79    80    1
    67    79    76    1
    68    83    77   am
    69   137   136   ar
    70    62    63    1
    71   124   125    1
    72    80    81   ar
    73   131   129   ar
    74   131   134   ar
    75    75    76    1
    76   129   128    1
    77    63    64    1
    78    76    77    1
    79    77    78    2
    80   136   134   ar
    81    65    64    2
    82   125   128    1
    83   125   126    1
    84    38    39   ar
    85    38    36   ar
    86    64    66   am
    87    39    37   ar
    88   145   143    1
    89    36    34   ar
    90   126   127    2
    91    37    35   ar
    92    93    92    1
    93    93    94    2
    94   143   142    1
    95    95    92    1
    96    95    96    1
    97    91    92    1
    98    98    96   ar
    99    98   100   ar
   100    34    35   ar
   101    34    33    1
   102    96    97   ar
   103   138   139    1
   104   100    99   ar
   105   142   139    1
   106   142   144    1
   107    20    19    1
   108    33    30    1
   109   139   140    1
   110    97    99   ar
   111    19    18    1
   112    30    31    1
   113    30    29    1
   114    32    31    2
   115   140   141    2
   116     7     9   ar
   117     7     6   ar
   118     9    11   ar
   119    18    17    1
   120     1     2    1
   121    29    23   am
   122    27    26    2
   123     5     6    1
   124     5     2    1
   125     6     8   ar
   126     2     3    1
   127    11    10   ar
   128    15    14    2
   129    17    16    1
   130    14    13    1
   131    24    23    2
   132    23    22    1
   133    16    13    1
   134    26    28   am
   135    26    25    1
   136     8    10   ar
   137    13    12    1
   138     3     4    2
   139    22    21    1
   140    22    25    1
