@<TRIPOS>MOLECULE
tmp/5uidC00.pdb
 77 71 0 0 0
SMALL
GASTEIGER

@<TRIPOS>ATOM
      1  N         31.8340   99.3560   58.1140 N.3    17  VAL17      -0.1245
      2  CA        31.5860   98.7750   59.4300 C.3    17  VAL17       0.1561
      3  C         30.6810   99.6840   60.2500 C.2    17  VAL17       0.2260
      4  O         29.7480   99.2200   60.9170 O.2    17  VAL17      -0.2867
      5  CB        32.9180   98.5120   60.1560 C.3    17  VAL17       0.0252
      6  CG1       32.6670   97.8950   61.5250 C.3    17  VAL17       0.0019
      7  CG2       33.8130   97.6270   59.3170 C.3    17  VAL17       0.0019
      8  N         27.1350   98.5300   62.0110 N.3    21  PHE21      -0.1241
      9  CA        26.8560   98.6990   63.4340 C.3    21  PHE21       0.1605
     10  C         25.5780   99.5010   63.6470 C.2    21  PHE21       0.2264
     11  O         24.7260   99.1290   64.4630 O.2    21  PHE21      -0.2867
     12  CB        28.0340   99.3840   64.1320 C.3    21  PHE21       0.0534
     13  CG        29.2340   98.4960   64.3270 C.ar   21  PHE21      -0.0203
     14  CD1       29.2200   97.1780   63.9010 C.ar   21  PHE21      -0.0042
     15  CD2       30.3730   98.9840   64.9470 C.ar   21  PHE21      -0.0042
     16  CE1       30.3230   96.3640   64.0830 C.ar   21  PHE21      -0.0003
     17  CE2       31.4790   98.1770   65.1340 C.ar   21  PHE21      -0.0003
     18  CZ        31.4540   96.8630   64.7000 C.ar   21  PHE21      -0.0000
     19  N         33.0440   81.1080   56.0950 N.3    54  SER54      -0.1217
     20  CA        33.7870   81.7800   57.1580 C.3    54  SER54       0.1889
     21  C         35.2640   81.9520   56.8170 C.2    54  SER54       0.2288
     22  O         35.8810   82.9370   57.2400 O.2    54  SER54      -0.2866
     23  CB        33.6350   81.0080   58.4690 C.3    54  SER54       0.2089
     24  OG        34.1050   79.6800   58.3280 O.3    54  SER54      -0.2183
     25  N         39.1870   90.7720   54.6900 N.3   183  THR183     -0.1203
     26  CA        38.0360   91.1040   55.5240 C.3   183  THR183      0.1994
     27  C         38.2560   90.6950   56.9770 C.2   183  THR183      0.2618
     28  O         37.2880   90.5460   57.7300 O.2   183  THR183     -0.2717
     29  CB        36.7640   90.4460   54.9780 C.3   183  THR183      0.1784
     30  OG1       36.8480   89.0240   55.1380 O.3   183  THR183     -0.2211
     31  CG2       36.5890   90.7610   53.5070 C.3   183  THR183      0.0376
     32  N         39.5110   90.5210   57.3890 N.am  184  GLY184     -0.1942
     33  CA        39.8180   89.9870   58.7020 C.3   184  GLY184      0.2014
     34  C         39.8250   88.4760   58.6550 C.2   184  GLY184      0.2638
     35  O         40.8840   87.8420   58.6750 O.2   184  GLY184     -0.2714
     36  N         38.6330   87.8900   58.5990 N.am  185  ASP185     -0.1971
     37  CA        38.4600   86.5080   58.1880 C.3   185  ASP185      0.1709
     38  C         37.2870   86.4460   57.2230 C.2   185  ASP185      0.2293
     39  O         36.3330   87.2200   57.3330 O.2   185  ASP185     -0.2864
     40  CB        38.2350   85.5670   59.3840 C.3   185  ASP185      0.1436
     41  CG        39.5370   85.0230   59.9490 C.2   185  ASP185      0.3671
     42  OD1       40.4380   84.6790   59.1510 O.co2 185  ASP185     -0.2456
     43  OD2       39.6620   84.9410   61.1900 O.co2 185  ASP185     -0.2456
     44  N         29.7580   83.4480   57.0110 N.3   224  SER224     -0.1202
     45  CA        30.3650   84.7110   57.3940 C.3   224  SER224      0.2020
     46  C         29.2700   85.6350   57.9340 C.2   224  SER224      0.2618
     47  O         28.1890   85.1740   58.3180 O.2   224  SER224     -0.2717
     48  CB        31.1160   85.3000   56.1940 C.3   224  SER224      0.2103
     49  OG        31.9410   86.3810   56.5910 O.3   224  SER224     -0.2182
     50  N         29.5330   86.9420   57.9600 N.am  225  ASN225     -0.1974
     51  CA        28.5690   87.8910   58.4970 C.3   225  ASN225      0.1688
     52  C         28.6280   89.1870   57.6980 C.2   225  ASN225      0.2292
     53  O         29.5240   89.4000   56.8770 O.2   225  ASN225     -0.2864
     54  CB        28.8140   88.1550   59.9890 C.3   225  ASN225      0.1181
     55  CG        30.2250   88.6300   60.2730 C.2   225  ASN225      0.2629
     56  OD1       30.6030   89.7430   59.9070 O.2   225  ASN225     -0.2716
     57  ND2       31.0120   87.7890   60.9350 N.am  225  ASN225     -0.0877
     58  N         29.2440   92.2200   58.6710 N.3   227  VAL227     -0.1231
     59  CA        30.3700   93.1010   58.9640 C.3   227  VAL227      0.1692
     60  C         31.5240   92.8000   58.0170 C.2   227  VAL227      0.2591
     61  O         32.0210   93.6860   57.3110 O.2   227  VAL227     -0.2718
     62  CB        30.7970   92.9690   60.4360 C.3   227  VAL227      0.0266
     63  CG1       31.7840   94.0620   60.7840 C.3   227  VAL227      0.0020
     64  CG2       29.5860   93.0330   61.3530 C.3   227  VAL227      0.0020
     65  N         31.9530   91.5350   57.9800 N.am  228  ALA228     -0.1980
     66  CA        32.9970   91.1310   57.0470 C.3   228  ALA228      0.1597
     67  C         32.5550   91.3260   55.6030 C.2   228  ALA228      0.2287
     68  O         33.3520   91.7370   54.7520 O.2   228  ALA228     -0.2864
     69  CB        33.3850   89.6710   57.2930 C.3   228  ALA228      0.0319
     70  N         32.8990   94.8870   54.5360 N.3   231  ILE231     -0.1245
     71  CA        34.3080   95.1700   54.2850 C.3   231  ILE231      0.1561
     72  C         34.7330   94.5910   52.9430 C.2   231  ILE231      0.2260
     73  O         35.4970   95.2130   52.1950 O.2   231  ILE231     -0.2867
     74  CB        35.1740   94.6220   55.4330 C.3   231  ILE231      0.0252
     75  CG1       34.8240   95.3160   56.7480 C.3   231  ILE231      0.0019
     76  CG2       36.6580   94.7770   55.1110 C.3   231  ILE231      0.0019
     77  CD1       35.5500   94.7410   57.9400 C.3   231  ILE231      0.0001
@<TRIPOS>BOND
     1    73    72    2
     2    72    71    1
     3    31    29    1
     4    71    70    1
     5    71    74    1
     6    25    26    1
     7    68    67    2
     8    29    30    1
     9    29    26    1
    10    76    74    1
    11    74    75    1
    12    26    27    1
    13    67    66    1
    14    19    20    1
    15    48    49    1
    16    48    45    1
    17    75    77    1
    18    21    20    1
    19    21    22    2
    20    53    52    2
    21    27    32   am
    22    27    28    2
    23    44    45    1
    24    66    69    1
    25    66    65    1
    26    20    23    1
    27    38    39    2
    28    38    37    1
    29    61    60    2
    30    32    33    1
    31    45    46    1
    32    52    51    1
    33    46    50   am
    34    46    47    2
    35    50    51    1
    36    65    60   am
    37    60    59    1
    38     1     2    1
    39    37    36    1
    40    37    40    1
    41    24    23    1
    42    51    54    1
    43    36    34   am
    44    34    35    2
    45    34    33    1
    46    58    59    1
    47    59    62    1
    48    42    41   ar
    49     7     5    1
    50    40    41    1
    51     2     5    1
    52     2     3    1
    53    56    55    2
    54    41    43   ar
    55    54    55    1
    56     5     6    1
    57     3     4    2
    58    55    57   am
    59    62    63    1
    60    62    64    1
    61     8     9    1
    62     9    10    1
    63     9    12    1
    64    10    11    2
    65    14    16   ar
    66    14    13   ar
    67    16    18   ar
    68    12    13    1
    69    13    15   ar
    70    18    17   ar
    71    15    17   ar
