@<TRIPOS>MOLECULE
tmp/5uigA00.pdb
 153 144 0 0 0
SMALL
GASTEIGER

@<TRIPOS>ATOM
      1  N        175.3090   12.5350    5.2630 N.3    33  ASN33      -0.1225
      2  CA       175.5580   12.3590    6.6900 C.3    33  ASN33       0.1785
      3  C        174.3890   12.8670    7.5260 C.2    33  ASN33       0.2597
      4  O        174.0010   12.2290    8.5120 O.2    33  ASN33      -0.2718
      5  CB       176.8500   13.0730    7.0850 C.3    33  ASN33       0.1169
      6  CG       178.0060   12.7270    6.1700 C.2    33  ASN33       0.2627
      7  OD1      178.1060   11.6020    5.6780 O.2    33  ASN33      -0.2716
      8  ND2      178.8830   13.6960    5.9310 N.am   33  ASN33      -0.0877
      9  N        173.8190   14.0080    7.1520 N.am   34  LEU34      -0.1980
     10  CA       172.6930   14.5910    7.8780 C.3    34  LEU34       0.1596
     11  C        171.3990   13.8290    7.6760 C.2    34  LEU34       0.2287
     12  O        170.3450   14.3440    8.0680 O.2    34  LEU34      -0.2864
     13  CB       172.5070   16.0480    7.4550 C.3    34  LEU34       0.0297
     14  CG       173.6760   16.9900    7.7440 C.3    34  LEU34       0.0022
     15  CD1      173.5120   18.2950    6.9840 C.3    34  LEU34       0.0001
     16  CD2      173.7950   17.2510    9.2370 C.3    34  LEU34       0.0001
     17  N        170.2410   11.2100    9.1690 N.3    36  ASN36      -0.1240
     18  CA       169.8190   10.3940   10.2990 C.3    36  ASN36       0.1653
     19  C        168.3560   10.6670   10.6330 C.2    36  ASN36       0.2266
     20  O        167.8210   11.7450   10.3540 O.2    36  ASN36      -0.2867
     21  CB       170.7020   10.6600   11.5180 C.3    36  ASN36       0.1155
     22  CG       170.8780   12.1410   11.8030 C.2    36  ASN36       0.2627
     23  OD1      171.1700   12.9280   10.9020 O.2    36  ASN36      -0.2716
     24  ND2      170.7010   12.5260   13.0620 N.am   36  ASN36      -0.0877
     25  N        166.8300   11.3090   13.3040 N.3    38  THR38      -0.1203
     26  CA       166.5840   12.4740   14.1500 C.3    38  THR38       0.1994
     27  C        166.3170   13.7180   13.3170 C.2    38  THR38       0.2617
     28  O        165.6100   14.6280   13.7660 O.2    38  THR38      -0.2717
     29  CB       167.7730   12.7130   15.0850 C.3    38  THR38       0.1784
     30  OG1      167.9930   11.5490   15.8920 O.3    38  THR38      -0.2211
     31  CG2      167.5050   13.9080   15.9890 C.3    38  THR38       0.0376
     32  N        166.8690   13.7770   12.1050 N.am   39  ASN39      -0.1974
     33  CA       166.6250   14.9070   11.2190 C.3    39  ASN39       0.1688
     34  C        165.3080   14.7820   10.4660 C.2    39  ASN39       0.2292
     35  O        164.7780   15.8010   10.0080 O.2    39  ASN39      -0.2864
     36  CB       167.7840   15.0610   10.2350 C.3    39  ASN39       0.1181
     37  CG       169.0990   15.3510   10.9310 C.2    39  ASN39       0.2629
     38  OD1      169.1200   15.8580   12.0550 O.2    39  ASN39      -0.2716
     39  ND2      170.2050   15.0300   10.2700 N.am   39  ASN39      -0.0877
     40  N        163.5330   16.9890   12.3240 N.3    42  VAL42      -0.1245
     41  CA       164.0560   18.3190   12.0360 C.3    42  VAL42       0.1561
     42  C        163.4230   18.8800   10.7710 C.2    42  VAL42       0.2260
     43  O        163.2310   20.0960   10.6470 O.2    42  VAL42      -0.2867
     44  CB       165.5930   18.2790   11.9240 C.3    42  VAL42       0.0252
     45  CG1      166.1180   19.6050   11.3950 C.3    42  VAL42       0.0019
     46  CG2      166.2160   17.9530   13.2740 C.3    42  VAL42       0.0019
     47  N        161.8350   14.7870   18.7100 N.3    95  ILE95      -0.1245
     48  CA       163.2840   14.9020   18.8530 C.3    95  ILE95       0.1561
     49  C        163.6870   14.7370   20.3110 C.2    95  ILE95       0.2260
     50  O        164.6850   14.0770   20.6250 O.2    95  ILE95      -0.2867
     51  CB       163.7780   16.2420   18.2760 C.3    95  ILE95       0.0252
     52  CG1      163.4960   16.3120   16.7740 C.3    95  ILE95       0.0019
     53  CG2      165.2610   16.4270   18.5530 C.3    95  ILE95       0.0019
     54  CD1      164.0280   17.5640   16.1120 C.3    95  ILE95       0.0001
     55  N        165.9310   11.6360   21.2590 N.3    99  ARG99      -0.1245
     56  CA       167.2380   11.7870   21.8870 C.3    99  ARG99       0.1563
     57  C        167.3010   11.1050   23.2490 C.2    99  ARG99       0.2260
     58  O        168.3670   10.6240   23.6460 O.2    99  ARG99      -0.2867
     59  CB       167.5900   13.2710   22.0180 C.3    99  ARG99       0.0307
     60  CG       167.6770   14.0180   20.6910 C.3    99  ARG99       0.0489
     61  CD       168.9130   13.6300   19.8870 C.3    99  ARG99       0.2205
     62  NE       168.8540   12.2590   19.3860 N.pl3  99  ARG99      -0.0865
     63  CZ       169.7510   11.7240   18.5620 C.cat  99  ARG99       0.5346
     64  NH1      170.7800   12.4460   18.1390 N.pl3  99  ARG99       0.1354
     65  NH2      169.6180   10.4680   18.1580 N.pl3  99  ARG99       0.1354
     66  N        176.2400   17.9130   24.2860 N.3   306  HIS306     -0.1226
     67  CA       176.0080   18.6420   23.0440 C.3   306  HIS306      0.1752
     68  C        174.5870   18.4330   22.5310 C.2   306  HIS306      0.2595
     69  O        173.9850   19.3570   21.9730 O.2   306  HIS306     -0.2718
     70  CB       177.0240   18.2200   21.9860 C.3   306  HIS306      0.0759
     71  CG       176.8550   18.9240   20.6760 C.ar  306  HIS306      0.0818
     72  ND1      175.9950   18.4780   19.6960 N.ar  306  HIS306     -0.2268
     73  CD2      177.4330   20.0470   20.1860 C.ar  306  HIS306      0.1154
     74  CE1      176.0510   19.2930   18.6580 C.ar  306  HIS306      0.1986
     75  NE2      176.9170   20.2530   18.9290 N.ar  306  HIS306     -0.2212
     76  N        174.0400   17.2290   22.7010 N.am  307  ALA307     -0.1980
     77  CA       172.6870   16.9560   22.2250 C.3   307  ALA307      0.1597
     78  C        171.6420   17.5890   23.1350 C.2   307  ALA307      0.2287
     79  O        170.7620   18.3220   22.6670 O.2   307  ALA307     -0.2864
     80  CB       172.4630   15.4470   22.1150 C.3   307  ALA307      0.0319
     81  N        171.8860   21.3050   22.8200 N.3   310  SER310     -0.1202
     82  CA       171.2460   21.6890   21.5670 C.3   310  SER310      0.2020
     83  C        169.7300   21.6190   21.6920 C.2   310  SER310      0.2618
     84  O        169.0310   22.6270   21.5410 O.2   310  SER310     -0.2717
     85  CB       171.7370   20.7920   20.4290 C.3   310  SER310      0.2103
     86  OG       173.1160   20.9890   20.1810 O.3   310  SER310     -0.2182
     87  N        169.2020   20.4270   21.9780 N.am  311  LEU311     -0.1979
     88  CA       167.7570   20.2690   22.0870 C.3   311  LEU311      0.1596
     89  C        167.1790   21.2020   23.1430 C.2   311  LEU311      0.2287
     90  O        166.0740   21.7300   22.9780 O.2   311  LEU311     -0.2864
     91  CB       167.4110   18.8120   22.4020 C.3   311  LEU311      0.0297
     92  CG       165.9430   18.4090   22.2540 C.3   311  LEU311      0.0022
     93  CD1      165.8280   16.9200   21.9770 C.3   311  LEU311      0.0001
     94  CD2      165.1520   18.7800   23.4970 C.3   311  LEU311      0.0001
     95  N        166.9200   24.6590   21.4260 N.3   314  ILE314     -0.1245
     96  CA       165.7720   24.6580   20.5200 C.3   314  ILE314      0.1561
     97  C        164.4800   24.8170   21.3110 C.2   314  ILE314      0.2260
     98  O        163.7060   25.7570   21.0990 O.2   314  ILE314     -0.2867
     99  CB       165.7490   23.3750   19.6700 C.3   314  ILE314      0.0252
    100  CG1      166.6720   23.5050   18.4540 C.3   314  ILE314      0.0019
    101  CG2      164.3280   23.0540   19.2350 C.3   314  ILE314      0.0019
    102  CD1      168.1070   23.1360   18.7310 C.3   314  ILE314      0.0001
    103  N        170.9760   25.2810   14.4460 N.3   364  TYR364     -0.1241
    104  CA       171.6630   24.2000   13.7460 C.3   364  TYR364      0.1605
    105  C        172.9880   24.6680   13.1640 C.2   364  TYR364      0.2264
    106  O        173.9440   23.8880   13.0890 O.2   364  TYR364     -0.2867
    107  CB       170.7740   23.6370   12.6360 C.3   364  TYR364      0.0534
    108  CG       169.3840   23.2430   13.0810 C.ar  364  TYR364     -0.0201
    109  CD1      169.1150   22.9330   14.4070 C.ar  364  TYR364     -0.0009
    110  CD2      168.3390   23.1810   12.1700 C.ar  364  TYR364     -0.0009
    111  CE1      167.8440   22.5740   14.8110 C.ar  364  TYR364      0.0417
    112  CE2      167.0670   22.8230   12.5650 C.ar  364  TYR364      0.0417
    113  CZ       166.8240   22.5220   13.8850 C.ar  364  TYR364      0.1957
    114  OH       165.5560   22.1640   14.2810 O.3   364  TYR364     -0.2866
    115  N        175.3840   24.9370   16.1610 N.3   367  ARG367     -0.1231
    116  CA       175.5760   23.6950   16.9010 C.3   367  ARG367      0.1694
    117  C        176.0080   22.5530   15.9920 C.2   367  ARG367      0.2592
    118  O        177.1160   22.0300   16.1500 O.2   367  ARG367     -0.2718
    119  CB       174.2870   23.3300   17.6500 C.3   367  ARG367      0.0321
    120  CG       173.8230   24.3810   18.6460 C.3   367  ARG367      0.0489
    121  CD       174.8010   24.5110   19.8000 C.3   367  ARG367      0.2205
    122  NE       174.8930   23.2770   20.5730 N.pl3 367  ARG367     -0.0865
    123  CZ       175.7950   23.0560   21.5240 C.cat 367  ARG367      0.5346
    124  NH1      176.6900   23.9900   21.8190 N.pl3 367  ARG367      0.1354
    125  NH2      175.8040   21.9020   22.1780 N.pl3 367  ARG367      0.1354
    126  N        175.1660   22.1520   15.0430 N.am  368  ILE368     -0.1966
    127  CA       175.4650   21.0210   14.1700 C.3   368  ILE368      0.1727
    128  C        176.5860   21.4290   13.2180 C.2   368  ILE368      0.2616
    129  O        176.3800   22.2480   12.3170 O.2   368  ILE368     -0.2715
    130  CB       174.2180   20.5630   13.4050 C.3   368  ILE368      0.0290
    131  CG1      173.1460   20.0780   14.3840 C.3   368  ILE368      0.0022
    132  CG2      174.5750   19.4730   12.4050 C.3   368  ILE368      0.0023
    133  CD1      171.8500   19.6680   13.7200 C.3   368  ILE368      0.0001
    134  N        177.7760   20.8550   13.4130 N.am  369  ARG369     -0.1963
    135  CA       178.9010   21.1740   12.5390 C.3   369  ARG369      0.1729
    136  C        178.7190   20.5620   11.1570 C.2   369  ARG369      0.2616
    137  O        179.0930   21.1710   10.1470 O.2   369  ARG369     -0.2715
    138  CB       180.2070   20.6960   13.1710 C.3   369  ARG369      0.0348
    139  CG       181.4640   20.9850   12.3380 C.3   369  ARG369      0.0492
    140  CD       182.7180   20.6650   13.1180 C.3   369  ARG369      0.2205
    141  NE       182.7920   19.2780   13.5420 N.pl3 369  ARG369     -0.0865
    142  CZ       183.2410   18.2840   12.8480 C.cat 369  ARG369      0.5346
    143  NH1      183.6320   18.4110   11.5560 N.pl3 369  ARG369      0.1354
    144  NH2      183.2620   17.0670   13.3080 N.pl3 369  ARG369      0.1354
    145  N        178.1490   19.3570   11.0900 N.am  370  GLU370     -0.1977
    146  CA       177.9110   18.7180    9.7990 C.3   370  GLU370      0.1602
    147  C        177.0600   19.6050    8.9010 C.2   370  GLU370      0.2287
    148  O        177.4120   19.8630    7.7450 O.2   370  GLU370     -0.2864
    149  CB       177.2430   17.3580   10.0040 C.3   370  GLU370      0.0415
    150  CG       176.9250   16.6240    8.7130 C.3   370  GLU370      0.1163
    151  CD       178.1660   16.3190    7.8990 C.2   370  GLU370      0.3649
    152  OE1      179.2800   16.4190    8.4540 O.co2 370  GLU370     -0.2457
    153  OE2      178.0280   15.9820    6.7040 O.co2 370  GLU370     -0.2457
@<TRIPOS>BOND
     1     1     2    1
     2     7     6    2
     3     8     6   am
     4     6     5    1
     5     2     5    1
     6     2     3    1
     7   153   151   ar
     8    15    14    1
     9     9     3   am
    10     9    10    1
    11    13    14    1
    12    13    10    1
    13     3     4    2
    14    11    10    1
    15    11    12    2
    16    14    16    1
    17   148   147    2
    18   151   152   ar
    19   151   150    1
    20   150   149    1
    21   147   146    1
    22    17    18    1
    23   146   149    1
    24   146   145    1
    25    35    34    2
    26   137   136    2
    27    36    37    1
    28    36    33    1
    29    39    37   am
    30    18    19    1
    31    18    21    1
    32    20    19    2
    33    34    33    1
    34    43    42    2
    35    42    41    1
    36    23    22    2
    37    37    38    2
    38   145   136   am
    39   136   135    1
    40    33    32    1
    41    45    44    1
    42    21    22    1
    43   143   142    1
    44    22    24   am
    45    44    41    1
    46    44    46    1
    47    41    40    1
    48    32    27   am
    49   110   112   ar
    50   110   108   ar
    51   129   128    2
    52   139   140    1
    53   139   138    1
    54   132   130    1
    55   135   138    1
    56   135   134    1
    57   112   113   ar
    58   107   108    1
    59   107   104    1
    60   142   144    1
    61   142   141    2
    62   108   109   ar
    63   106   105    2
    64   140   141    1
    65   105   104    1
    66   128   134   am
    67   128   127    1
    68    25    26    1
    69    27    28    2
    70    27    26    1
    71   130   127    1
    72   130   131    1
    73   133   131    1
    74   104   103    1
    75   113   114    1
    76   113   111   ar
    77    26    29    1
    78   127   126    1
    79   109   111   ar
    80   126   117   am
    81    29    30    1
    82    29    31    1
    83   117   118    2
    84   117   116    1
    85    54    52    1
    86   115   116    1
    87    52    51    1
    88   116   119    1
    89   119   120    1
    90    64    63    1
    91    65    63    1
    92    51    53    1
    93    51    48    1
    94   100   102    1
    95   100    99    1
    96    63    62    2
    97   120   121    1
    98    74    75   ar
    99    74    72   ar
   100    47    48    1
   101    48    49    1
   102    75    73   ar
   103   101    99    1
   104    62    61    1
   105    99    96    1
   106    72    71   ar
   107   121   122    1
   108    61    60    1
   109    86    85    1
   110    73    71   ar
   111    49    50    2
   112    85    82    1
   113    96    97    1
   114    96    95    1
   115   122   123    2
   116    71    70    1
   117    60    59    1
   118    98    97    2
   119    55    56    1
   120   123   124    1
   121   123   125    1
   122    84    83    2
   123    82    83    1
   124    82    81    1
   125    83    87   am
   126    56    59    1
   127    56    57    1
   128    69    68    2
   129    93    92    1
   130    87    88    1
   131    70    67    1
   132    88    91    1
   133    88    89    1
   134    80    77    1
   135    77    76    1
   136    77    78    1
   137    92    91    1
   138    92    94    1
   139    68    76   am
   140    68    67    1
   141    79    78    2
   142    90    89    2
   143    67    66    1
   144    57    58    2
