@<TRIPOS>MOLECULE
tmp/5uigA01.pdb
 88 85 0 0 0
SMALL
GASTEIGER

@<TRIPOS>ATOM
      1  N        166.9980   25.6090    3.4520 N.3    23  LEU23      -0.1245
      2  CA       168.3960   25.1910    3.4700 C.3    23  LEU23       0.1561
      3  C        168.5800   23.9390    4.3140 C.2    23  LEU23       0.2260
      4  O        169.2950   23.0100    3.9180 O.2    23  LEU23      -0.2867
      5  CB       169.2770   26.3230    3.9950 C.3    23  LEU23       0.0270
      6  CG       169.4850   27.5130    3.0610 C.3    23  LEU23       0.0019
      7  CD1      170.2590   28.6090    3.7700 C.3    23  LEU23       0.0001
      8  CD2      170.2130   27.0710    1.8030 C.3    23  LEU23       0.0001
      9  N        167.6010   20.9690    2.2960 N.3    26  TRP26      -0.1227
     10  CA       168.6210   20.6210    1.3130 C.3    26  TRP26       0.1737
     11  C        169.7680   19.8660    1.9720 C.2    26  TRP26       0.2595
     12  O        170.1430   18.7730    1.5310 O.2    26  TRP26      -0.2718
     13  CB       169.1320   21.8830    0.6170 C.3    26  TRP26       0.0564
     14  CG       168.1130   22.5280   -0.2680 C.ar   26  TRP26       0.0003
     15  CD1      166.9140   22.0040   -0.6530 C.ar   26  TRP26       0.0946
     16  CD2      168.2010   23.8210   -0.8790 C.ar   26  TRP26       0.0152
     17  NE1      166.2500   22.8890   -1.4660 N.ar   26  TRP26      -0.2442
     18  CE2      167.0180   24.0120   -1.6210 C.ar   26  TRP26       0.0810
     19  CE3      169.1630   24.8340   -0.8700 C.ar   26  TRP26       0.0012
     20  CZ2      166.7730   25.1740   -2.3470 C.ar   26  TRP26       0.0191
     21  CZ3      168.9180   25.9870   -1.5920 C.ar   26  TRP26       0.0001
     22  CH2      167.7330   26.1480   -2.3190 C.ar   26  TRP26       0.0015
     23  N        170.3380   20.4360    3.0360 N.am   27  ALA27      -0.1980
     24  CA       171.3890   19.7460    3.7730 C.3    27  ALA27       0.1597
     25  C        170.9110   18.3810    4.2530 C.2    27  ALA27       0.2287
     26  O        171.6160   17.3760    4.1080 O.2    27  ALA27      -0.2864
     27  CB       171.8540   20.6040    4.9500 C.3    27  ALA27       0.0319
     28  N        170.4710   16.6600    0.5240 N.3    30  LEU30      -0.1245
     29  CA       171.6790   16.5830   -0.2900 C.3    30  LEU30       0.1561
     30  C        172.8060   15.8970    0.4710 C.2    30  LEU30       0.2260
     31  O        173.4190   14.9440   -0.0250 O.2    30  LEU30      -0.2867
     32  CB       172.1040   17.9830   -0.7330 C.3    30  LEU30       0.0270
     33  CG       171.0230   18.8630   -1.3610 C.3    30  LEU30       0.0019
     34  CD1      171.6100   20.2020   -1.7830 C.3    30  LEU30       0.0001
     35  CD2      170.3770   18.1560   -2.5400 C.3    30  LEU30       0.0001
     36  N        173.0640   25.9320   12.7440 N.3   365  ALA365     -0.1245
     37  CA       174.3080   26.4670   12.2040 C.3   365  ALA365      0.1562
     38  C        175.3380   26.7290   13.2950 C.2   365  ALA365      0.2260
     39  O        176.5440   26.6250   13.0400 O.2   365  ALA365     -0.2867
     40  CB       174.0340   27.7520   11.4210 C.3   365  ALA365      0.0290
     41  N        175.9280   20.0840    9.4220 N.3   371  PHE371     -0.1227
     42  CA       175.0750   20.9780    8.6440 C.3   371  PHE371      0.1736
     43  C        175.8190   22.2360    8.2180 C.2   371  PHE371      0.2595
     44  O        175.5010   22.8220    7.1780 O.2   371  PHE371     -0.2718
     45  CB       173.8270   21.3390    9.4550 C.3   371  PHE371      0.0547
     46  CG       173.0210   22.4610    8.8660 C.ar  371  PHE371     -0.0202
     47  CD1      172.2180   22.2500    7.7590 C.ar  371  PHE371     -0.0042
     48  CD2      173.0600   23.7260    9.4270 C.ar  371  PHE371     -0.0042
     49  CE1      171.4760   23.2810    7.2170 C.ar  371  PHE371     -0.0003
     50  CE2      172.3190   24.7620    8.8910 C.ar  371  PHE371     -0.0003
     51  CZ       171.5260   24.5380    7.7850 C.ar  371  PHE371     -0.0000
     52  N        176.8200   22.6560    8.9920 N.am  372  ARG372     -0.1980
     53  CA       177.5220   23.9040    8.7210 C.3   372  ARG372      0.1597
     54  C        178.2610   23.8420    7.3850 C.2   372  ARG372      0.2287
     55  O        177.8650   24.5070    6.4230 O.2   372  ARG372     -0.2864
     56  CB       178.4830   24.2240    9.8700 C.3   372  ARG372      0.0334
     57  CG       179.0810   25.6160    9.8060 C.3   372  ARG372      0.0492
     58  CD       179.3470   26.1840   11.1920 C.3   372  ARG372      0.2205
     59  NE       180.2180   25.3240   11.9840 N.pl3 372  ARG372     -0.0865
     60  CZ       179.8090   24.5800   13.0070 C.cat 372  ARG372      0.5346
     61  NH1      180.6770   23.8260   13.6670 N.pl3 372  ARG372      0.1354
     62  NH2      178.5350   24.5950   13.3750 N.pl3 372  ARG372      0.1354
     63  N        178.1280   21.7210    5.1700 N.3   374  THR374     -0.1203
     64  CA       177.4510   20.7670    4.3020 C.3   374  THR374      0.1994
     65  C        177.4530   21.2020    2.8410 C.2   374  THR374      0.2617
     66  O        177.2870   20.3530    1.9580 O.2   374  THR374     -0.2717
     67  CB       176.0070   20.5520    4.7670 C.3   374  THR374      0.1784
     68  OG1      175.4200   19.4570    4.0480 O.3   374  THR374     -0.2211
     69  CG2      175.1840   21.8020    4.5200 C.3   374  THR374      0.0376
     70  N        177.6280   22.4960    2.5650 N.am  375  PHE375     -0.1975
     71  CA       177.6940   22.9510    1.1790 C.3   375  PHE375      0.1639
     72  C        178.9800   22.4840    0.5100 C.2   375  PHE375      0.2290
     73  O        178.9510   21.9000   -0.5800 O.2   375  PHE375     -0.2864
     74  CB       177.5760   24.4750    1.1200 C.3   375  PHE375      0.0560
     75  CG       177.7320   25.0400   -0.2620 C.ar  375  PHE375     -0.0200
     76  CD1      176.6810   25.0030   -1.1610 C.ar  375  PHE375     -0.0042
     77  CD2      178.9290   25.6090   -0.6610 C.ar  375  PHE375     -0.0042
     78  CE1      176.8200   25.5220   -2.4330 C.ar  375  PHE375     -0.0003
     79  CE2      179.0750   26.1310   -1.9320 C.ar  375  PHE375     -0.0003
     80  CZ       178.0190   26.0870   -2.8200 C.ar  375  PHE375     -0.0000
     81  N        178.5890   18.9300   -0.2410 N.3   378  ILE378     -0.1245
     82  CA       177.7790   18.6230   -1.4170 C.3   378  ILE378      0.1561
     83  C        178.5850   18.8540   -2.6880 C.2   378  ILE378      0.2260
     84  O        178.5050   18.0700   -3.6410 O.2   378  ILE378     -0.2867
     85  CB       176.4850   19.4560   -1.4070 C.3   378  ILE378      0.0252
     86  CG1      175.6760   19.1740   -0.1400 C.3   378  ILE378      0.0019
     87  CG2      175.6530   19.1600   -2.6420 C.3   378  ILE378      0.0019
     88  CD1      174.4450   20.0410    0.0050 C.3   378  ILE378      0.0001
@<TRIPOS>BOND
     1    84    83    2
     2    80    78   ar
     3    80    79   ar
     4    83    82    1
     5    87    85    1
     6    35    33    1
     7    78    76   ar
     8    20    22   ar
     9    20    18   ar
    10    22    21   ar
    11    79    77   ar
    12    34    33    1
    13    18    17   ar
    14    18    16   ar
    15    21    19   ar
    16    17    15   ar
    17    82    85    1
    18    82    81    1
    19    85    86    1
    20    33    32    1
    21    76    75   ar
    22    16    19   ar
    23    16    14   ar
    24    32    29    1
    25    77    75   ar
    26    15    14   ar
    27    73    72    2
    28    29    30    1
    29    29    28    1
    30    14    13    1
    31    75    74    1
    32    86    88    1
    33    31    30    2
    34    72    71    1
    35    13    10    1
    36    74    71    1
    37    71    70    1
    38    10    11    1
    39    10     9    1
    40    12    11    2
    41     8     6    1
    42    66    65    2
    43    11    23   am
    44    70    65   am
    45    65    64    1
    46    23    24    1
    47     6     7    1
    48     6     5    1
    49     1     2    1
    50     2     5    1
    51     2     3    1
    52    24    25    1
    53    24    27    1
    54     4     3    2
    55    68    67    1
    56    26    25    2
    57    64    67    1
    58    64    63    1
    59    69    67    1
    60    55    54    2
    61    44    43    2
    62    49    47   ar
    63    49    51   ar
    64    54    53    1
    65    47    46   ar
    66    51    50   ar
    67    43    42    1
    68    43    52   am
    69    42    41    1
    70    42    45    1
    71    53    52    1
    72    53    56    1
    73    46    48   ar
    74    46    45    1
    75    50    48   ar
    76    57    56    1
    77    57    58    1
    78    58    59    1
    79    40    37    1
    80    59    60    2
    81    37    36    1
    82    37    38    1
    83    60    62    1
    84    60    61    1
    85    39    38    2
