@<TRIPOS>MOLECULE
tmp/5uigA02.pdb
 178 168 0 0 0
SMALL
GASTEIGER

@<TRIPOS>ATOM
      1  N        155.9810   46.9870   10.7000 N.3     6  TYR6       -0.1241
      2  CA       155.3590   45.6880   10.9340 C.3     6  TYR6        0.1605
      3  C        155.3970   44.8340    9.6730 C.2     6  TYR6        0.2264
      4  O        156.0270   43.7710    9.6430 O.2     6  TYR6       -0.2867
      5  CB       153.9220   45.8770   11.4190 C.3     6  TYR6        0.0534
      6  CG       153.1010   44.6070   11.4110 C.ar    6  TYR6       -0.0201
      7  CD1      153.1820   43.6990   12.4570 C.ar    6  TYR6       -0.0009
      8  CD2      152.2420   44.3180   10.3590 C.ar    6  TYR6       -0.0009
      9  CE1      152.4340   42.5370   12.4550 C.ar    6  TYR6        0.0417
     10  CE2      151.4920   43.1590   10.3470 C.ar    6  TYR6        0.0417
     11  CZ       151.5890   42.2730   11.3970 C.ar    6  TYR6        0.1957
     12  OH       150.8430   41.1160   11.3900 O.3     6  TYR6       -0.2866
     13  N        148.4530   36.4010    9.2130 N.3    60  ALA60      -0.1245
     14  CA       148.5230   37.2500   10.3970 C.3    60  ALA60       0.1562
     15  C        148.3660   38.7190   10.0330 C.2    60  ALA60       0.2260
     16  O        147.6430   39.4580   10.7120 O.2    60  ALA60      -0.2867
     17  CB       149.8420   37.0180   11.1320 C.3    60  ALA60       0.0290
     18  N        144.4690   39.3230    9.3570 N.3    63  ILE63      -0.1231
     19  CA       143.6760   39.3330   10.5810 C.3    63  ILE63       0.1692
     20  C        144.1950   40.3370   11.5950 C.2    63  ILE63       0.2592
     21  O        143.4890   40.6550   12.5600 O.2    63  ILE63      -0.2718
     22  CB       143.6300   37.9270   11.2130 C.3    63  ILE63       0.0266
     23  CG1      142.5770   37.8800   12.3210 C.3    63  ILE63       0.0019
     24  CG2      144.9980   37.5420   11.7560 C.3    63  ILE63       0.0020
     25  CD1      142.3640   36.5060   12.9050 C.3    63  ILE63       0.0001
     26  N        145.4140   40.8430   11.3980 N.am   64  SER64      -0.1952
     27  CA       145.9380   41.8960   12.2590 C.3    64  SER64       0.1924
     28  C        144.9500   43.0470   12.3850 C.2    64  SER64       0.2314
     29  O        144.8280   43.6590   13.4520 O.2    64  SER64      -0.2863
     30  CB       147.2750   42.3960   11.7080 C.3    64  SER64       0.2116
     31  OG       147.6890   43.5830   12.3550 O.3    64  SER64      -0.2180
     32  N        142.9070   32.6040   10.9030 N.3    78  ALA78      -0.1245
     33  CA       143.2700   32.8480   12.2950 C.3    78  ALA78       0.1562
     34  C        143.8580   31.6040   12.9490 C.2    78  ALA78       0.2260
     35  O        144.8170   31.6980   13.7240 O.2    78  ALA78      -0.2867
     36  CB       142.0510   33.3370   13.0760 C.3    78  ALA78       0.0290
     37  N        148.0340   28.9910   11.7980 N.3    81  VAL81      -0.1231
     38  CA       149.2630   29.0100   12.5830 C.3    81  VAL81       0.1692
     39  C        149.1440   28.1260   13.8150 C.2    81  VAL81       0.2591
     40  O        150.1590   27.6520   14.3330 O.2    81  VAL81      -0.2718
     41  CB       149.6270   30.4540   12.9620 C.3    81  VAL81       0.0266
     42  CG1      148.4430   31.1380   13.6310 C.3    81  VAL81       0.0020
     43  CG2      150.8460   30.4760   13.8660 C.3    81  VAL81       0.0020
     44  N        147.9230   27.8870   14.3000 N.am   82  LEU82      -0.1980
     45  CA       147.7450   26.9480   15.4050 C.3    82  LEU82       0.1596
     46  C        148.2440   25.5630   15.0230 C.2    82  LEU82       0.2287
     47  O        148.9530   24.9080   15.7970 O.2    82  LEU82      -0.2864
     48  CB       146.2770   26.8850   15.8230 C.3    82  LEU82       0.0297
     49  CG       145.7190   28.1190   16.5270 C.3    82  LEU82       0.0022
     50  CD1      144.2160   28.0080   16.7220 C.3    82  LEU82       0.0001
     51  CD2      146.4160   28.3130   17.8580 C.3    82  LEU82       0.0001
     52  N        151.9110   25.4170   14.8920 N.3    85  THR85      -0.1218
     53  CA       152.4800   25.4420   16.2350 C.3    85  THR85       0.1862
     54  C        152.4300   24.0610   16.8740 C.2    85  THR85       0.2287
     55  O        153.4470   23.5480   17.3520 O.2    85  THR85      -0.2866
     56  CB       151.7470   26.4660   17.1000 C.3    85  THR85       0.1770
     57  OG1      151.7490   27.7400   16.4430 O.3    85  THR85      -0.2211
     58  CG2      152.4290   26.6010   18.4560 C.3    85  THR85       0.0375
     59  N        140.9610   39.2660   16.1600 N.3   155  PHE155     -0.1227
     60  CA       141.8630   38.4600   16.9740 C.3   155  PHE155      0.1736
     61  C        141.0980   37.5970   17.9710 C.2   155  PHE155      0.2595
     62  O        141.1720   36.3640   17.9350 O.2   155  PHE155     -0.2718
     63  CB       142.8660   39.3600   17.6980 C.3   155  PHE155      0.0547
     64  CG       142.3590   40.7460   17.9750 C.ar  155  PHE155     -0.0202
     65  CD1      142.5530   41.7660   17.0570 C.ar  155  PHE155     -0.0042
     66  CD2      141.7010   41.0350   19.1600 C.ar  155  PHE155     -0.0042
     67  CE1      142.0930   43.0450   17.3120 C.ar  155  PHE155     -0.0003
     68  CE2      141.2390   42.3120   19.4200 C.ar  155  PHE155     -0.0003
     69  CZ       141.4350   43.3180   18.4950 C.ar  155  PHE155     -0.0000
     70  N        140.3520   38.2330   18.8740 N.am  156  GLU156     -0.1979
     71  CA       139.7200   37.5310   19.9850 C.3   156  GLU156      0.1602
     72  C        138.1990   37.6040   19.9480 C.2   156  GLU156      0.2287
     73  O        137.5460   37.2280   20.9290 O.2   156  GLU156     -0.2864
     74  CB       140.2490   38.0830   21.3120 C.3   156  GLU156      0.0415
     75  CG       141.7690   38.1090   21.3850 C.3   156  GLU156      0.1163
     76  CD       142.2880   38.8210   22.6170 C.2   156  GLU156      0.3649
     77  OE1      141.4680   39.1790   23.4880 O.co2 156  GLU156     -0.2457
     78  OE2      143.5170   39.0230   22.7110 O.co2 156  GLU156     -0.2457
     79  N        138.6860   32.4190   23.9560 N.3   161  MET161     -0.1245
     80  CA       139.8520   32.6500   24.8000 C.3   161  MET161      0.1570
     81  C        140.0790   31.5120   25.7860 C.2   161  MET161      0.2261
     82  O        141.1810   31.3890   26.3300 O.2   161  MET161     -0.2867
     83  CB       139.7070   33.9750   25.5510 C.3   161  MET161      0.0387
     84  CG       141.0160   34.4990   26.1120 C.3   161  MET161      0.0595
     85  SD       142.2990   34.5620   24.8470 S.3   161  MET161     -0.1393
     86  CE       141.4720   35.5210   23.5780 C.3   161  MET161      0.0692
     87  N        142.4040   28.8480   23.8640 N.3   164  MET164     -0.1245
     88  CA       143.8120   29.2060   23.7560 C.3   164  MET164      0.1570
     89  C        144.5630   29.0260   25.0680 C.2   164  MET164      0.2261
     90  O        145.7950   28.9040   25.0540 O.2   164  MET164     -0.2867
     91  CB       143.9520   30.6560   23.2800 C.3   164  MET164      0.0387
     92  CG       143.2970   30.9420   21.9340 C.3   164  MET164      0.0595
     93  SD       143.9790   29.9120   20.6230 S.3   164  MET164     -0.1393
     94  CE       145.7160   30.3300   20.7370 C.3   164  MET164      0.0692
     95  N        144.7610   24.6220   24.3200 N.3   168  ASN168     -0.1240
     96  CA       145.9200   24.8200   23.4540 C.3   168  ASN168      0.1653
     97  C        147.1860   25.0610   24.2660 C.2   168  ASN168      0.2266
     98  O        148.2030   24.3860   24.0670 O.2   168  ASN168     -0.2867
     99  CB       145.6680   25.9850   22.4970 C.3   168  ASN168      0.1155
    100  CG       146.8440   26.2430   21.5720 C.2   168  ASN168      0.2627
    101  OD1      147.8040   26.9190   21.9420 O.2   168  ASN168     -0.2716
    102  ND2      146.7750   25.6990   20.3610 N.am  168  ASN168     -0.0877
    103  N        156.9840   31.6040   22.3490 N.3   322  TRP322     -0.1241
    104  CA       155.5490   31.3580   22.3790 C.3   322  TRP322      0.1605
    105  C        154.9200   31.5880   23.7470 C.2   322  TRP322      0.2264
    106  O        153.7020   31.4330   23.8830 O.2   322  TRP322     -0.2867
    107  CB       155.2510   29.9270   21.9210 C.3   322  TRP322      0.0550
    108  CG       155.4930   29.7050   20.4650 C.ar  322  TRP322      0.0003
    109  CD1      156.6120   29.1780   19.8900 C.ar  322  TRP322      0.0946
    110  CD2      154.5940   30.0060   19.3930 C.ar  322  TRP322      0.0152
    111  NE1      156.4640   29.1310   18.5250 N.ar  322  TRP322     -0.2442
    112  CE2      155.2340   29.6350   18.1940 C.ar  322  TRP322      0.0810
    113  CE3      153.3100   30.5540   19.3300 C.ar  322  TRP322      0.0012
    114  CZ2      154.6330   29.7930   16.9480 C.ar  322  TRP322      0.0191
    115  CZ3      152.7150   30.7100   18.0930 C.ar  322  TRP322      0.0001
    116  CH2      153.3770   30.3320   16.9180 C.ar  322  TRP322      0.0015
    117  N        152.9720   35.3970   24.2260 N.3   325  LEU325     -0.1231
    118  CA       151.6480   35.4100   23.6150 C.3   325  LEU325      0.1693
    119  C        150.6560   34.5640   24.4050 C.2   325  LEU325      0.2592
    120  O        149.4560   34.8620   24.4090 O.2   325  LEU325     -0.2718
    121  CB       151.7300   34.9270   22.1670 C.3   325  LEU325      0.0284
    122  CG       150.4260   34.9690   21.3670 C.3   325  LEU325      0.0019
    123  CD1      149.8070   36.3580   21.4270 C.3   325  LEU325      0.0001
    124  CD2      150.6750   34.5540   19.9260 C.3   325  LEU325      0.0001
    125  N        151.1300   33.5120   25.0750 N.am  326  HIS326     -0.1976
    126  CA       150.2480   32.7190   25.9230 C.3   326  HIS326      0.1656
    127  C        150.0560   33.3520   27.2940 C.2   326  HIS326      0.2291
    128  O        148.9790   33.2230   27.8850 O.2   326  HIS326     -0.2864
    129  CB       150.7900   31.2960   26.0730 C.3   326  HIS326      0.0771
    130  CG       150.5180   30.4160   24.8930 C.ar  326  HIS326      0.0820
    131  ND1      151.5210   29.9030   24.0990 N.ar  326  HIS326     -0.2267
    132  CD2      149.3540   29.9570   24.3730 C.ar  326  HIS326      0.1154
    133  CE1      150.9870   29.1650   23.1410 C.ar  326  HIS326      0.1986
    134  NE2      149.6740   29.1820   23.2850 N.ar  326  HIS326     -0.2212
    135  N        147.3420   35.9410   26.8800 N.3   329  ASN329     -0.1240
    136  CA       146.0360   35.2910   26.8100 C.3   329  ASN329      0.1653
    137  C        145.5920   34.7720   28.1710 C.2   329  ASN329      0.2266
    138  O        144.3900   34.6130   28.4120 O.2   329  ASN329     -0.2867
    139  CB       146.0660   34.1510   25.7910 C.3   329  ASN329      0.1155
    140  CG       146.1170   34.6470   24.3600 C.2   329  ASN329      0.2627
    141  OD1      145.6600   35.7520   24.0570 O.2   329  ASN329     -0.2716
    142  ND2      146.6700   33.8330   23.4720 N.am  329  ASN329     -0.0877
    143  N        147.5800   46.7680   21.8090 N.3   343  LEU343     -0.1245
    144  CA       147.9740   46.2100   20.5200 C.3   343  LEU343      0.1561
    145  C        149.4860   46.2560   20.3410 C.2   343  LEU343      0.2260
    146  O        150.0930   45.2830   19.8780 O.2   343  LEU343     -0.2867
    147  CB       147.2760   46.9510   19.3800 C.3   343  LEU343      0.0270
    148  CG       145.7600   46.7730   19.2610 C.3   343  LEU343      0.0019
    149  CD1      145.2630   47.3080   17.9270 C.3   343  LEU343      0.0001
    150  CD2      145.3680   45.3140   19.4400 C.3   343  LEU343      0.0001
    151  N        150.3830   43.3810   22.0240 N.3   346  MET346     -0.1230
    152  CA       149.8260   42.2200   21.3390 C.3   346  MET346      0.1702
    153  C        150.5630   41.9530   20.0320 C.2   346  MET346      0.2592
    154  O        150.9540   40.8160   19.7460 O.2   346  MET346     -0.2718
    155  CB       148.3320   42.4290   21.0880 C.3   346  MET346      0.0401
    156  CG       147.6210   41.2120   20.5170 C.3   346  MET346      0.0596
    157  SD       147.5830   39.8220   21.6670 S.3   346  MET346     -0.1393
    158  CE       146.5900   40.5090   22.9910 C.3   346  MET346      0.0692
    159  N        150.7570   42.9970   19.2210 N.am  347  TYR347     -0.1976
    160  CA       151.5510   42.8580   18.0040 C.3   347  TYR347      0.1639
    161  C        152.9270   42.2860   18.3130 C.2   347  TYR347      0.2290
    162  O        153.3750   41.3250   17.6770 O.2   347  TYR347     -0.2864
    163  CB       151.6860   44.2140   17.3090 C.3   347  TYR347      0.0560
    164  CG       150.5540   44.5520   16.3670 C.ar  347  TYR347     -0.0198
    165  CD1      149.3220   44.9650   16.8490 C.ar  347  TYR347     -0.0009
    166  CD2      150.7260   44.4700   14.9920 C.ar  347  TYR347     -0.0009
    167  CE1      148.2890   45.2810   15.9900 C.ar  347  TYR347      0.0417
    168  CE2      149.6990   44.7830   14.1250 C.ar  347  TYR347      0.0417
    169  CZ       148.4810   45.1870   14.6290 C.ar  347  TYR347      0.1957
    170  OH       147.4530   45.5000   13.7690 O.3   347  TYR347     -0.2866
    171  N        152.7600   38.6920   18.8290 N.3   350  ILE350     -0.1245
    172  CA       152.5610   37.9160   17.6090 C.3   350  ILE350      0.1561
    173  C        153.8480   37.8630   16.7970 C.2   350  ILE350      0.2260
    174  O        154.2150   36.8100   16.2620 O.2   350  ILE350     -0.2867
    175  CB       151.3950   38.4970   16.7860 C.3   350  ILE350      0.0252
    176  CG1      150.0670   37.8640   17.2080 C.3   350  ILE350      0.0019
    177  CG2      151.6410   38.2910   15.2990 C.3   350  ILE350      0.0019
    178  CD1      149.7010   38.1070   18.6540 C.3   350  ILE350      0.0001
@<TRIPOS>BOND
     1    13    14    1
     2    18    19    1
     3     4     3    2
     4     3     2    1
     5    15    14    1
     6    15    16    2
     7    10     8   ar
     8    10    11   ar
     9     8     6   ar
    10    14    17    1
    11    19    22    1
    12    19    20    1
    13     1     2    1
    14    32    33    1
    15     2     5    1
    16    22    24    1
    17    22    23    1
    18    12    11    1
    19    11     9   ar
    20    26    20   am
    21    26    27    1
    22     6     5    1
    23     6     7   ar
    24    20    21    2
    25    30    27    1
    26    30    31    1
    27    37    38    1
    28    27    28    1
    29    33    34    1
    30    33    36    1
    31    23    25    1
    32    28    29    2
    33     9     7   ar
    34    38    41    1
    35    38    39    1
    36    34    35    2
    37    41    42    1
    38    41    43    1
    39   170   169    1
    40    39    44   am
    41    39    40    2
    42   168   169   ar
    43   168   166   ar
    44    44    45    1
    45   169   167   ar
    46    52    53    1
    47   166   164   ar
    48    46    45    1
    49    46    47    2
    50   177   175    1
    51    45    48    1
    52    48    49    1
    53   167   165   ar
    54    59    60    1
    55    53    54    1
    56    53    56    1
    57   174   173    2
    58   164   165   ar
    59   164   163    1
    60    57    56    1
    61    49    50    1
    62    49    51    1
    63   175   176    1
    64   175   172    1
    65   173   172    1
    66    54    55    2
    67   116   114   ar
    68   116   115   ar
    69   114   112   ar
    70    60    63    1
    71    60    61    1
    72    65    67   ar
    73    65    64   ar
    74    56    58    1
    75   176   178    1
    76   163   160    1
    77    67    69   ar
    78   172   171    1
    79   162   161    2
    80    63    64    1
    81   149   148    1
    82    62    61    2
    83    61    70   am
    84    64    66   ar
    85   160   161    1
    86   160   159    1
    87   115   113   ar
    88   112   111   ar
    89   112   110   ar
    90    69    68   ar
    91   111   109   ar
    92    70    71    1
    93    66    68   ar
    94   159   153   am
    95   148   147    1
    96   148   150    1
    97   113   110   ar
    98   147   144    1
    99   110   108   ar
   100   154   153    2
   101   146   145    2
   102   109   108   ar
   103   124   122    1
   104    72    71    1
   105    72    73    2
   106    71    74    1
   107   153   152    1
   108   145   144    1
   109   102   100   am
   110   108   107    1
   111   156   155    1
   112   156   157    1
   113   144   143    1
   114    93    94    1
   115    93    92    1
   116   155   152    1
   117    74    75    1
   118   152   151    1
   119   122   123    1
   120   122   121    1
   121    75    76    1
   122   100   101    2
   123   100    99    1
   124   157   158    1
   125   107   104    1
   126    92    91    1
   127   121   118    1
   128   103   104    1
   129   104   105    1
   130    99    96    1
   131    76    78   ar
   132    76    77   ar
   133   133   134   ar
   134   133   131   ar
   135    91    88    1
   136   134   132   ar
   137    96    97    1
   138    96    95    1
   139   142   140   am
   140    86    85    1
   141   118   117    1
   142   118   119    1
   143   105   106    2
   144    88    87    1
   145    88    89    1
   146    79    80    1
   147   141   140    2
   148    98    97    2
   149   131   130   ar
   150   140   139    1
   151   132   130   ar
   152   119   120    2
   153   119   125   am
   154    80    83    1
   155    80    81    1
   156    85    84    1
   157   130   129    1
   158    90    89    2
   159   125   126    1
   160    83    84    1
   161    81    82    2
   162   139   136    1
   163   126   129    1
   164   126   127    1
   165   136   135    1
   166   136   137    1
   167   127   128    2
   168   137   138    2
