@<TRIPOS>MOLECULE
tmp/5uihA00.pdb
 145 141 0 0 0
SMALL
GASTEIGER

@<TRIPOS>ATOM
      1  N          1.8130    9.5650  -16.0900 N.3     5  ILE5       -0.1231
      2  CA         2.5900    9.6870  -17.3220 C.3     5  ILE5        0.1692
      3  C          1.7480   10.4390  -18.3520 C.2     5  ILE5        0.2592
      4  O          0.5680   10.1270  -18.5480 O.2     5  ILE5       -0.2718
      5  CB         3.0850    8.3160  -17.8560 C.3     5  ILE5        0.0266
      6  CG1        3.9180    8.4980  -19.1160 C.3     5  ILE5        0.0019
      7  CG2        1.9590    7.3400  -18.0980 C.3     5  ILE5        0.0020
      8  CD1        4.8060    7.2910  -19.4210 C.3     5  ILE5        0.0001
      9  N          2.3250   11.4750  -18.9510 N.am    6  ALA6       -0.1966
     10  CA         1.5730   12.3830  -19.8140 C.3     6  ALA6        0.1728
     11  C          2.4960   13.0170  -20.8430 C.2     6  ALA6        0.2616
     12  O          3.6990   13.1440  -20.6120 O.2     6  ALA6       -0.2715
     13  CB         0.9040   13.5120  -19.0150 C.3     6  ALA6        0.0334
     14  N          1.9080   13.3880  -21.9830 N.am    7  ALA7       -0.1977
     15  CA         2.5640   14.0930  -23.0790 C.3     7  ALA7        0.1597
     16  C          1.8720   15.4380  -23.2580 C.2     7  ALA7        0.2287
     17  O          0.6550   15.4840  -23.5120 O.2     7  ALA7       -0.2864
     18  CB         2.4990   13.2840  -24.3770 C.3     7  ALA7        0.0319
     19  N         -3.6570   14.9570  -25.2720 N.3    15  GLY15      -0.1210
     20  CA        -4.5590   14.1520  -26.0990 C.3    15  GLY15       0.1956
     21  C         -3.9190   12.8140  -26.4200 C.2    15  GLY15       0.2612
     22  O         -2.6960   12.6520  -26.3500 O.2    15  GLY15      -0.2717
     23  N         -4.7770   11.8390  -26.7690 N.am   16  MET16      -0.1965
     24  CA        -4.2880   10.5000  -27.1010 C.3    16  MET16       0.1736
     25  C         -4.9050    9.9530  -28.3920 C.2    16  MET16       0.2616
     26  O         -4.8890    8.7340  -28.6120 O.2    16  MET16      -0.2715
     27  CB        -4.5150    9.5320  -25.9250 C.3    16  MET16       0.0427
     28  CG        -3.4990    9.7420  -24.7720 C.3    16  MET16       0.0599
     29  SD        -3.5360    8.5500  -23.3880 S.3    16  MET16      -0.1393
     30  CE        -2.4910    7.2510  -24.0430 C.3    16  MET16       0.0692
     31  N         -5.4080   10.8230  -29.2670 N.am   17  GLU17      -0.1963
     32  CA        -5.8060   10.3960  -30.6010 C.3    17  GLU17       0.1733
     33  C         -4.5840    9.9800  -31.4190 C.2    17  GLU17       0.2616
     34  O         -3.4740   10.4820  -31.2220 O.2    17  GLU17      -0.2715
     35  CB        -6.5580   11.5170  -31.3200 C.3    17  GLU17       0.0429
     36  CG        -7.8230   11.9090  -30.5740 C.3    17  GLU17       0.1163
     37  CD        -7.5750   13.1320  -29.7100 C.2    17  GLU17       0.3649
     38  OE1       -6.4290   13.6290  -29.6290 O.co2  17  GLU17      -0.2457
     39  OE2       -8.5580   13.6160  -29.1110 O.co2  17  GLU17      -0.2457
     40  N         -4.7960    9.0490  -32.3500 N.am   18  ASN18      -0.1972
     41  CA        -3.7150    8.5550  -33.2060 C.3    18  ASN18       0.1688
     42  C         -3.4940    9.5360  -34.3600 C.2    18  ASN18       0.2292
     43  O         -3.7940    9.2720  -35.5260 O.2    18  ASN18      -0.2864
     44  CB        -4.0280    7.1520  -33.7090 C.3    18  ASN18       0.1181
     45  CG        -2.8590    6.5200  -34.4480 C.2    18  ASN18       0.2629
     46  OD1       -1.7340    7.0250  -34.4140 O.2    18  ASN18      -0.2716
     47  ND2       -3.1200    5.4030  -35.1160 N.am   18  ASN18      -0.0877
     48  N          0.4080   13.7250  -31.2980 N.3    22  TRP22      -0.1241
     49  CA         0.3550   12.7530  -30.2140 C.3    22  TRP22       0.1605
     50  C          0.9360   11.3990  -30.5790 C.2    22  TRP22       0.2264
     51  O          0.8930   10.4890  -29.7450 O.2    22  TRP22      -0.2867
     52  CB        -1.0900   12.5390  -29.7620 C.3    22  TRP22       0.0550
     53  CG        -1.8230   13.8050  -29.5710 C.ar   22  TRP22       0.0003
     54  CD1       -2.9520   14.2110  -30.2270 C.ar   22  TRP22       0.0946
     55  CD2       -1.4870   14.8500  -28.6560 C.ar   22  TRP22       0.0152
     56  NE1       -3.3380   15.4560  -29.7730 N.ar   22  TRP22      -0.2442
     57  CE2       -2.4590   15.8640  -28.8040 C.ar   22  TRP22       0.0810
     58  CE3       -0.4610   15.0280  -27.7190 C.ar   22  TRP22       0.0012
     59  CZ2       -2.4290   17.0340  -28.0590 C.ar   22  TRP22       0.0191
     60  CZ3       -0.4340   16.1930  -26.9790 C.ar   22  TRP22       0.0001
     61  CH2       -1.4170   17.1810  -27.1490 C.ar   22  TRP22       0.0015
     62  N          7.8550    9.1090  -28.3950 N.3    27  ASP27      -0.1225
     63  CA         7.0210    9.1800  -27.1970 C.3    27  ASP27       0.1805
     64  C          6.2510    7.8840  -26.9830 C.2    27  ASP27       0.2597
     65  O          6.0770    7.4450  -25.8380 O.2    27  ASP27      -0.2718
     66  CB         6.0390   10.3320  -27.2660 C.3    27  ASP27       0.1424
     67  CG         5.0940   10.3190  -26.1060 C.2    27  ASP27       0.3668
     68  OD1        5.5680   10.5470  -24.9800 O.co2  27  ASP27      -0.2456
     69  OD2        3.8930   10.1080  -26.3270 O.co2  27  ASP27      -0.2456
     70  N          5.7890    7.2530  -28.0710 N.am   28  LEU28      -0.1979
     71  CA         5.1470    5.9510  -27.9410 C.3    28  LEU28       0.1596
     72  C          6.1140    4.9450  -27.3290 C.2    28  LEU28       0.2287
     73  O          5.7370    4.1580  -26.4530 O.2    28  LEU28      -0.2864
     74  CB         4.6350    5.4660  -29.3070 C.3    28  LEU28       0.0297
     75  CG         3.7270    6.4210  -30.0860 C.3    28  LEU28       0.0022
     76  CD1        3.3770    5.8410  -31.4640 C.3    28  LEU28       0.0001
     77  CD2        2.4540    6.7480  -29.3320 C.3    28  LEU28       0.0001
     78  N          8.7010    5.6460  -25.3390 N.3    30  TRP30      -0.1227
     79  CA         8.8540    6.0400  -23.9440 C.3    30  TRP30       0.1737
     80  C          7.6540    5.6050  -23.1110 C.2    30  TRP30       0.2595
     81  O          7.8060    5.1350  -21.9800 O.2    30  TRP30      -0.2718
     82  CB         9.0250    7.5540  -23.8920 C.3    30  TRP30       0.0564
     83  CG         8.8840    8.2330  -22.5850 C.ar   30  TRP30       0.0003
     84  CD1        7.7630    8.8750  -22.1070 C.ar   30  TRP30       0.0946
     85  CD2        9.9050    8.4260  -21.6100 C.ar   30  TRP30       0.0152
     86  NE1        8.0430    9.4380  -20.8870 N.ar   30  TRP30      -0.2442
     87  CE2        9.3450    9.1720  -20.5560 C.ar   30  TRP30       0.0810
     88  CE3       11.2430    8.0340  -21.5190 C.ar   30  TRP30       0.0012
     89  CZ2       10.0770    9.5290  -19.4220 C.ar   30  TRP30       0.0191
     90  CZ3       11.9670    8.3960  -20.4150 C.ar   30  TRP30       0.0001
     91  CH2       11.3850    9.1380  -19.3670 C.ar   30  TRP30       0.0015
     92  N          6.4480    5.7900  -23.6390 N.am   31  PHE31      -0.1976
     93  CA         5.2530    5.3860  -22.9100 C.3    31  PHE31       0.1639
     94  C          5.2560    3.8780  -22.6730 C.2    31  PHE31       0.2290
     95  O          5.0110    3.4050  -21.5540 O.2    31  PHE31      -0.2864
     96  CB         4.0220    5.8110  -23.6900 C.3    31  PHE31       0.0560
     97  CG         2.7240    5.3600  -23.0830 C.ar   31  PHE31      -0.0200
     98  CD1        2.1290    4.1840  -23.5140 C.ar   31  PHE31      -0.0042
     99  CD2        2.1030    6.0890  -22.0800 C.ar   31  PHE31      -0.0042
    100  CE1        0.9270    3.7540  -22.9800 C.ar   31  PHE31      -0.0003
    101  CE2        0.8820    5.6710  -21.5490 C.ar   31  PHE31      -0.0003
    102  CZ         0.3080    4.4890  -22.0030 C.ar   31  PHE31      -0.0000
    103  N         -8.2590    5.5880  -26.9830 N.3    50  ILE50      -0.1245
    104  CA        -7.3070    4.5280  -27.2990 C.3    50  ILE50       0.1561
    105  C         -7.9650    3.4680  -28.1690 C.2    50  ILE50       0.2260
    106  O         -7.3360    2.9150  -29.0790 O.2    50  ILE50      -0.2867
    107  CB        -6.7190    3.9330  -25.9980 C.3    50  ILE50       0.0252
    108  CG1       -5.8000    4.9570  -25.3040 C.3    50  ILE50       0.0019
    109  CG2       -5.9280    2.6810  -26.2820 C.3    50  ILE50       0.0019
    110  CD1       -5.3010    4.5430  -23.9150 C.3    50  ILE50       0.0001
    111  N         -4.7270   -1.8390  -23.7260 N.3    54  LEU54      -0.1245
    112  CA        -3.2770   -1.8100  -23.8750 C.3    54  LEU54       0.1561
    113  C         -2.7180   -3.1740  -23.4770 C.2    54  LEU54       0.2260
    114  O         -2.9140   -3.6050  -22.3320 O.2    54  LEU54      -0.2867
    115  CB        -2.6550   -0.7130  -23.0180 C.3    54  LEU54       0.0270
    116  CG        -3.0670    0.7160  -23.3770 C.3    54  LEU54       0.0019
    117  CD1       -2.5430    1.7280  -22.3700 C.3    54  LEU54       0.0001
    118  CD2       -2.6410    1.1000  -24.7850 C.3    54  LEU54       0.0001
    119  N         -2.6650    7.2110  -16.8170 N.3    94  ILE94      -0.1245
    120  CA        -2.3440    7.5660  -18.2010 C.3    94  ILE94       0.1561
    121  C         -3.3140    8.5860  -18.7920 C.2    94  ILE94       0.2260
    122  O         -3.2640    8.8630  -20.0110 O.2    94  ILE94      -0.2867
    123  CB        -2.2500    6.3300  -19.1080 C.3    94  ILE94       0.0252
    124  CG1       -3.6090    5.6720  -19.3740 C.3    94  ILE94       0.0019
    125  CG2       -1.2510    5.3300  -18.5280 C.3    94  ILE94       0.0019
    126  CD1       -3.5330    4.6760  -20.5500 C.3    94  ILE94       0.0001
    127  N         -6.0160   12.9560  -14.2800 N.3   100  TYR100     -0.1241
    128  CA        -4.7660   13.5520  -13.8000 C.3   100  TYR100      0.1605
    129  C         -5.0070   14.5300  -12.6440 C.2   100  TYR100      0.2264
    130  O         -4.2580   14.5310  -11.6560 O.2   100  TYR100     -0.2867
    131  CB        -4.0540   14.3040  -14.9310 C.3   100  TYR100      0.0534
    132  CG        -3.4260   13.5050  -16.0350 C.ar  100  TYR100     -0.0201
    133  CD1       -2.6530   12.3830  -15.7870 C.ar  100  TYR100     -0.0009
    134  CD2       -3.5370   13.9310  -17.3500 C.ar  100  TYR100     -0.0009
    135  CE1       -2.0610   11.6940  -16.8290 C.ar  100  TYR100      0.0417
    136  CE2       -2.9670   13.2430  -18.3780 C.ar  100  TYR100      0.0417
    137  CZ        -2.2150   12.1340  -18.1220 C.ar  100  TYR100      0.1957
    138  OH        -1.6380   11.4690  -19.1820 O.3   100  TYR100     -0.2866
    139  N          6.4210   14.0500  -21.0880 N.3   113  THR113     -0.1218
    140  CA         6.9350   14.4000  -22.3950 C.3   113  THR113      0.1862
    141  C          6.4680   15.8110  -22.7160 C.2   113  THR113      0.2287
    142  O          5.2770   16.1060  -22.6160 O.2   113  THR113     -0.2866
    143  CB         6.4290   13.4670  -23.4860 C.3   113  THR113      0.1770
    144  OG1        6.7160   12.1250  -23.1070 O.3   113  THR113     -0.2211
    145  CG2        7.0960   13.7730  -24.8220 C.3   113  THR113      0.0375
@<TRIPOS>BOND
     1    43    42    2
     2    47    45   am
     3    45    46    2
     4    45    44    1
     5    42    41    1
     6    44    41    1
     7    41    40    1
     8    40    33   am
     9    76    75    1
    10    33    34    2
    11    33    32    1
    12    35    32    1
    13    35    36    1
    14    48    49    1
    15    32    31    1
    16    50    49    1
    17    50    51    2
    18    36    37    1
    19    54    56   ar
    20    54    53   ar
    21    49    52    1
    22    75    77    1
    23    75    74    1
    24    56    57   ar
    25    52    53    1
    26    37    38   ar
    27    37    39   ar
    28    53    55   ar
    29    74    71    1
    30    31    25   am
    31   106   105    2
    32    57    55   ar
    33    57    59   ar
    34    55    58   ar
    35    26    25    2
    36    62    63    1
    37    25    24    1
    38   105   104    1
    39    70    71    1
    40    70    64   am
    41    59    61   ar
    42    71    72    1
    43    58    60   ar
    44    72    73    2
    45   104   103    1
    46   104   107    1
    47    66    63    1
    48    66    67    1
    49    63    64    1
    50    61    60   ar
    51    24    23    1
    52    24    27    1
    53    64    65    2
    54    23    21   am
    55    21    22    2
    56    21    20    1
    57    69    67   ar
    58   109   107    1
    59    67    68   ar
    60    20    19    1
    61   107   108    1
    62    27    28    1
    63    78    79    1
    64   108   110    1
    65   145   143    1
    66   118   116    1
    67    28    29    1
    68    18    15    1
    69    30    29    1
    70    79    82    1
    71    79    80    1
    72    82    83    1
    73   112   111    1
    74   112   113    1
    75   112   115    1
    76    96    97    1
    77    96    93    1
    78    92    80   am
    79    92    93    1
    80    98    97   ar
    81    98   100   ar
    82    17    16    2
    83   143   144    1
    84   143   140    1
    85   113   114    2
    86   116   115    1
    87   116   117    1
    88    16    15    1
    89    80    81    2
    90    97    99   ar
    91    15    14    1
    92   100   102   ar
    93    93    94    1
    94   141   142    2
    95   141   140    1
    96    94    95    2
    97    83    84   ar
    98    83    85   ar
    99   140   139    1
   100    84    86   ar
   101    99   101   ar
   102   102   101   ar
   103    14    11   am
   104    85    88   ar
   105    85    87   ar
   106    88    90   ar
   107    86    87   ar
   108    11    12    2
   109    11    10    1
   110    87    89   ar
   111   126   124    1
   112    90    91   ar
   113   122   121    2
   114    10    13    1
   115    10     9    1
   116    89    91   ar
   117     8     6    1
   118   124   123    1
   119   138   137    1
   120     6     5    1
   121   123   125    1
   122   123   120    1
   123     9     3   am
   124   121   120    1
   125     4     3    2
   126   136   137   ar
   127   136   134   ar
   128     3     2    1
   129   120   119    1
   130   137   135   ar
   131     7     5    1
   132     5     2    1
   133   134   132   ar
   134     2     1    1
   135   135   133   ar
   136   132   133   ar
   137   132   131    1
   138   131   128    1
   139   127   128    1
   140   128   129    1
   141   129   130    2
