@<TRIPOS>MOLECULE
tmp/5uiiA01.pdb
 109 104 0 0 0
SMALL
GASTEIGER

@<TRIPOS>ATOM
      1  N         19.9650   11.0510    4.9270 N.3     5  ILE5       -0.1231
      2  CA        19.0150   11.1380    3.8230 C.3     5  ILE5        0.1692
      3  C         17.7690   11.8540    4.3290 C.2     5  ILE5        0.2592
      4  O         17.2370   11.5060    5.3890 O.2     5  ILE5       -0.2718
      5  CB        18.7050    9.7580    3.1950 C.3     5  ILE5        0.0266
      6  CG1       17.7150    9.9070    2.0380 C.3     5  ILE5        0.0019
      7  CG2       18.1830    8.7630    4.2350 C.3     5  ILE5        0.0020
      8  CD1       17.7370    8.7700    1.0620 C.3     5  ILE5        0.0001
      9  N         17.3390   12.8820    3.5990 N.am    6  ALA6       -0.1966
     10  CA        16.2850   13.7730    4.0640 C.3     6  ALA6        0.1728
     11  C         15.5950   14.4350    2.8770 C.2     6  ALA6        0.2616
     12  O         16.1890   14.6060    1.8100 O.2     6  ALA6       -0.2715
     13  CB        16.8530   14.8640    4.9720 C.3     6  ALA6        0.0334
     14  N         14.3350   14.8180    3.0930 N.am    7  ALA7       -0.1977
     15  CA        13.5440   15.5890    2.1400 C.3     7  ALA7        0.1597
     16  C         13.2450   16.9460    2.7590 C.2     7  ALA7        0.2287
     17  O         12.6860   17.0240    3.8580 O.2     7  ALA7       -0.2864
     18  CB        12.2440   14.8630    1.7860 C.3     7  ALA7        0.0319
     19  N          9.9330   10.5470   -4.3880 N.3    27  ASP27      -0.1225
     20  CA        10.8560   10.6700   -3.2650 C.3    27  ASP27       0.1805
     21  C         10.9190    9.3760   -2.4630 C.2    27  ASP27       0.2597
     22  O         11.9940    8.9780   -2.0030 O.2    27  ASP27      -0.2718
     23  CB        10.4510   11.8450   -2.3750 C.3    27  ASP27       0.1424
     24  CG        11.2870   11.9340   -1.1110 C.2    27  ASP27       0.3668
     25  OD1       12.5150   12.1360   -1.2150 O.co2  27  ASP27      -0.2456
     26  OD2       10.7130   11.8020   -0.0120 O.co2  27  ASP27      -0.2456
     27  N          9.7820    8.6990   -2.2890 N.am   28  LEU28      -0.1979
     28  CA         9.8060    7.4170   -1.5930 C.3    28  LEU28       0.1596
     29  C         10.6450    6.3990   -2.3570 C.2    28  LEU28       0.2287
     30  O         11.4340    5.6570   -1.7590 O.2    28  LEU28      -0.2864
     31  CB         8.3820    6.9010   -1.3920 C.3    28  LEU28       0.0297
     32  CG         8.2500    5.5580   -0.6670 C.3    28  LEU28       0.0022
     33  CD1        8.9020    5.6090    0.7050 C.3    28  LEU28       0.0001
     34  CD2        6.7840    5.1710   -0.5460 C.3    28  LEU28       0.0001
     35  N         13.1430    7.0190   -4.3360 N.3    30  TRP30      -0.1227
     36  CA        14.5300    7.4330   -4.1440 C.3    30  TRP30       0.1737
     37  C         15.0380    7.0170   -2.7700 C.2    30  TRP30       0.2595
     38  O         16.1630    6.5180   -2.6340 O.2    30  TRP30      -0.2718
     39  CB        14.5900    8.9520   -4.3140 C.3    30  TRP30       0.0564
     40  CG        15.8140    9.6480   -3.7890 C.ar   30  TRP30       0.0003
     41  CD1       15.9340   10.3070   -2.5960 C.ar   30  TRP30       0.0946
     42  CD2       17.0680    9.8050   -4.4580 C.ar   30  TRP30       0.0152
     43  NE1       17.1940   10.8450   -2.4780 N.ar   30  TRP30      -0.2442
     44  CE2       17.9080   10.5520   -3.6100 C.ar   30  TRP30       0.0810
     45  CE3       17.5670    9.3770   -5.6900 C.ar   30  TRP30       0.0012
     46  CZ2       19.2170   10.8840   -3.9600 C.ar   30  TRP30       0.0191
     47  CZ3       18.8620    9.7050   -6.0300 C.ar   30  TRP30       0.0001
     48  CH2       19.6710   10.4480   -5.1740 C.ar   30  TRP30       0.0015
     49  N         14.2150    7.2030   -1.7420 N.am   31  PHE31      -0.1976
     50  CA        14.6020    6.7940   -0.4000 C.3    31  PHE31       0.1639
     51  C         14.8830    5.2970   -0.3490 C.2    31  PHE31       0.2290
     52  O         15.9100    4.8640    0.1840 O.2    31  PHE31      -0.2864
     53  CB        13.4990    7.1840    0.5800 C.3    31  PHE31       0.0560
     54  CG        13.7170    6.6540    1.9590 C.ar   31  PHE31      -0.0200
     55  CD1       14.5190    7.3350    2.8520 C.ar   31  PHE31      -0.0042
     56  CD2       13.1450    5.4530    2.3540 C.ar   31  PHE31      -0.0042
     57  CE1       14.7370    6.8420    4.1200 C.ar   31  PHE31      -0.0003
     58  CE2       13.3580    4.9570    3.6270 C.ar   31  PHE31      -0.0003
     59  CZ        14.1560    5.6510    4.5050 C.ar   31  PHE31      -0.0000
     60  N         10.4930    9.9830   14.5960 N.3    46  THR46      -0.1218
     61  CA        10.4530    9.4530   13.2400 C.3    46  THR46       0.1862
     62  C          9.9380    8.0200   13.2380 C.2    46  THR46       0.2287
     63  O          9.1210    7.6480   12.3870 O.2    46  THR46      -0.2866
     64  CB        11.8430    9.5610   12.6170 C.3    46  THR46       0.1770
     65  OG1       12.1690   10.9450   12.4630 O.3    46  THR46      -0.2211
     66  CG2       11.9010    8.8820   11.2550 C.3    46  THR46       0.0375
     67  N          6.3980    6.2750   11.2860 N.3    50  ILE50      -0.1245
     68  CA         6.3780    5.1420   10.3640 C.3    50  ILE50       0.1561
     69  C          5.5040    4.0140   10.8980 C.2    50  ILE50       0.2260
     70  O          4.7280    3.4150   10.1500 O.2    50  ILE50      -0.2867
     71  CB         7.8200    4.6670   10.0870 C.3    50  ILE50       0.0252
     72  CG1        8.6700    5.8170    9.5390 C.3    50  ILE50       0.0019
     73  CG2        7.8180    3.5060    9.1000 C.3    50  ILE50       0.0019
     74  CD1       10.1540    5.5090    9.4790 C.3    50  ILE50       0.0001
     75  N         11.1200   -0.7610    8.7530 N.3    54  LEU54      -0.1245
     76  CA        11.4380   -0.7410    7.3350 C.3    54  LEU54       0.1561
     77  C         11.9980   -2.1070    6.9490 C.2    54  LEU54       0.2260
     78  O         12.9010   -2.6110    7.6240 O.2    54  LEU54      -0.2867
     79  CB        12.4450    0.3600    7.0260 C.3    54  LEU54       0.0270
     80  CG        11.9610    1.7900    7.2800 C.3    54  LEU54       0.0019
     81  CD1       13.0260    2.7950    6.8640 C.3    54  LEU54       0.0001
     82  CD2       10.6470    2.0860    6.5660 C.3    54  LEU54       0.0001
     83  N         18.0410    8.5480    8.9470 N.3    94  ILE94      -0.1245
     84  CA        16.8260    8.8390    8.1910 C.3    94  ILE94       0.1561
     85  C         15.9250    9.8530    8.8870 C.2    94  ILE94       0.2260
     86  O         14.8050   10.0920    8.4220 O.2    94  ILE94      -0.2867
     87  CB        16.0530    7.5660    7.7960 C.3    94  ILE94       0.0252
     88  CG1       15.4310    6.8910    9.0220 C.3    94  ILE94       0.0019
     89  CG2       16.9630    6.6030    7.0340 C.3    94  ILE94       0.0019
     90  CD1       14.4130    5.8270    8.6630 C.3    94  ILE94       0.0001
     91  N         19.4630   14.3220   12.9670 N.3   100  TYR100     -0.1241
     92  CA        20.3300   14.8730   11.9260 C.3   100  TYR100      0.1605
     93  C         21.3770   15.8070   12.5240 C.2   100  TYR100      0.2264
     94  O         22.5410   15.7950   12.1080 O.2   100  TYR100     -0.2867
     95  CB        19.5140   15.6530   10.8940 C.3   100  TYR100      0.0534
     96  CG        18.6190   14.8590    9.9620 C.ar  100  TYR100     -0.0201
     97  CD1       19.0390   13.6740    9.3660 C.ar  100  TYR100     -0.0009
     98  CD2       17.3510   15.3300    9.6510 C.ar  100  TYR100     -0.0009
     99  CE1       18.2020   12.9770    8.5020 C.ar  100  TYR100      0.0417
    100  CE2       16.5140   14.6470    8.7930 C.ar  100  TYR100      0.0417
    101  CZ        16.9430   13.4730    8.2190 C.ar  100  TYR100      0.1957
    102  OH        16.0910   12.8070    7.3740 O.3   100  TYR100     -0.2866
    103  N         16.5060   15.4890   -0.9940 N.3   113  THR113     -0.1218
    104  CA        15.4270   15.8340   -1.9040 C.3   113  THR113      0.1862
    105  C         15.0160   17.2590   -1.5790 C.2   113  THR113      0.2287
    106  O         14.6750   17.5600   -0.4320 O.2   113  THR113     -0.2866
    107  CB        14.2410   14.8960   -1.7070 C.3   113  THR113      0.1770
    108  OG1       14.6850   13.5450   -1.8660 O.3   113  THR113     -0.2211
    109  CG2       13.1370   15.2070   -2.7170 C.3   113  THR113      0.0375
@<TRIPOS>BOND
     1    47    45   ar
     2    47    48   ar
     3    45    42   ar
     4    48    46   ar
     5    42    40   ar
     6    42    44   ar
     7    19    20    1
     8    35    36    1
     9    39    36    1
    10    39    40    1
    11    36    37    1
    12    46    44   ar
    13    40    41   ar
    14    44    43   ar
    15    20    21    1
    16    20    23    1
    17    37    38    2
    18    37    49   am
    19   109   107    1
    20    41    43   ar
    21    21    27   am
    22    21    22    2
    23    23    24    1
    24    29    30    2
    25    29    28    1
    26    27    28    1
    27   104   107    1
    28   104   105    1
    29   104   103    1
    30   108   107    1
    31    49    50    1
    32    28    31    1
    33   105   106    2
    34    31    32    1
    35    25    24   ar
    36    24    26   ar
    37    32    34    1
    38    32    33    1
    39    50    51    1
    40    50    53    1
    41    51    52    2
    42    53    54    1
    43     8     6    1
    44    18    15    1
    45    12    11    2
    46    54    56   ar
    47    54    55   ar
    48     6     5    1
    49    15    16    1
    50    15    14    1
    51    56    58   ar
    52    16    17    2
    53    55    57   ar
    54    11    14   am
    55    11    10    1
    56     5     2    1
    57     5     7    1
    58     9    10    1
    59     9     3   am
    60    58    59   ar
    61     2     3    1
    62     2     1    1
    63    10    13    1
    64    57    59   ar
    65     3     4    2
    66    82    80    1
    67    81    80    1
    68    77    76    1
    69    77    78    2
    70    79    80    1
    71    79    76    1
    72    89    87    1
    73    76    75    1
    74   102   101    1
    75    87    84    1
    76    87    88    1
    77    84    85    1
    78    84    83    1
    79   101    99   ar
    80   101   100   ar
    81    86    85    2
    82    99    97   ar
    83    90    88    1
    84   100    98   ar
    85    73    71    1
    86    97    96   ar
    87    74    72    1
    88    72    71    1
    89    98    96   ar
    90    96    95    1
    91    71    68    1
    92    70    69    2
    93    68    69    1
    94    68    67    1
    95    95    92    1
    96    66    64    1
    97    92    93    1
    98    92    91    1
    99    94    93    2
   100    63    62    2
   101    65    64    1
   102    64    61    1
   103    62    61    1
   104    61    60    1
