@<TRIPOS>MOLECULE
tmp/5uijA01.pdb
 116 112 0 0 0
SMALL
GASTEIGER

@<TRIPOS>ATOM
      1  N         24.0080    6.9960  -13.0920 N.3   280  LYS280     -0.1245
      2  CA        23.5060    6.7760  -14.4620 C.3   280  LYS280      0.1561
      3  C         24.4830    5.9780  -15.2990 C.2   280  LYS280      0.2260
      4  O         24.1490    4.9370  -15.8870 O.2   280  LYS280     -0.2867
      5  CB        23.2550    8.0910  -15.1960 C.3   280  LYS280      0.0271
      6  CG        22.2450    9.0140  -14.5620 C.3   280  LYS280      0.0035
      7  CD        22.0050   10.2220  -15.4470 C.3   280  LYS280      0.0206
      8  CE        21.0440   11.1480  -14.7490 C.3   280  LYS280      0.1093
      9  NZ        20.8810   12.4250  -15.4890 N.3   280  LYS280     -0.1314
     10  N         12.0480   12.0790   -4.5880 N.3   303  TYR303     -0.1241
     11  CA        11.1390   11.0780   -5.2180 C.3   303  TYR303      0.1605
     12  C         11.2230    9.6590   -4.6600 C.2   303  TYR303      0.2264
     13  O         10.3930    8.8010   -4.9510 O.2   303  TYR303     -0.2867
     14  CB        11.4450   11.0020   -6.7200 C.3   303  TYR303      0.0534
     15  CG        11.4220   12.3740   -7.3260 C.ar  303  TYR303     -0.0201
     16  CD1       10.3230   13.2090   -7.1010 C.ar  303  TYR303     -0.0009
     17  CD2       12.4860   12.8610   -8.0720 C.ar  303  TYR303     -0.0009
     18  CE1       10.2670   14.4770   -7.6250 C.ar  303  TYR303      0.0417
     19  CE2       12.4310   14.1380   -8.6080 C.ar  303  TYR303      0.0417
     20  CZ        11.3160   14.9260   -8.3660 C.ar  303  TYR303      0.1957
     21  OH        11.1850   16.1930   -8.8450 O.3   303  TYR303     -0.2866
     22  N         14.1820    8.0040   -5.1810 N.3   305  TRP305     -0.1241
     23  CA        15.1960    7.3860   -6.0630 C.3   305  TRP305      0.1605
     24  C         16.4830    7.1970   -5.2710 C.2   305  TRP305      0.2264
     25  O         17.0410    8.1680   -4.7440 O.2   305  TRP305     -0.2867
     26  CB        15.5030    8.2740   -7.2640 C.3   305  TRP305      0.0550
     27  CG        14.3660    8.5610   -8.1530 C.ar  305  TRP305      0.0003
     28  CD1       13.1160    8.0150   -8.1060 C.ar  305  TRP305      0.0946
     29  CD2       14.3620    9.4820   -9.2310 C.ar  305  TRP305      0.0152
     30  NE1       12.3450    8.5420   -9.0900 N.ar  305  TRP305     -0.2442
     31  CE2       13.0740    9.4660   -9.7840 C.ar  305  TRP305      0.0810
     32  CE3       15.3310   10.3260   -9.7870 C.ar  305  TRP305      0.0012
     33  CZ2       12.7310   10.2360  -10.9000 C.ar  305  TRP305      0.0191
     34  CZ3       14.9810   11.1030  -10.8660 C.ar  305  TRP305      0.0001
     35  CH2       13.6940   11.0450  -11.4180 C.ar  305  TRP305      0.0015
     36  N         18.0550    2.2850   -7.8950 N.3   309  ILE309     -0.1231
     37  CA        16.9630    2.6860   -8.7930 C.3   309  ILE309      0.1692
     38  C         17.4930    3.4900   -9.9940 C.2   309  ILE309      0.2591
     39  O         17.1100    3.2520  -11.1500 O.2   309  ILE309     -0.2718
     40  CB        15.8640    3.4530   -7.9900 C.3   309  ILE309      0.0266
     41  CG1       15.0030    2.4520   -7.1970 C.3   309  ILE309      0.0019
     42  CG2       15.0380    4.4010   -8.8780 C.3   309  ILE309      0.0020
     43  CD1       14.2210    3.0270   -6.0230 C.3   309  ILE309      0.0001
     44  N         18.3250    4.4960   -9.7360 N.am  310  VAL310     -0.1980
     45  CA        18.8940    5.2740  -10.8510 C.3   310  VAL310      0.1595
     46  C         19.6920    4.3510  -11.7890 C.2   310  VAL310      0.2287
     47  O         19.5370    4.4270  -13.0220 O.2   310  VAL310     -0.2864
     48  CB        19.6860    6.5190  -10.3980 C.3   310  VAL310      0.0276
     49  CG1       20.2460    7.2590  -11.5940 C.3   310  VAL310      0.0022
     50  CG2       18.7240    7.4370   -9.6330 C.3   310  VAL310      0.0022
     51  N         17.2100    2.3320  -13.9740 N.3   313  TYR313     -0.1227
     52  CA        16.5500    3.1200  -14.9670 C.3   313  TYR313      0.1736
     53  C         17.4630    3.3480  -16.1590 C.2   313  TYR313      0.2595
     54  O         16.9800    3.3870  -17.2860 O.2   313  TYR313     -0.2718
     55  CB        16.1100    4.4670  -14.3910 C.3   313  TYR313      0.0548
     56  CG        15.2430    5.2360  -15.3560 C.ar  313  TYR313     -0.0200
     57  CD1       14.0060    4.7250  -15.7810 C.ar  313  TYR313     -0.0009
     58  CD2       15.6510    6.4680  -15.8420 C.ar  313  TYR313     -0.0009
     59  CE1       13.2090    5.4560  -16.6850 C.ar  313  TYR313      0.0417
     60  CE2       14.8670    7.1910  -16.7480 C.ar  313  TYR313      0.0417
     61  CZ        13.6470    6.6850  -17.1540 C.ar  313  TYR313      0.1957
     62  OH        12.8840    7.4190  -18.0360 O.3   313  TYR313     -0.2866
     63  N         18.7600    3.4720  -15.9170 N.am  314  HIS314     -0.1975
     64  CA        19.7290    3.6440  -16.9780 C.3   314  HIS314      0.1656
     65  C         20.4320    2.3620  -17.4390 C.2   314  HIS314      0.2291
     66  O         21.4100    2.3910  -18.1850 O.2   314  HIS314     -0.2864
     67  CB        20.7330    4.6780  -16.5560 C.3   314  HIS314      0.0771
     68  CG        20.1080    5.9910  -16.2490 C.ar  314  HIS314      0.0820
     69  ND1       19.5460    6.2690  -15.0290 N.ar  314  HIS314     -0.2267
     70  CD2       19.9180    7.0840  -17.0220 C.ar  314  HIS314      0.1154
     71  CE1       19.0350    7.4880  -15.0530 C.ar  314  HIS314      0.1986
     72  NE2       19.2460    8.0010  -16.2530 N.ar  314  HIS314     -0.2212
     73  N         10.6440    3.4190   -4.9810 N.3   334  ASN334     -0.1240
     74  CA        10.4690    4.8520   -4.7080 C.3   334  ASN334      0.1653
     75  C          9.2460    5.0300   -3.8060 C.2   334  ASN334      0.2266
     76  O          8.6190    4.0600   -3.2930 O.2   334  ASN334     -0.2867
     77  CB        10.3640    5.6760   -6.0050 C.3   334  ASN334      0.1155
     78  CG         8.9980    5.5640   -6.6710 C.2   334  ASN334      0.2627
     79  OD1        8.1380    4.7800   -6.2780 O.2   334  ASN334     -0.2716
     80  ND2        8.7670    6.4090   -7.6660 N.am  334  ASN334     -0.0877
     81  N          6.2310    5.9370   -4.4450 N.3   336  LYS336     -0.1245
     82  CA         5.0120    5.3560   -4.9860 C.3   336  LYS336      0.1561
     83  C          4.9950    3.8400   -5.0790 C.2   336  LYS336      0.2260
     84  O          4.1120    3.2660   -5.7160 O.2   336  LYS336     -0.2867
     85  CB         4.7830    5.9290   -6.3810 C.3   336  LYS336      0.0271
     86  CG         4.8100    7.4400   -6.4250 C.3   336  LYS336      0.0035
     87  CD         4.4000    7.9690   -7.8040 C.3   336  LYS336      0.0206
     88  CE         5.1730    9.2440   -8.1480 C.3   336  LYS336      0.1093
     89  NZ         4.5420   10.1610   -9.1440 N.3   336  LYS336     -0.1314
     90  N          7.0950    2.0270   -6.7620 N.3   338  THR338     -0.1218
     91  CA         7.6630    1.6010   -8.0140 C.3   338  THR338      0.1862
     92  C          8.9990    0.9320   -7.7850 C.2   338  THR338      0.2287
     93  O          9.8420    1.4800   -7.0760 O.2   338  THR338     -0.2866
     94  CB         7.8220    2.7900   -8.9460 C.3   338  THR338      0.1770
     95  OG1        6.5480    3.4250   -9.0410 O.3   338  THR338     -0.2211
     96  CG2        8.2770    2.3530  -10.3780 C.3   338  THR338      0.0375
     97  N         11.6840    0.0290  -13.2570 N.3   343  TYR343     -0.1241
     98  CA        12.6240    0.9360  -13.8820 C.3   343  TYR343      0.1605
     99  C         13.5380    0.2150  -14.8830 C.2   343  TYR343      0.2264
    100  O         13.8460    0.7580  -15.9400 O.2   343  TYR343     -0.2867
    101  CB        13.4640    1.6480  -12.8220 C.3   343  TYR343      0.0534
    102  CG        12.6630    2.5740  -11.8910 C.ar  343  TYR343     -0.0201
    103  CD1       12.1340    3.7830  -12.3500 C.ar  343  TYR343     -0.0009
    104  CD2       12.4470    2.2540  -10.5580 C.ar  343  TYR343     -0.0009
    105  CE1       11.4680    4.6840  -11.4900 C.ar  343  TYR343      0.0417
    106  CE2       11.7520    3.1220   -9.7080 C.ar  343  TYR343      0.0417
    107  CZ        11.2670    4.3360  -10.1720 C.ar  343  TYR343      0.1957
    108  OH        10.5210    5.1410   -9.3040 O.3   343  TYR343     -0.2866
    109  N         11.8690   -0.2010  -18.0400 N.3   346  ASP346     -0.1239
    110  CA        11.8730    1.0150  -18.8560 C.3   346  ASP346      0.1674
    111  C         13.1320    1.0500  -19.6960 C.2   346  ASP346      0.2266
    112  O         13.0900    1.3820  -20.8950 O.2   346  ASP346     -0.2867
    113  CB        11.7600    2.2760  -18.0020 C.3   346  ASP346      0.1410
    114  CG        10.3950    2.4210  -17.3650 C.2   346  ASP346      0.3668
    115  OD1        9.4490    1.8430  -17.9050 O.co2 346  ASP346     -0.2456
    116  OD2       10.2500    3.0330  -16.2860 O.co2 346  ASP346     -0.2456
@<TRIPOS>BOND
     1   112   111    2
     2   111   110    1
     3   110   109    1
     4   110   113    1
     5    66    65    2
     6    62    61    1
     7   113   114    1
     8   115   114   ar
     9    65    64    1
    10   114   116   ar
    11    54    53    2
    12    61    60   ar
    13    61    59   ar
    14    70    72   ar
    15    70    68   ar
    16    64    67    1
    17    64    63    1
    18    60    58   ar
    19    59    57   ar
    20    67    68    1
    21    72    71   ar
    22    68    69   ar
    23    53    63   am
    24    53    52    1
    25   100    99    2
    26     4     3    2
    27    58    56   ar
    28    57    56   ar
    29     9     8    1
    30     7     8    1
    31     7     6    1
    32    56    55    1
    33     3     2    1
    34     5     6    1
    35     5     2    1
    36    71    69   ar
    37    52    55    1
    38    52    51    1
    39    99    98    1
    40     2     1    1
    41    98    97    1
    42    98   101    1
    43    47    46    2
    44   101   102    1
    45   103   102   ar
    46   103   105   ar
    47   102   104   ar
    48    46    45    1
    49    49    48    1
    50   105   107   ar
    51    35    33   ar
    52    35    34   ar
    53    39    38    2
    54    33    31   ar
    55    34    32   ar
    56    45    48    1
    57    45    44    1
    58   104   106   ar
    59    48    50    1
    60    96    94    1
    61   107   106   ar
    62   107   108    1
    63    38    44   am
    64    38    37    1
    65    32    29   ar
    66    31    29   ar
    67    31    30   ar
    68    29    27   ar
    69    89    88    1
    70    30    28   ar
    71    95    94    1
    72    94    91    1
    73    42    40    1
    74    21    20    1
    75    37    40    1
    76    37    36    1
    77    19    20   ar
    78    19    17   ar
    79    20    18   ar
    80    27    28   ar
    81    27    26    1
    82    88    87    1
    83    17    15   ar
    84    91    92    1
    85    91    90    1
    86    40    41    1
    87    87    86    1
    88    92    93    2
    89    80    78   am
    90    18    16   ar
    91    15    16   ar
    92    15    14    1
    93    26    23    1
    94    41    43    1
    95    14    11    1
    96    78    79    2
    97    78    77    1
    98    86    85    1
    99    85    82    1
   100    23    24    1
   101    23    22    1
   102    77    74    1
   103    84    83    2
   104    24    25    2
   105    11    12    1
   106    11    10    1
   107    83    82    1
   108    82    81    1
   109    73    74    1
   110    13    12    2
   111    74    75    1
   112    75    76    2
