@<TRIPOS>MOLECULE
tmp/5uikB01.pdb
 169 166 0 0 0
SMALL
GASTEIGER

@<TRIPOS>ATOM
      1  N         -8.2860  -30.0120   14.5670 N.3    73  SER73      -0.1217
      2  CA        -9.4460  -29.1200   14.5230 C.3    73  SER73       0.1889
      3  C         -9.0230  -27.6560   14.7680 C.2    73  SER73       0.2288
      4  O         -8.2140  -27.3500   15.6860 O.2    73  SER73      -0.2866
      5  CB       -10.5120  -29.5270   15.5230 C.3    73  SER73       0.2089
      6  OG       -10.0370  -29.4730   16.8630 O.3    73  SER73      -0.2183
      7  N        -10.9460  -24.1160   14.9980 N.3    75  GLU75      -0.1231
      8  CA       -12.2380  -23.4750   15.1340 C.3    75  GLU75       0.1699
      9  C        -13.4050  -24.3470   14.5790 C.2    75  GLU75       0.2592
     10  O        -14.3370  -23.8650   13.9300 O.2    75  GLU75      -0.2718
     11  CB       -12.1810  -22.1010   14.4780 C.3    75  GLU75       0.0402
     12  CG       -11.2200  -21.1630   15.1900 C.3    75  GLU75       0.1161
     13  CD       -11.6000  -21.0070   16.6460 C.2    75  GLU75       0.3649
     14  OE1      -12.6750  -20.4180   16.9220 O.co2  75  GLU75      -0.2457
     15  OE2      -10.8640  -21.5560   17.4990 O.co2  75  GLU75      -0.2457
     16  N        -13.3210  -25.6380   14.8580 N.am   76  PHE76      -0.1962
     17  CA       -14.2460  -26.6130   14.3300 C.3    76  PHE76       0.1771
     18  C        -15.5100  -26.5710   15.1660 C.2    76  PHE76       0.2620
     19  O        -15.4340  -26.2940   16.3430 O.2    76  PHE76      -0.2715
     20  CB       -13.5970  -28.0010   14.3450 C.3    76  PHE76       0.0574
     21  CG       -14.3760  -29.0740   13.6370 C.ar   76  PHE76      -0.0200
     22  CD1      -14.6130  -30.2980   14.2660 C.ar   76  PHE76      -0.0042
     23  CD2      -14.8630  -28.8890   12.3540 C.ar   76  PHE76      -0.0042
     24  CE1      -15.3140  -31.3190   13.6170 C.ar   76  PHE76      -0.0003
     25  CE2      -15.5710  -29.9090   11.6950 C.ar   76  PHE76      -0.0003
     26  CZ       -15.8010  -31.1180   12.3240 C.ar   76  PHE76      -0.0000
     27  N        -16.6630  -26.7830   14.5420 N.am   77  ASP77      -0.1957
     28  CA       -17.9620  -26.6410   15.2430 C.3    77  ASP77       0.1840
     29  C        -18.6250  -27.9250   15.7400 C.2    77  ASP77       0.2622
     30  O        -19.6110  -27.8330   16.4350 O.2    77  ASP77      -0.2715
     31  CB       -18.9890  -25.8600   14.3790 C.3    77  ASP77       0.1450
     32  CG       -19.3800  -26.5780   13.0820 C.2    77  ASP77       0.3671
     33  OD1      -20.2550  -26.0520   12.4040 O.co2  77  ASP77      -0.2456
     34  OD2      -18.7970  -27.6120   12.7000 O.co2  77  ASP77      -0.2456
     35  N        -18.1010  -29.0960   15.4120 N.am   78  LYS78      -0.1963
     36  CA       -18.7570  -30.3680   15.7660 C.3    78  LYS78       0.1728
     37  C        -18.0290  -31.1290   16.8610 C.2    78  LYS78       0.2616
     38  O        -16.8200  -31.1800   16.8980 O.2    78  LYS78      -0.2715
     39  CB       -18.8730  -31.2750   14.5340 C.3    78  LYS78       0.0311
     40  CG       -19.8280  -30.7670   13.4790 C.3    78  LYS78       0.0038
     41  CD       -19.5710  -31.4740   12.1490 C.3    78  LYS78       0.0206
     42  CE       -20.0390  -30.6900   10.9460 C.3    78  LYS78       0.1093
     43  NZ       -19.2630  -29.4470   10.6970 N.3    78  LYS78      -0.1314
     44  N        -18.7960  -31.7460   17.7380 N.am   79  ILE79      -0.1963
     45  CA       -18.2480  -32.5190   18.8630 C.3    79  ILE79       0.1727
     46  C        -17.5130  -33.7260   18.2980 C.2    79  ILE79       0.2616
     47  O        -18.0620  -34.5090   17.5140 O.2    79  ILE79      -0.2715
     48  CB       -19.3810  -33.0140   19.8270 C.3    79  ILE79       0.0290
     49  CG1      -20.0840  -31.8410   20.5220 C.3    79  ILE79       0.0022
     50  CG2      -18.8810  -34.0230   20.8730 C.3    79  ILE79       0.0023
     51  CD1      -19.2160  -31.1080   21.5440 C.3    79  ILE79       0.0001
     52  N        -16.2740  -33.8730   18.7150 N.am   80  VAL80      -0.1977
     53  CA       -15.4310  -34.9770   18.3150 C.3    80  VAL80       0.1596
     54  C        -15.4290  -35.9920   19.4420 C.2    80  VAL80       0.2287
     55  O        -15.2190  -35.6250   20.5850 O.2    80  VAL80      -0.2864
     56  CB       -14.0270  -34.4770   17.9740 C.3    80  VAL80       0.0276
     57  CG1      -13.0680  -35.6250   17.7740 C.3    80  VAL80       0.0022
     58  CG2      -14.0750  -33.6740   16.6940 C.3    80  VAL80       0.0022
     59  N         -6.2130  -29.9570   18.8230 N.3    92  ASN92      -0.1225
     60  CA        -7.0680  -28.7740   18.6270 C.3    92  ASN92       0.1785
     61  C         -6.2800  -27.5220   18.9070 C.2    92  ASN92       0.2597
     62  O         -5.3690  -27.5630   19.6900 O.2    92  ASN92      -0.2718
     63  CB        -8.2700  -28.8510   19.5640 C.3    92  ASN92       0.1169
     64  CG        -9.1430  -27.6040   19.5140 C.2    92  ASN92       0.2627
     65  OD1       -9.3190  -26.9100   20.5190 O.2    92  ASN92      -0.2716
     66  ND2       -9.6930  -27.3270   18.3610 N.am   92  ASN92      -0.0877
     67  N         -6.5990  -26.4310   18.2250 N.am   93  ILE93      -0.1966
     68  CA        -6.2320  -25.1150   18.6680 C.3    93  ILE93       0.1727
     69  C         -7.4570  -24.4850   19.3420 C.2    93  ILE93       0.2616
     70  O         -8.4960  -24.3550   18.7330 O.2    93  ILE93      -0.2715
     71  CB        -5.7750  -24.2010   17.5280 C.3    93  ILE93       0.0290
     72  CG1       -4.4460  -24.6590   16.9430 C.3    93  ILE93       0.0022
     73  CG2       -5.6530  -22.7410   18.0220 C.3    93  ILE93       0.0023
     74  CD1       -3.2170  -24.1870   17.6970 C.3    93  ILE93       0.0001
     75  N         -7.3100  -24.0990   20.6060 N.am   94  HIS94      -0.1973
     76  CA        -8.3020  -23.3160   21.3160 C.3    94  HIS94       0.1656
     77  C         -7.7550  -21.8990   21.5060 C.2    94  HIS94       0.2291
     78  O         -6.5500  -21.6890   21.7870 O.2    94  HIS94      -0.2864
     79  CB        -8.6160  -23.9370   22.6500 C.3    94  HIS94       0.0771
     80  CG        -9.6170  -23.1680   23.4260 C.ar   94  HIS94       0.0820
     81  ND1      -10.8820  -22.8860   22.9340 N.ar   94  HIS94      -0.2267
     82  CD2       -9.5380  -22.5730   24.6380 C.ar   94  HIS94       0.1154
     83  CE1      -11.5410  -22.1600   23.8240 C.ar   94  HIS94       0.1986
     84  NE2      -10.7500  -21.9600   24.8700 N.ar   94  HIS94      -0.2212
     85  N        -16.7000  -20.7770   25.1700 N.3   104  MET104     -0.1245
     86  CA       -17.1910  -19.8830   24.1180 C.3   104  MET104      0.1570
     87  C        -16.7620  -18.4230   24.2690 C.2   104  MET104      0.2261
     88  O        -16.3600  -17.9760   25.3470 O.2   104  MET104     -0.2867
     89  CB       -18.7240  -19.9500   24.0560 C.3   104  MET104      0.0387
     90  CG       -19.2810  -21.3540   23.8550 C.3   104  MET104      0.0595
     91  SD       -18.7190  -22.1870   22.3520 S.3   104  MET104     -0.1393
     92  CE       -19.7620  -21.2560   21.1980 C.3   104  MET104      0.0692
     93  N         -3.5670  -28.5170   22.1240 N.3   123  HIS123     -0.1241
     94  CA        -3.8270  -29.5390   23.1270 C.3   123  HIS123      0.1621
     95  C         -4.5120  -30.6990   22.4960 C.2   123  HIS123      0.2264
     96  O         -4.8540  -30.6210   21.3110 O.2   123  HIS123     -0.2867
     97  CB        -4.6780  -28.9740   24.2760 C.3   123  HIS123      0.0745
     98  CG        -6.0750  -28.6340   23.8840 C.ar  123  HIS123      0.0817
     99  ND1       -7.1210  -29.4880   24.0880 N.ar  123  HIS123     -0.2268
    100  CD2       -6.5960  -27.5370   23.2960 C.ar  123  HIS123      0.1154
    101  CE1       -8.2330  -28.9390   23.6400 C.ar  123  HIS123      0.1986
    102  NE2       -7.9410  -27.7440   23.1730 N.ar  123  HIS123     -0.2212
    103  N         -7.5610  -33.3850   21.8670 N.3   125  ILE125     -0.1231
    104  CA        -9.0350  -33.4530   21.9330 C.3   125  ILE125      0.1692
    105  C         -9.3480  -34.6110   22.8440 C.2   125  ILE125      0.2592
    106  O         -8.9000  -35.7270   22.5950 O.2   125  ILE125     -0.2718
    107  CB        -9.6800  -33.6780   20.5460 C.3   125  ILE125      0.0266
    108  CG1       -9.3660  -32.4730   19.6570 C.3   125  ILE125      0.0019
    109  CG2      -11.1990  -33.8910   20.6440 C.3   125  ILE125      0.0020
    110  CD1       -9.5230  -32.7190   18.1910 C.3   125  ILE125      0.0001
    111  N        -10.0920  -34.3420   23.9120 N.am  126  ASP126     -0.1960
    112  CA       -10.5340  -35.3800   24.8510 C.3   126  ASP126      0.1840
    113  C        -12.0410  -35.3490   24.8170 C.2   126  ASP126      0.2622
    114  O        -12.6240  -34.5800   24.0650 O.2   126  ASP126     -0.2715
    115  CB       -10.0000  -35.1220   26.2920 C.3   126  ASP126      0.1450
    116  CG        -9.4850  -36.3950   26.9640 C.2   126  ASP126      0.3671
    117  OD1      -10.0330  -37.4920   26.6980 O.co2 126  ASP126     -0.2456
    118  OD2       -8.5210  -36.3210   27.7600 O.co2 126  ASP126     -0.2456
    119  N        -12.6590  -36.1620   25.6580 N.am  127  HIS127     -0.1959
    120  CA       -14.1010  -36.3180   25.6800 C.3   127  HIS127      0.1787
    121  C        -14.7790  -34.9800   25.9980 C.2   127  HIS127      0.2621
    122  O        -15.7380  -34.6040   25.3470 O.2   127  HIS127     -0.2715
    123  CB       -14.4940  -37.4330   26.6740 C.3   127  HIS127      0.0785
    124  CG       -13.8910  -38.7760   26.3370 C.ar  127  HIS127      0.0821
    125  ND1      -14.5370  -39.7190   25.5520 N.ar  127  HIS127     -0.2267
    126  CD2      -12.6850  -39.3120   26.6430 C.ar  127  HIS127      0.1154
    127  CE1      -13.7630  -40.7820   25.4110 C.ar  127  HIS127      0.1986
    128  NE2      -12.6300  -40.5560   26.0550 N.ar  127  HIS127     -0.2212
    129  N        -14.2370  -34.2280   26.9490 N.am  128  GLY128     -0.1940
    130  CA       -14.8400  -32.9590   27.3420 C.3   128  GLY128      0.2014
    131  C        -14.6270  -31.7670   26.4200 C.2   128  GLY128      0.2639
    132  O        -14.0260  -31.8910   25.3580 O.2   128  GLY128     -0.2714
    133  N        -15.1080  -30.6030   26.8640 N.am  129  ILE129     -0.1963
    134  CA       -14.9400  -29.3180   26.1560 C.3   129  ILE129      0.1727
    135  C        -13.6100  -28.6810   26.5630 C.2   129  ILE129      0.2616
    136  O        -13.4570  -28.2350   27.7030 O.2   129  ILE129     -0.2715
    137  CB       -16.0660  -28.3110   26.5070 C.3   129  ILE129      0.0290
    138  CG1      -17.4370  -28.7430   25.9420 C.3   129  ILE129      0.0022
    139  CG2      -15.7680  -26.9270   25.9550 C.3   129  ILE129      0.0023
    140  CD1      -17.9710  -30.0810   26.4310 C.3   129  ILE129      0.0001
    141  N        -12.6600  -28.6140   25.6420 N.am  130  ASP130     -0.1971
    142  CA       -11.3910  -27.9210   25.8850 C.3   130  ASP130      0.1709
    143  C        -10.6830  -28.4240   27.1350 C.2   130  ASP130      0.2293
    144  O        -10.1180  -27.6390   27.9080 O.2   130  ASP130     -0.2864
    145  CB       -11.6400  -26.3900   25.9980 C.3   130  ASP130      0.1436
    146  CG       -12.1420  -25.7460   24.6880 C.2   130  ASP130      0.3671
    147  OD1      -11.8490  -26.2850   23.5980 O.co2 130  ASP130     -0.2456
    148  OD2      -12.7930  -24.6670   24.7630 O.co2 130  ASP130     -0.2456
    149  N        -14.6080  -21.3530   32.5460 N.3   187  TYR187     -0.1241
    150  CA       -15.3980  -21.8060   31.4050 C.3   187  TYR187      0.1605
    151  C        -16.6420  -20.9520   31.2340 C.2   187  TYR187      0.2264
    152  O        -17.2950  -20.5960   32.2110 O.2   187  TYR187     -0.2867
    153  CB       -15.7640  -23.2800   31.5490 C.3   187  TYR187      0.0534
    154  CG       -16.9030  -23.7410   30.6480 C.ar  187  TYR187     -0.0201
    155  CD1      -16.6770  -24.0510   29.3030 C.ar  187  TYR187     -0.0009
    156  CD2      -18.2060  -23.8470   31.1370 C.ar  187  TYR187     -0.0009
    157  CE1      -17.7070  -24.4840   28.4730 C.ar  187  TYR187      0.0417
    158  CE2      -19.2640  -24.2710   30.3200 C.ar  187  TYR187      0.0417
    159  CZ       -19.0120  -24.6030   28.9880 C.ar  187  TYR187      0.1957
    160  OH       -20.0530  -25.0020   28.1690 O.3   187  TYR187     -0.2866
    161  N        -22.2950  -21.1820   25.8770 N.3   190  LYS190     -0.1245
    162  CA       -22.9740  -20.3630   24.8790 C.3   190  LYS190      0.1561
    163  C        -24.0420  -19.4210   25.5050 C.2   190  LYS190      0.2260
    164  O        -24.2810  -18.3160   25.0000 O.2   190  LYS190     -0.2867
    165  CB       -23.5160  -21.2470   23.7390 C.3   190  LYS190      0.0271
    166  CG       -24.7420  -22.0870   24.0720 C.3   190  LYS190      0.0035
    167  CD       -25.0000  -23.2100   23.0520 C.3   190  LYS190      0.0206
    168  CE       -26.4900  -23.5990   23.0150 C.3   190  LYS190      0.1093
    169  NZ       -26.7700  -25.0060   22.5730 N.3   190  LYS190     -0.1314
@<TRIPOS>BOND
     1    43    42    1
     2    42    41    1
     3    25    26   ar
     4    25    23   ar
     5    41    40    1
     6    26    24   ar
     7    23    21   ar
     8    33    32   ar
     9    34    32   ar
    10    32    31    1
    11    40    39    1
    12    24    22   ar
    13    21    22   ar
    14    21    20    1
    15    10     9    2
    16    17    20    1
    17    17    16    1
    18    17    18    1
    19    31    28    1
    20    11     8    1
    21    11    12    1
    22     2     1    1
    23     2     3    1
    24     2     5    1
    25    39    36    1
    26    27    18   am
    27    27    28    1
    28     9    16   am
    29     9     8    1
    30     3     4    2
    31     7     8    1
    32    18    19    2
    33    12    13    1
    34    28    29    1
    35    35    29   am
    36    35    36    1
    37     5     6    1
    38    29    30    2
    39    36    37    1
    40    13    14   ar
    41    13    15   ar
    42    58    56    1
    43    37    38    2
    44    37    44   am
    45    72    71    1
    46    72    74    1
    47    47    46    2
    48    71    73    1
    49    71    68    1
    50    44    45    1
    51    57    56    1
    52    56    53    1
    53   110   108    1
    54    67    68    1
    55    67    61   am
    56    46    52   am
    57    46    45    1
    58    53    52    1
    59    53    54    1
    60    66    64   am
    61    60    59    1
    62    60    61    1
    63    60    63    1
    64    68    69    1
    65    70    69    2
    66    45    48    1
    67    61    62    2
    68    69    75   am
    69    54    55    2
    70    64    63    1
    71    64    65    2
    72   108   107    1
    73    48    49    1
    74    48    50    1
    75    49    51    1
    76   107   109    1
    77   107   104    1
    78    75    76    1
    79    92    91    1
    80    96    95    2
    81    76    77    1
    82    76    79    1
    83    77    78    2
    84   103   104    1
    85   104   105    1
    86    93    94    1
    87    91    90    1
    88    95    94    1
    89   169   168    1
    90   106   105    2
    91    79    80    1
    92   105   111   am
    93    81    80   ar
    94    81    83   ar
    95   168   167    1
    96   167   166    1
    97    94    97    1
    98   102   100   ar
    99   102   101   ar
   100   100    98   ar
   101    80    82   ar
   102   147   146   ar
   103   101    99   ar
   104   165   166    1
   105   165   162    1
   106    83    84   ar
   107    90    89    1
   108    98    99   ar
   109    98    97    1
   110   111   112    1
   111    89    86    1
   112   114   113    2
   113    86    87    1
   114    86    85    1
   115    87    88    2
   116    82    84   ar
   117   146   148   ar
   118   146   145    1
   119   113   112    1
   120   113   119   am
   121   112   115    1
   122   162   163    1
   123   162   161    1
   124   164   163    2
   125   122   121    2
   126   132   131    2
   127   127   125   ar
   128   127   128   ar
   129   125   124   ar
   130   141   142    1
   131   141   135   am
   132   119   120    1
   133   120   121    1
   134   120   123    1
   135   142   145    1
   136   142   143    1
   137   138   140    1
   138   138   137    1
   139   139   137    1
   140   121   129   am
   141   128   126   ar
   142   134   137    1
   143   134   135    1
   144   134   133    1
   145   115   116    1
   146   124   126   ar
   147   124   123    1
   148   131   133   am
   149   131   130    1
   150   135   136    2
   151   117   116   ar
   152   129   130    1
   153   116   118   ar
   154   143   144    2
   155   160   159    1
   156   157   159   ar
   157   157   155   ar
   158   159   158   ar
   159   155   154   ar
   160   158   156   ar
   161   154   156   ar
   162   154   153    1
   163   151   150    1
   164   151   152    2
   165   150   153    1
   166   150   149    1
