@<TRIPOS>MOLECULE
tmp/5uimA00.pdb
 225 220 0 0 0
SMALL
GASTEIGER

@<TRIPOS>ATOM
      1  N         36.6610   -6.9950   11.8820 N.3     8  LYS8       -0.1231
      2  CA        36.0780   -7.5130   10.6650 C.3     8  LYS8        0.1693
      3  C         34.9630   -6.6250   10.1470 C.2     8  LYS8        0.2592
      4  O         34.6140   -5.5970   10.7660 O.2     8  LYS8       -0.2718
      5  CB        35.5200   -8.9160   10.9280 C.3     8  LYS8        0.0285
      6  CG        34.2100   -8.8990   11.6990 C.3     8  LYS8        0.0035
      7  CD        33.5770  -10.2860   11.7440 C.3     8  LYS8        0.0206
      8  CE        32.4100  -10.2730   12.7290 C.3     8  LYS8        0.1093
      9  NZ        31.6050  -11.5050   12.7500 N.3     8  LYS8       -0.1314
     10  N         34.4170   -7.0660    9.0080 N.am    9  ASN9       -0.1974
     11  CA        33.2250   -6.4780    8.3660 C.3     9  ASN9        0.1688
     12  C         33.3890   -5.0090    7.9590 C.2     9  ASN9        0.2292
     13  O         34.4810   -4.4530    8.0240 O.2     9  ASN9       -0.2864
     14  CB        31.9860   -6.7140    9.2500 C.3     9  ASN9        0.1181
     15  CG        31.6350   -8.2030    9.3930 C.2     9  ASN9        0.2629
     16  OD1       32.3210   -9.0650    8.8670 O.2     9  ASN9       -0.2716
     17  ND2       30.5660   -8.4920   10.1020 N.am    9  ASN9       -0.0877
     18  N         39.6520  -11.6090   12.0870 N.3    33  ASN33      -0.1240
     19  CA        38.9470  -12.6750   12.7690 C.3    33  ASN33       0.1653
     20  C         39.1890  -14.0540   12.1600 C.2    33  ASN33       0.2266
     21  O         39.5340  -14.1750   10.9900 O.2    33  ASN33      -0.2867
     22  CB        37.4430  -12.3790   12.7810 C.3    33  ASN33       0.1155
     23  CG        37.0950  -11.1970   13.6610 C.2    33  ASN33       0.2627
     24  OD1       37.9580  -10.3790   13.9740 O.2    33  ASN33      -0.2716
     25  ND2       35.8230  -11.1050   14.0730 N.am   33  ASN33      -0.0877
     26  N         37.1170  -16.2340   11.2200 N.3    35  ASN35      -0.1240
     27  CA        36.1490  -16.6020   10.2040 C.3    35  ASN35       0.1653
     28  C         36.1970  -15.6910    8.9740 C.2    35  ASN35       0.2266
     29  O         35.2980  -15.7260    8.1130 O.2    35  ASN35      -0.2867
     30  CB        34.7590  -16.6080   10.8190 C.3    35  ASN35       0.1155
     31  CG        34.2300  -15.2010   11.0830 C.2    35  ASN35       0.2627
     32  OD1       34.9740  -14.1930   10.9860 O.2    35  ASN35      -0.2716
     33  ND2       32.9450  -15.1180   11.4210 N.am   35  ASN35      -0.0877
     34  N         28.0940  -10.5340    2.5320 N.3    42  PHE42      -0.1241
     35  CA        27.2560   -9.3860    2.9030 C.3    42  PHE42       0.1605
     36  C         28.0160   -8.2760    3.6630 C.2    42  PHE42       0.2264
     37  O         27.6240   -7.0860    3.6060 O.2    42  PHE42      -0.2867
     38  CB        25.9710   -9.8110    3.6360 C.3    42  PHE42       0.0534
     39  CG        26.0880   -9.7750    5.1190 C.ar   42  PHE42      -0.0203
     40  CD1       25.6770   -8.6460    5.8390 C.ar   42  PHE42      -0.0042
     41  CD2       26.6410  -10.8630    5.8130 C.ar   42  PHE42      -0.0042
     42  CE1       25.8140   -8.6100    7.2280 C.ar   42  PHE42      -0.0003
     43  CE2       26.7830  -10.8230    7.2010 C.ar   42  PHE42      -0.0003
     44  CZ        26.3770   -9.6900    7.9070 C.ar   42  PHE42      -0.0000
     45  N         34.3950   -5.2870   16.1810 N.3    75  GLU75      -0.1231
     46  CA        33.8110   -6.6270   16.0170 C.3    75  GLU75       0.1699
     47  C         34.8660   -7.7230   15.9620 C.2    75  GLU75       0.2592
     48  O         34.7670   -8.6850   15.1780 O.2    75  GLU75      -0.2718
     49  CB        32.8900   -6.6800   14.7970 C.3    75  GLU75       0.0402
     50  CG        31.6950   -5.7380   14.8890 C.3    75  GLU75       0.1161
     51  CD        30.8260   -6.0860   16.0870 C.2    75  GLU75       0.3649
     52  OE1       30.2420   -7.1780   16.0730 O.co2  75  GLU75      -0.2457
     53  OE2       30.7560   -5.2960   17.0430 O.co2  75  GLU75      -0.2457
     54  N         35.8770   -7.5720   16.8260 N.am   76  PHE76      -0.1962
     55  CA        36.9720   -8.5270   16.9660 C.3    76  PHE76       0.1771
     56  C         36.4610   -9.7590   17.7440 C.2    76  PHE76       0.2619
     57  O         35.5560   -9.6580   18.5450 O.2    76  PHE76      -0.2715
     58  CB        38.0850   -7.8130   17.7300 C.3    76  PHE76       0.0574
     59  CG        39.4280   -8.4640   17.6740 C.ar   76  PHE76      -0.0200
     60  CD1       40.1770   -8.5910   18.8400 C.ar   76  PHE76      -0.0042
     61  CD2       39.9890   -8.8650   16.4840 C.ar   76  PHE76      -0.0042
     62  CE1       41.4600   -9.1480   18.8200 C.ar   76  PHE76      -0.0003
     63  CE2       41.2680   -9.4230   16.4490 C.ar   76  PHE76      -0.0003
     64  CZ        42.0030   -9.5660   17.6170 C.ar   76  PHE76      -0.0000
     65  N         37.0550  -10.9100   17.5110 N.am   77  ASP77      -0.1971
     66  CA        36.5270  -12.1710   18.0310 C.3    77  ASP77       0.1709
     67  C         37.4700  -12.8080   19.0760 C.2    77  ASP77       0.2293
     68  O         37.3210  -13.9650   19.4130 O.2    77  ASP77      -0.2864
     69  CB        36.2850  -13.1320   16.8550 C.3    77  ASP77       0.1436
     70  CG        37.5600  -13.4630   16.1000 C.2    77  ASP77       0.3671
     71  OD1       37.6140  -14.5160   15.3980 O.co2  77  ASP77      -0.2456
     72  OD2       38.5130  -12.6480   16.2010 O.co2  77  ASP77      -0.2456
     73  N         37.4290   -0.1540   22.1040 N.3    92  ASN92      -0.1225
     74  CA        36.5290   -1.1050   21.5210 C.3    92  ASN92       0.1785
     75  C         35.2530   -0.3850   21.1770 C.2    92  ASN92       0.2597
     76  O         34.8290    0.5080   21.8880 O.2    92  ASN92      -0.2718
     77  CB        36.2280   -2.2270   22.4950 C.3    92  ASN92       0.1169
     78  CG        35.2620   -3.2690   21.9160 C.2    92  ASN92       0.2627
     79  OD1       34.1860   -3.5430   22.4890 O.2    92  ASN92      -0.2716
     80  ND2       35.6440   -3.8550   20.7740 N.am   92  ASN92      -0.0877
     81  N         34.6650   -0.7600   20.0590 N.am   93  ILE93      -0.1966
     82  CA        33.3470   -0.3020   19.7250 C.3    93  ILE93       0.1727
     83  C         32.4960   -1.5560   20.0150 C.2    93  ILE93       0.2616
     84  O         32.7850   -2.6280   19.4930 O.2    93  ILE93      -0.2715
     85  CB        33.3500    0.2420   18.2810 C.3    93  ILE93       0.0290
     86  CG1       32.5100    1.5070   18.1120 C.3    93  ILE93       0.0022
     87  CG2       32.7610   -0.7500   17.3200 C.3    93  ILE93       0.0023
     88  CD1       33.1450    2.7850   18.5760 C.3    93  ILE93       0.0001
     89  N         31.5500   -1.4480   20.9380 N.am   94  HIS94      -0.1959
     90  CA        30.5360   -2.4880   21.1720 C.3    94  HIS94       0.1787
     91  C         29.1650   -2.0710   20.7050 C.2    94  HIS94       0.2620
     92  O         28.7560   -0.9010   20.8680 O.2    94  HIS94      -0.2715
     93  CB        30.4160   -2.8270   22.6380 C.3    94  HIS94       0.0785
     94  CG        29.4860   -3.9580   22.9300 C.ar   94  HIS94       0.0821
     95  ND1       29.7730   -5.2660   22.6090 N.ar   94  HIS94      -0.2267
     96  CD2       28.2960   -3.9810   23.5840 C.ar   94  HIS94       0.1154
     97  CE1       28.7820   -6.0430   23.0240 C.ar   94  HIS94       0.1986
     98  NE2       27.8710   -5.2880   23.6210 N.ar   94  HIS94      -0.2212
     99  N         28.4360   -3.0390   20.1390 N.am   95  PHE95      -0.1974
    100  CA        27.1130   -2.7760   19.5280 C.3    95  PHE95       0.1639
    101  C         26.0060   -2.9220   20.5530 C.2    95  PHE95       0.2290
    102  O         25.1650   -3.8080   20.4510 O.2    95  PHE95      -0.2864
    103  CB        26.8500   -3.7340   18.3830 C.3    95  PHE95       0.0560
    104  CG        27.6860   -3.4900   17.1910 C.ar   95  PHE95      -0.0200
    105  CD1       28.4690   -2.3330   17.0640 C.ar   95  PHE95      -0.0042
    106  CD2       27.6750   -4.4000   16.1500 C.ar   95  PHE95      -0.0042
    107  CE1       29.2580   -2.1120   15.9290 C.ar   95  PHE95      -0.0003
    108  CE2       28.4610   -4.1880   15.0200 C.ar   95  PHE95      -0.0003
    109  CZ        29.2460   -3.0430   14.9020 C.ar   95  PHE95      -0.0000
    110  N         28.3780   -8.8070   25.6000 N.3   103  GLY103     -0.1210
    111  CA        28.5180  -10.1410   25.0040 C.3   103  GLY103      0.1956
    112  C         27.9170  -10.2680   23.6130 C.2   103  GLY103      0.2612
    113  O         28.1900   -9.4540   22.7410 O.2   103  GLY103     -0.2717
    114  N         27.0700  -11.2710   23.4140 N.am  104  MET104     -0.1965
    115  CA        26.7720  -11.7930   22.0500 C.3   104  MET104      0.1736
    116  C         25.3850  -11.4380   21.5230 C.2   104  MET104      0.2616
    117  O         24.4700  -11.0940   22.2780 O.2   104  MET104     -0.2715
    118  CB        26.9180  -13.3290   22.0280 C.3   104  MET104      0.0427
    119  CG        28.2750  -13.8410   22.5550 C.3   104  MET104      0.0599
    120  SD        29.7720  -13.1850   21.7380 S.3   104  MET104     -0.1393
    121  CE        29.4410  -13.9170   20.1600 C.3   104  MET104      0.0692
    122  N         25.2520  -11.5360   20.2070 N.am  105  TYR105     -0.1960
    123  CA        23.9640  -11.4860   19.5450 C.3   105  TYR105      0.1771
    124  C         23.2540  -10.1680   19.8280 C.2   105  TYR105      0.2620
    125  O         22.0660  -10.1570   20.0420 O.2   105  TYR105     -0.2715
    126  CB        23.1290  -12.7320   19.9350 C.3   105  TYR105      0.0574
    127  CG        23.8850  -14.0730   19.7330 C.ar  105  TYR105     -0.0198
    128  CD1       24.7830  -14.2360   18.6850 C.ar  105  TYR105     -0.0009
    129  CD2       23.6820  -15.1500   20.5760 C.ar  105  TYR105     -0.0009
    130  CE1       25.4520  -15.4190   18.4780 C.ar  105  TYR105      0.0417
    131  CE2       24.3460  -16.3490   20.3960 C.ar  105  TYR105      0.0417
    132  CZ        25.2240  -16.4950   19.3220 C.ar  105  TYR105      0.1957
    133  OH        25.9290  -17.6900   19.0830 O.3   105  TYR105     -0.2866
    134  N         23.9870   -9.0410   19.7820 N.am  106  THR106     -0.1937
    135  CA        23.3920   -7.7690   20.1580 C.3   106  THR106      0.2028
    136  C         22.3720   -7.2290   19.1610 C.2   106  THR106      0.2643
    137  O         21.6490   -6.2780   19.4570 O.2   106  THR106     -0.2714
    138  CB        24.4230   -6.6890   20.4880 C.3   106  THR106      0.1808
    139  OG1       25.0850   -6.2410   19.3200 O.3   106  THR106     -0.2208
    140  CG2       25.4390   -7.1900   21.4390 C.3   106  THR106      0.0379
    141  N         22.3410   -7.8350   17.9780 N.am  107  SER107     -0.1935
    142  CA        21.2840   -7.6200   16.9880 C.3   107  SER107      0.2055
    143  C         19.9370   -8.3960   17.2500 C.2   107  SER107      0.2642
    144  O         18.8650   -8.0200   16.7530 O.2   107  SER107     -0.2714
    145  CB        21.8560   -7.9880   15.6060 C.3   107  SER107      0.2130
    146  OG        22.7300   -6.9690   15.1790 O.3   107  SER107     -0.2179
    147  N         20.0150   -9.4680   18.0280 N.am  108  ALA108     -0.1977
    148  CA        18.8530  -10.3300   18.3190 C.3   108  ALA108      0.1597
    149  C         18.2550   -9.9940   19.7000 C.2   108  ALA108      0.2287
    150  O         17.0670   -9.7060   19.8350 O.2   108  ALA108     -0.2864
    151  CB        19.3030  -11.7830   18.2630 C.3   108  ALA108      0.0319
    152  N         33.3430   -6.4390   27.8400 N.3   130  ASP130     -0.1239
    153  CA        32.5550   -5.2350   27.5490 C.3   130  ASP130      0.1674
    154  C         32.2220   -4.4590   28.8380 C.2   130  ASP130      0.2266
    155  O         31.0880   -3.9810   29.0060 O.2   130  ASP130     -0.2867
    156  CB        31.2410   -5.5730   26.7920 C.3   130  ASP130      0.1410
    157  CG        31.4480   -6.5300   25.6180 C.2   130  ASP130      0.3668
    158  OD1       32.4860   -6.4240   24.9400 O.co2 130  ASP130     -0.2456
    159  OD2       30.5590   -7.3910   25.3800 O.co2 130  ASP130     -0.2456
    160  N         16.8200   -8.1680   12.6710 N.3   148  ALA148     -0.1245
    161  CA        18.1470   -8.2200   13.2410 C.3   148  ALA148      0.1562
    162  C         19.1640   -7.6460   12.2900 C.2   148  ALA148      0.2260
    163  O         19.9910   -6.8380   12.6940 O.2   148  ALA148     -0.2867
    164  CB        18.5150   -9.6470   13.5680 C.3   148  ALA148      0.0290
    165  N         21.6720   -4.7520   12.7090 N.3   152  TYR152     -0.1241
    166  CA        23.1090   -4.9140   12.4960 C.3   152  TYR152      0.1605
    167  C         23.6960   -3.8360   11.5890 C.2   152  TYR152      0.2264
    168  O         24.7850   -3.3460   11.8360 O.2   152  TYR152     -0.2867
    169  CB        23.3930   -6.2640   11.9030 C.3   152  TYR152      0.0534
    170  CG        24.8500   -6.5810   11.9420 C.ar  152  TYR152     -0.0201
    171  CD1       25.4760   -6.9380   13.1300 C.ar  152  TYR152     -0.0009
    172  CD2       25.6260   -6.5040   10.7990 C.ar  152  TYR152     -0.0009
    173  CE1       26.8180   -7.2320   13.1590 C.ar  152  TYR152      0.0417
    174  CE2       26.9640   -6.8240   10.8340 C.ar  152  TYR152      0.0417
    175  CZ        27.5510   -7.1690   12.0170 C.ar  152  TYR152      0.1957
    176  OH        28.8830   -7.4590   12.0190 O.3   152  TYR152     -0.2866
    177  N         21.7400  -21.2940   17.2610 N.3   195  TYR195     -0.1241
    178  CA        21.3140  -21.0120   15.8850 C.3   195  TYR195      0.1605
    179  C         21.0670  -22.3240   15.0890 C.2   195  TYR195      0.2264
    180  O         19.9770  -22.4780   14.5240 O.2   195  TYR195     -0.2867
    181  CB        22.2610  -19.9800   15.1990 C.3   195  TYR195      0.0534
    182  CG        21.9190  -18.5490   15.6270 C.ar  195  TYR195     -0.0201
    183  CD1       20.7710  -17.9060   15.1290 C.ar  195  TYR195     -0.0009
    184  CD2       22.7020  -17.8540   16.5550 C.ar  195  TYR195     -0.0009
    185  CE1       20.4260  -16.6140   15.5280 C.ar  195  TYR195      0.0417
    186  CE2       22.3600  -16.5550   16.9610 C.ar  195  TYR195      0.0417
    187  CZ        21.2260  -15.9300   16.4590 C.ar  195  TYR195      0.1957
    188  OH        20.8800  -14.6300   16.8580 O.3   195  TYR195     -0.2866
    189  N         13.9460  -10.9180   15.0870 N.3   215  ALA215     -0.1245
    190  CA        15.3060  -11.1240   15.6300 C.3   215  ALA215      0.1562
    191  C         16.0310  -12.2630   14.9670 C.2   215  ALA215      0.2260
    192  O         17.2630  -12.2600   14.8880 O.2   215  ALA215     -0.2867
    193  CB        15.2220  -11.3890   17.1220 C.3   215  ALA215      0.0290
    194  N         17.7210  -12.7770    9.6130 N.3   218  PHE218     -0.1241
    195  CA        19.0210  -12.3450    9.1850 C.3   218  PHE218      0.1605
    196  C         19.4160  -13.3450    8.0970 C.2   218  PHE218      0.2264
    197  O         20.1240  -14.3280    8.3380 O.2   218  PHE218     -0.2867
    198  CB        19.9600  -12.3360   10.4010 C.3   218  PHE218      0.0534
    199  CG        21.1620  -11.4500   10.2560 C.ar  218  PHE218     -0.0203
    200  CD1       21.4360  -10.4710   11.2130 C.ar  218  PHE218     -0.0042
    201  CD2       22.0520  -11.6070    9.1910 C.ar  218  PHE218     -0.0042
    202  CE1       22.5670   -9.6630   11.0990 C.ar  218  PHE218     -0.0003
    203  CE2       23.1670  -10.7950    9.0680 C.ar  218  PHE218     -0.0003
    204  CZ        23.4320   -9.8300   10.0290 C.ar  218  PHE218     -0.0000
    205  N         22.4580  -15.6760    7.2710 N.3   221  TYR221     -0.1227
    206  CA        22.6400  -16.8150    8.1840 C.3   221  TYR221      0.1736
    207  C         21.4460  -17.7290    8.1960 C.2   221  TYR221      0.2595
    208  O         21.6070  -18.9250    8.0530 O.2   221  TYR221     -0.2718
    209  CB        22.8190  -16.3560    9.6290 C.3   221  TYR221      0.0548
    210  CG        24.1240  -15.6930    9.9410 C.ar  221  TYR221     -0.0200
    211  CD1       25.2540  -16.4460   10.1420 C.ar  221  TYR221     -0.0009
    212  CD2       24.2150  -14.2940   10.0530 C.ar  221  TYR221     -0.0009
    213  CE1       26.4590  -15.8450   10.4460 C.ar  221  TYR221      0.0417
    214  CE2       25.4260  -13.6750   10.3540 C.ar  221  TYR221      0.0417
    215  CZ        26.5440  -14.4640   10.5480 C.ar  221  TYR221      0.1957
    216  OH        27.7460  -13.9150   10.8710 O.3   221  TYR221     -0.2866
    217  N         20.2680  -17.1780    8.4740 N.am  222  GLN222     -0.1979
    218  CA        19.0280  -17.9410    8.4140 C.3   222  GLN222      0.1601
    219  C         17.8030  -17.0610    8.4490 C.2   222  GLN222      0.2287
    220  O         17.8660  -15.8490    8.7770 O.2   222  GLN222     -0.2864
    221  CB        18.9160  -18.9850    9.5490 C.3   222  GLN222      0.0394
    222  CG        18.5100  -18.4700   10.9510 C.3   222  GLN222      0.0908
    223  CD        19.5060  -17.4640   11.5410 C.2   222  GLN222      0.2608
    224  OE1       20.6920  -17.7960   11.7920 O.2   222  GLN222     -0.2717
    225  NE2       19.0350  -16.2130   11.7580 N.am  222  GLN222     -0.0878
@<TRIPOS>BOND
     1    34    35    1
     2    35    38    1
     3    35    36    1
     4    37    36    2
     5    38    39    1
     6    39    41   ar
     7    39    40   ar
     8    41    43   ar
     9    40    42   ar
    10    43    44   ar
    11    42    44   ar
    12   205   206    1
    13    12    13    2
    14    12    11    1
    15   208   207    2
    16   196   197    2
    17   196   195    1
    18    29    28    2
    19   206   207    1
    20   206   209    1
    21   207   217   am
    22    11    10    1
    23    11    14    1
    24   218   219    1
    25   218   217    1
    26   218   221    1
    27   219   220    2
    28    16    15    2
    29    28    27    1
    30    10     3   am
    31   203   201   ar
    32   203   204   ar
    33   195   194    1
    34   195   198    1
    35   201   199   ar
    36    14    15    1
    37    15    17   am
    38   221   222    1
    39   209   210    1
    40   210   212   ar
    41   210   211   ar
    42   204   202   ar
    43   212   214   ar
    44   211   213   ar
    45     3     2    1
    46     3     4    2
    47    27    30    1
    48    27    26    1
    49   199   198    1
    50   199   200   ar
    51   214   215   ar
    52   213   215   ar
    53   215   216    1
    54     2     5    1
    55     2     1    1
    56   172   174   ar
    57   172   170   ar
    58    30    31    1
    59   174   175   ar
    60     5     6    1
    61   222   223    1
    62    32    31    2
    63    21    20    2
    64    31    33   am
    65   202   200   ar
    66   223   225   am
    67   223   224    2
    68   167   168    2
    69   167   166    1
    70     6     7    1
    71     7     8    1
    72   169   170    1
    73   169   166    1
    74   170   171   ar
    75   175   176    1
    76   175   173   ar
    77    18    19    1
    78    20    19    1
    79   162   163    2
    80   162   161    1
    81   166   165    1
    82   160   161    1
    83     8     9    1
    84    19    22    1
    85    22    23    1
    86   171   173   ar
    87   161   164    1
    88    23    24    2
    89    23    25   am
    90   180   179    2
    91    49    50    1
    92    49    46    1
    93   192   191    2
    94    50    51    1
    95   109   108   ar
    96   109   107   ar
    97   191   190    1
    98   108   106   ar
    99   189   190    1
   100   179   178    1
   101   183   185   ar
   102   183   182   ar
   103    48    47    2
   104   146   145    1
   105   181   182    1
   106   181   178    1
   107    71    70   ar
   108   185   187   ar
   109   145   142    1
   110   182   184   ar
   111   190   193    1
   112   178   177    1
   113   107   105   ar
   114    47    46    1
   115    47    54   am
   116    46    45    1
   117    52    51   ar
   118    51    53   ar
   119    70    72   ar
   120    70    69    1
   121   106   104   ar
   122    63    61   ar
   123    63    64   ar
   124   187   188    1
   125   187   186   ar
   126    61    59   ar
   127   184   186   ar
   128   144   143    2
   129    54    55    1
   130    69    66    1
   131    55    58    1
   132    55    56    1
   133   142   143    1
   134   142   141    1
   135   105   104   ar
   136   104   103    1
   137   143   147   am
   138    87    85    1
   139    65    56   am
   140    65    66    1
   141    64    62   ar
   142    59    58    1
   143    59    60   ar
   144    56    57    2
   145   141   136   am
   146   147   148    1
   147    66    67    1
   148    86    85    1
   149    86    88    1
   150   151   148    1
   151    85    82    1
   152   148   149    1
   153   103   100    1
   154   130   128   ar
   155   130   132   ar
   156   128   127   ar
   157    62    60   ar
   158    67    68    2
   159   133   132    1
   160   136   137    2
   161   136   135    1
   162   139   138    1
   163   132   131   ar
   164    84    83    2
   165   100    99    1
   166   100   101    1
   167   123   124    1
   168   123   126    1
   169   123   122    1
   170   149   150    2
   171    82    83    1
   172    82    81    1
   173   127   126    1
   174   127   129   ar
   175   134   124   am
   176   134   135    1
   177   124   125    2
   178    83    89   am
   179    81    75   am
   180    99    91   am
   181   135   138    1
   182   121   120    1
   183   122   116   am
   184   131   129   ar
   185   102   101    2
   186   138   140    1
   187    91    92    2
   188    91    90    1
   189    80    78   am
   190    89    90    1
   191    90    93    1
   192    75    74    1
   193    75    76    2
   194    74    73    1
   195    74    77    1
   196   116   115    1
   197   116   117    2
   198   120   119    1
   199    78    79    2
   200    78    77    1
   201   118   115    1
   202   118   119    1
   203   115   114    1
   204    95    94   ar
   205    95    97   ar
   206    93    94    1
   207   113   112    2
   208    94    96   ar
   209    97    98   ar
   210   114   112   am
   211    96    98   ar
   212   112   111    1
   213   158   157   ar
   214   111   110    1
   215   159   157   ar
   216   157   156    1
   217   156   153    1
   218   153   152    1
   219   153   154    1
   220   154   155    2
