@<TRIPOS>MOLECULE
tmp/5uimB01.pdb
 153 148 0 0 0
SMALL
GASTEIGER

@<TRIPOS>ATOM
      1  N         16.7950  -17.5080   70.8220 N.3   280  LYS280     -0.1245
      2  CA        16.1990  -17.8970   72.1080 C.3   280  LYS280      0.1561
      3  C         16.6810  -17.0210   73.2800 C.2   280  LYS280      0.2260
      4  O         15.9290  -16.7130   74.2180 O.2   280  LYS280     -0.2867
      5  CB        16.4790  -19.3710   72.3850 C.3   280  LYS280      0.0271
      6  CG        15.7810  -20.3180   71.4320 C.3   280  LYS280      0.0035
      7  CD        16.2870  -21.7460   71.5420 C.3   280  LYS280      0.0206
      8  CE        15.2540  -22.7680   71.0430 C.3   280  LYS280      0.1093
      9  NZ        14.7500  -22.6970   69.6150 N.3   280  LYS280     -0.1314
     10  N          7.7350  -24.6790   60.5930 N.3   303  TYR303     -0.1241
     11  CA         6.5120  -24.4380   61.4060 C.3   303  TYR303      0.1605
     12  C          5.9670  -23.0560   61.2000 C.2   303  TYR303      0.2264
     13  O          4.8350  -22.7630   61.6000 O.2   303  TYR303     -0.2867
     14  CB         6.7780  -24.6380   62.9150 C.3   303  TYR303      0.0534
     15  CG         7.6040  -25.8770   63.1610 C.ar  303  TYR303     -0.0201
     16  CD1        7.1860  -27.1060   62.6610 C.ar  303  TYR303     -0.0009
     17  CD2        8.7850  -25.8270   63.8430 C.ar  303  TYR303     -0.0009
     18  CE1        7.9290  -28.2510   62.8430 C.ar  303  TYR303      0.0417
     19  CE2        9.5470  -26.9560   64.0140 C.ar  303  TYR303      0.0417
     20  CZ         9.1070  -28.1750   63.5130 C.ar  303  TYR303      0.1957
     21  OH         9.8300  -29.3390   63.6710 O.3   303  TYR303     -0.2866
     22  N          8.0820  -20.4940   62.2800 N.3   305  TRP305     -0.1241
     23  CA         8.7590  -19.7260   63.3020 C.3   305  TRP305      0.1605
     24  C          9.7960  -18.8410   62.6590 C.2   305  TRP305      0.2264
     25  O         10.7360  -19.3230   61.9830 O.2   305  TRP305     -0.2867
     26  CB         9.4290  -20.5720   64.3810 C.3   305  TRP305      0.0550
     27  CG         8.5730  -21.5080   65.1190 C.ar  305  TRP305      0.0003
     28  CD1        7.2060  -21.5380   65.1780 C.ar  305  TRP305      0.0946
     29  CD2        9.0350  -22.5880   65.9380 C.ar  305  TRP305      0.0152
     30  NE1        6.7830  -22.5910   65.9830 N.ar  305  TRP305     -0.2442
     31  CE2        7.8940  -23.2440   66.4610 C.ar  305  TRP305      0.0810
     32  CE3       10.3140  -23.0580   66.2970 C.ar  305  TRP305      0.0012
     33  CZ2        7.9950  -24.3470   67.3110 C.ar  305  TRP305      0.0191
     34  CZ3       10.4110  -24.1630   67.1230 C.ar  305  TRP305      0.0001
     35  CH2        9.2570  -24.7920   67.6310 C.ar  305  TRP305      0.0015
     36  N          9.1350  -14.5650   66.3950 N.3   309  ILE309     -0.1231
     37  CA         8.3620  -15.5850   67.1070 C.3   309  ILE309      0.1692
     38  C          9.1920  -16.3560   68.1330 C.2   309  ILE309      0.2591
     39  O          8.7730  -16.5400   69.2650 O.2   309  ILE309     -0.2718
     40  CB         7.6350  -16.4950   66.1410 C.3   309  ILE309      0.0266
     41  CG1        6.3790  -15.7790   65.6960 C.3   309  ILE309      0.0019
     42  CG2        7.2640  -17.8310   66.7740 C.3   309  ILE309      0.0020
     43  CD1        5.8890  -16.3030   64.3590 C.3   309  ILE309      0.0001
     44  N         10.3820  -16.7740   67.7570 N.am  310  VAL310     -0.1980
     45  CA        11.1870  -17.5640   68.6720 C.3   310  VAL310      0.1595
     46  C         11.4870  -16.7240   69.8850 C.2   310  VAL310      0.2287
     47  O         11.2970  -17.1700   71.0250 O.2   310  VAL310     -0.2864
     48  CB        12.4990  -18.0400   68.0310 C.3   310  VAL310      0.0276
     49  CG1       13.4350  -18.6200   69.0800 C.3   310  VAL310      0.0022
     50  CG2       12.1920  -19.0560   66.9430 C.3   310  VAL310      0.0022
     51  N          8.4220  -16.4010   72.2470 N.3   313  TYR313     -0.1227
     52  CA         8.2170  -17.6020   73.0930 C.3   313  TYR313      0.1736
     53  C          9.2770  -17.7590   74.2150 C.2   313  TYR313      0.2595
     54  O          9.0070  -18.3850   75.2410 O.2   313  TYR313     -0.2718
     55  CB         8.2010  -18.8710   72.2560 C.3   313  TYR313      0.0548
     56  CG         7.8170  -20.1460   73.0120 C.ar  313  TYR313     -0.0200
     57  CD1        6.5080  -20.3660   73.4280 C.ar  313  TYR313     -0.0009
     58  CD2        8.7570  -21.1510   73.2800 C.ar  313  TYR313     -0.0009
     59  CE1        6.1540  -21.5160   74.1060 C.ar  313  TYR313      0.0417
     60  CE2        8.3940  -22.3130   73.9410 C.ar  313  TYR313      0.0417
     61  CZ         7.0970  -22.4880   74.3240 C.ar  313  TYR313      0.1957
     62  OH         6.7100  -23.6180   74.9660 O.3   313  TYR313     -0.2866
     63  N         10.4750  -17.1930   74.0110 N.am  314  HIS314     -0.1975
     64  CA        11.4970  -17.1870   75.0670 C.3   314  HIS314      0.1656
     65  C         11.5780  -15.8860   75.8870 C.2   314  HIS314      0.2291
     66  O         12.5370  -15.6840   76.6350 O.2   314  HIS314     -0.2864
     67  CB        12.8480  -17.5920   74.5050 C.3   314  HIS314      0.0771
     68  CG        12.8900  -19.0170   74.0880 C.ar  314  HIS314      0.0820
     69  ND1       12.5510  -19.4340   72.8140 N.ar  314  HIS314     -0.2267
     70  CD2       13.1630  -20.1400   74.7930 C.ar  314  HIS314      0.1154
     71  CE1       12.6380  -20.7510   72.7500 C.ar  314  HIS314      0.1986
     72  NE2       13.0250  -21.1990   73.9310 N.ar  314  HIS314     -0.2212
     73  N          2.6150  -18.0620   62.6950 N.3   334  ASN334     -0.1240
     74  CA         3.0220  -19.2940   62.0580 C.3   334  ASN334      0.1653
     75  C          1.8760  -19.8190   61.1240 C.2   334  ASN334      0.2266
     76  O          0.8390  -19.1640   60.9210 O.2   334  ASN334     -0.2867
     77  CB         3.4060  -20.3210   63.1080 C.3   334  ASN334      0.1155
     78  CG         2.1970  -21.0240   63.6810 C.2   334  ASN334      0.2627
     79  OD1        1.0650  -20.5120   63.6090 O.2   334  ASN334     -0.2716
     80  ND2        2.4130  -22.1910   64.2510 N.am  334  ASN334     -0.0877
     81  N         -0.2680  -22.1680   61.5020 N.3   336  LYS336     -0.1245
     82  CA        -1.5940  -22.2400   62.1130 C.3   336  LYS336      0.1561
     83  C         -2.2120  -20.8660   62.4640 C.2   336  LYS336      0.2260
     84  O         -3.2960  -20.8000   63.0100 O.2   336  LYS336     -0.2867
     85  CB        -1.5430  -23.1360   63.3390 C.3   336  LYS336      0.0271
     86  CG        -1.4580  -24.6150   63.0280 C.3   336  LYS336      0.0035
     87  CD        -0.0450  -25.1720   63.1070 C.3   336  LYS336      0.0206
     88  CE         0.0510  -26.3370   64.1050 C.3   336  LYS336      0.1093
     89  NZ        -0.5880  -27.6010   63.5950 N.3   336  LYS336     -0.1314
     90  N         -0.8750  -18.7280   64.5490 N.3   338  THR338     -0.1218
     91  CA        -0.5170  -18.4510   65.9160 C.3   338  THR338      0.1862
     92  C          0.3430  -17.1780   65.9400 C.2   338  THR338      0.2287
     93  O          1.3450  -17.0680   65.2560 O.2   338  THR338     -0.2866
     94  CB         0.1220  -19.6960   66.5230 C.3   338  THR338      0.1770
     95  OG1       -0.7970  -20.8090   66.3300 O.3   338  THR338     -0.2211
     96  CG2        0.4390  -19.4660   67.9940 C.3   338  THR338      0.0375
     97  N          0.4170  -14.8230   71.1920 N.3   342  MET342     -0.1230
     98  CA         0.1020  -16.1720   71.7210 C.3   342  MET342      0.1702
     99  C          1.3360  -16.8930   72.2320 C.2   342  MET342      0.2592
    100  O          1.2690  -17.5230   73.2940 O.2   342  MET342     -0.2718
    101  CB        -0.6500  -17.0280   70.7170 C.3   342  MET342      0.0401
    102  CG        -2.0650  -16.5250   70.5180 C.3   342  MET342      0.0596
    103  SD        -2.8700  -17.3560   69.1420 S.3   342  MET342     -0.1393
    104  CE        -4.2750  -16.2470   68.8760 C.3   342  MET342      0.0692
    105  N          2.4480  -16.7350   71.4970 N.am  343  TYR343     -0.1976
    106  CA         3.7620  -17.2290   71.9130 C.3   343  TYR343      0.1639
    107  C          4.2500  -16.6080   73.2350 C.2   343  TYR343      0.2290
    108  O          4.8310  -17.3200   74.0700 O.2   343  TYR343     -0.2864
    109  CB         4.7970  -17.0360   70.7840 C.3   343  TYR343      0.0560
    110  CG         4.5460  -17.9900   69.6270 C.ar  343  TYR343     -0.0198
    111  CD1        4.7420  -19.3730   69.8050 C.ar  343  TYR343     -0.0009
    112  CD2        4.0160  -17.5410   68.3910 C.ar  343  TYR343     -0.0009
    113  CE1        4.4970  -20.2900   68.7980 C.ar  343  TYR343      0.0417
    114  CE2        3.7560  -18.4610   67.3460 C.ar  343  TYR343      0.0417
    115  CZ         3.9920  -19.8390   67.5500 C.ar  343  TYR343      0.1957
    116  OH         3.7320  -20.7810   66.5810 O.3   343  TYR343     -0.2866
    117  N          2.2420  -15.0450   75.5180 N.3   345  LYS345     -0.1231
    118  CA         1.3300  -15.5970   76.5170 C.3   345  LYS345      0.1693
    119  C          1.9310  -16.8540   77.0840 C.2   345  LYS345      0.2592
    120  O          2.0390  -16.9610   78.2820 O.2   345  LYS345     -0.2718
    121  CB        -0.0440  -15.8270   75.9270 C.3   345  LYS345      0.0285
    122  CG        -1.1100  -16.3180   76.9180 C.3   345  LYS345      0.0035
    123  CD        -1.1780  -17.8550   76.8970 C.3   345  LYS345      0.0206
    124  CE        -1.7940  -18.4330   75.6330 C.3   345  LYS345      0.1093
    125  NZ        -1.2250  -19.7900   75.3930 N.3   345  LYS345     -0.1314
    126  N          2.4270  -17.7710   76.2490 N.am  346  ASP346     -0.1974
    127  CA         3.0980  -18.9390   76.8130 C.3   346  ASP346      0.1709
    128  C          4.2990  -18.6380   77.7160 C.2   346  ASP346      0.2293
    129  O          4.4160  -19.2240   78.8240 O.2   346  ASP346     -0.2864
    130  CB         3.3770  -19.9990   75.7680 C.3   346  ASP346      0.1436
    131  CG         2.1460  -20.8480   75.5260 C.2   346  ASP346      0.3671
    132  OD1        2.2220  -22.0880   75.6400 O.co2 346  ASP346     -0.2456
    133  OD2        1.0660  -20.2380   75.3220 O.co2 346  ASP346     -0.2456
    134  N         -6.2940  -16.9510   65.6830 N.3   371  ASP371     -0.1239
    135  CA        -5.5480  -17.8910   64.8420 C.3   371  ASP371      0.1674
    136  C         -6.5170  -18.5210   63.8250 C.2   371  ASP371      0.2266
    137  O         -7.6640  -18.0630   63.6800 O.2   371  ASP371     -0.2867
    138  CB        -4.8030  -18.9360   65.6850 C.3   371  ASP371      0.1410
    139  CG        -5.7230  -19.7750   66.5390 C.2   371  ASP371      0.3668
    140  OD1       -6.9650  -19.7110   66.3670 O.co2 371  ASP371     -0.2456
    141  OD2       -5.1840  -20.5000   67.3870 O.co2 371  ASP371     -0.2456
    142  N         -7.9830  -18.9620   74.5540 N.3   380  TYR380     -0.1241
    143  CA        -7.0860  -20.0070   75.0770 C.3   380  TYR380      0.1605
    144  C         -6.8830  -19.9570   76.5900 C.2   380  TYR380      0.2264
    145  O         -6.8840  -21.0050   77.2550 O.2   380  TYR380     -0.2867
    146  CB        -5.7180  -19.9640   74.3620 C.3   380  TYR380      0.0534
    147  CG        -5.7830  -20.5430   72.9680 C.ar  380  TYR380     -0.0201
    148  CD1       -6.1030  -21.8900   72.7860 C.ar  380  TYR380     -0.0009
    149  CD2       -5.5700  -19.7280   71.8130 C.ar  380  TYR380     -0.0009
    150  CE1       -6.1760  -22.4490   71.5150 C.ar  380  TYR380      0.0417
    151  CE2       -5.6350  -20.2670   70.5290 C.ar  380  TYR380      0.0417
    152  CZ        -5.9510  -21.6300   70.3920 C.ar  380  TYR380      0.1957
    153  OH        -6.0390  -22.2230   69.1780 O.3   380  TYR380     -0.2866
@<TRIPOS>BOND
     1    10    11    1
     2    76    75    2
     3    75    74    1
     4    12    11    1
     5    12    13    2
     6    11    14    1
     7    81    82    1
     8    25    24    2
     9    74    73    1
    10    74    77    1
    11    82    83    1
    12    82    85    1
    13    22    23    1
    14    83    84    2
    15    24    23    1
    16    16    18   ar
    17    16    15   ar
    18    18    20   ar
    19    14    15    1
    20    86    87    1
    21    86    85    1
    22    87    88    1
    23    77    78    1
    24    15    17   ar
    25    23    26    1
    26    20    21    1
    27    20    19   ar
    28    89    88    1
    29    79    78    2
    30   137   136    2
    31    78    80   am
    32   136   135    1
    33    17    19   ar
    34    43    41    1
    35    26    27    1
    36    90    91    1
    37   135   134    1
    38   135   138    1
    39    27    28   ar
    40    27    29   ar
    41    28    30   ar
    42    93    92    2
    43   138   139    1
    44    41    40    1
    45    91    92    1
    46    91    94    1
    47    29    32   ar
    48    29    31   ar
    49    30    31   ar
    50    40    42    1
    51    40    37    1
    52    32    34   ar
    53    95    94    1
    54   140   139   ar
    55    36    37    1
    56    31    33   ar
    57    94    96    1
    58   139   141   ar
    59   116   115    1
    60    50    48    1
    61    37    38    1
    62    34    35   ar
    63    33    35   ar
    64   114   115   ar
    65   114   112   ar
    66   115   113   ar
    67    44    38   am
    68    44    45    1
    69    48    45    1
    70    48    49    1
    71    38    39    2
    72   112   110   ar
    73    45    46    1
    74   113   111   ar
    75   104   103    1
    76   103   102    1
    77   153   152    1
    78     9     8    1
    79   110   111   ar
    80   110   109    1
    81    46    47    2
    82   152   151   ar
    83   152   150   ar
    84   102   101    1
    85   151   149   ar
    86   101    98    1
    87   109   106    1
    88     1     2    1
    89     8     7    1
    90    97    98    1
    91     6     7    1
    92     6     5    1
    93   105   106    1
    94   105    99   am
    95   150   148   ar
    96    98    99    1
    97   149   147   ar
    98   106   107    1
    99     2     5    1
   100     2     3    1
   101    99   100    2
   102    51    52    1
   103    55    56    1
   104    55    52    1
   105    71    69   ar
   106    71    72   ar
   107   148   147   ar
   108    69    68   ar
   109   147   146    1
   110    56    58   ar
   111    56    57   ar
   112    52    53    1
   113   107   108    2
   114     3     4    2
   115    58    60   ar
   116    57    59   ar
   117    72    70   ar
   118    60    61   ar
   119    63    53   am
   120    63    64    1
   121    68    67    1
   122    68    70   ar
   123    59    61   ar
   124    53    54    2
   125    61    62    1
   126   146   143    1
   127    67    64    1
   128   142   143    1
   129    64    65    1
   130   143   144    1
   131   133   131   ar
   132   125   124    1
   133   117   118    1
   134   131   132   ar
   135   131   130    1
   136   124   123    1
   137   130   127    1
   138    65    66    2
   139   121   118    1
   140   121   122    1
   141   126   127    1
   142   126   119   am
   143   118   119    1
   144   144   145    2
   145   127   128    1
   146   123   122    1
   147   119   120    2
   148   128   129    2
