@<TRIPOS>MOLECULE
tmp/5uinA01.pdb
 139 137 0 0 0
SMALL
GASTEIGER

@<TRIPOS>ATOM
      1  N         39.8790   -2.5020   18.7740 N.3    74  SER74      -0.1217
      2  CA        39.2450   -3.7680   18.4770 C.3    74  SER74       0.1889
      3  C         37.8380   -3.4840   17.9500 C.2    74  SER74       0.2288
      4  O         37.0570   -2.6910   18.5280 O.2    74  SER74      -0.2866
      5  CB        39.1900   -4.5720   19.7710 C.3    74  SER74       0.2089
      6  OG        38.0590   -5.4080   19.8050 O.3    74  SER74      -0.2183
      7  N         36.1640   -7.9360   17.0460 N.3    77  PHE77      -0.1227
      8  CA        37.3050   -8.8500   17.1060 C.3    77  PHE77       0.1736
      9  C         36.8920  -10.0850   17.8770 C.2    77  PHE77       0.2595
     10  O         36.1200   -9.9850   18.8220 O.2    77  PHE77      -0.2718
     11  CB        38.4440   -8.1250   17.8080 C.3    77  PHE77       0.0547
     12  CG        39.7760   -8.8090   17.7660 C.ar   77  PHE77      -0.0202
     13  CD1       40.5840   -8.8070   18.9210 C.ar   77  PHE77      -0.0042
     14  CD2       40.2640   -9.3880   16.6100 C.ar   77  PHE77      -0.0042
     15  CE1       41.8390   -9.3780   18.9240 C.ar   77  PHE77      -0.0003
     16  CE2       41.5170   -9.9820   16.6070 C.ar   77  PHE77      -0.0003
     17  CZ        42.3130   -9.9660   17.7670 C.ar   77  PHE77      -0.0000
     18  N         37.4260  -11.2280   17.4800 N.am   78  ASP78      -0.1960
     19  CA        36.9990  -12.5030   18.0390 C.3    78  ASP78       0.1840
     20  C         37.9360  -13.0640   19.1090 C.2    78  ASP78       0.2622
     21  O         37.7450  -14.1830   19.5020 O.2    78  ASP78      -0.2715
     22  CB        36.8070  -13.5720   16.9340 C.3    78  ASP78       0.1450
     23  CG        38.0880  -13.8960   16.1950 C.2    78  ASP78       0.3671
     24  OD1       38.1240  -14.9560   15.5080 O.co2  78  ASP78      -0.2456
     25  OD2       39.0480  -13.0760   16.2910 O.co2  78  ASP78      -0.2456
     26  N         38.9530  -12.3450   19.5630 N.am   79  LYS79      -0.1963
     27  CA        39.9570  -12.9610   20.4690 C.3    79  LYS79       0.1728
     28  C         39.9600  -12.2420   21.8230 C.2    79  LYS79       0.2616
     29  O         39.8710  -11.0070   21.8840 O.2    79  LYS79      -0.2715
     30  CB        41.3450  -13.0010   19.8090 C.3    79  LYS79       0.0311
     31  CG        41.3510  -13.8010   18.5210 C.3    79  LYS79       0.0038
     32  CD        42.6230  -13.6550   17.7010 C.3    79  LYS79       0.0206
     33  CE        42.4010  -13.9820   16.2110 C.3    79  LYS79       0.1093
     34  NZ        43.5810  -13.5480   15.3960 N.3    79  LYS79      -0.1314
     35  N         40.0510  -13.0200   22.8950 N.am   80  ILE80      -0.1963
     36  CA        40.2100  -12.4570   24.2290 C.3    80  ILE80       0.1727
     37  C         41.5800  -11.8050   24.2780 C.2    80  ILE80       0.2616
     38  O         42.6200  -12.4530   24.1570 O.2    80  ILE80      -0.2715
     39  CB        40.1680  -13.4610   25.4030 C.3    80  ILE80       0.0290
     40  CG1       39.0460  -14.4940   25.2540 C.3    80  ILE80       0.0022
     41  CG2       40.0380  -12.6860   26.7110 C.3    80  ILE80       0.0023
     42  CD1       37.6620  -13.8890   25.1970 C.3    80  ILE80       0.0001
     43  N         41.5530  -10.4990   24.4540 N.am   81  VAL81      -0.1977
     44  CA        42.7600   -9.7320   24.6780 C.3    81  VAL81       0.1596
     45  C         43.0920   -9.8470   26.1640 C.2    81  VAL81       0.2287
     46  O         42.2070   -9.6750   26.9740 O.2    81  VAL81      -0.2864
     47  CB        42.4890   -8.2740   24.2650 C.3    81  VAL81       0.0276
     48  CG1       43.6090   -7.3740   24.7360 C.3    81  VAL81       0.0022
     49  CG2       42.2920   -8.1970   22.7450 C.3    81  VAL81       0.0022
     50  N         37.8320   -0.6070   22.5120 N.3    93  ASN93      -0.1225
     51  CA        36.8940   -1.5230   21.8800 C.3    93  ASN93       0.1785
     52  C         35.5890   -0.8170   21.5410 C.2    93  ASN93       0.2597
     53  O         35.1270    0.0350   22.2960 O.2    93  ASN93      -0.2718
     54  CB        36.5360   -2.7320   22.7630 C.3    93  ASN93       0.1169
     55  CG        35.5900   -3.7290   22.0520 C.2    93  ASN93       0.2627
     56  OD1       34.4990   -4.0680   22.5330 O.2    93  ASN93      -0.2716
     57  ND2       36.0070   -4.1800   20.8880 N.am   93  ASN93      -0.0877
     58  N         35.0080   -1.1790   20.4050 N.am   94  ILE94      -0.1966
     59  CA        33.6520   -0.7410   20.0800 C.3    94  ILE94       0.1727
     60  C         32.8340   -1.9840   20.3620 C.2    94  ILE94       0.2616
     61  O         33.0400   -3.0290   19.7160 O.2    94  ILE94      -0.2715
     62  CB        33.4390   -0.2530   18.6330 C.3    94  ILE94       0.0290
     63  CG1       32.8990    1.1740   18.6180 C.3    94  ILE94       0.0022
     64  CG2       32.2270   -0.9180   17.9780 C.3    94  ILE94       0.0023
     65  CD1       33.9200    2.1950   18.9720 C.3    94  ILE94       0.0001
     66  N         31.9320   -1.8600   21.3290 N.am   95  HIS95      -0.1973
     67  CA        30.9500   -2.8940   21.5650 C.3    95  HIS95       0.1656
     68  C         29.5500   -2.4630   21.1270 C.2    95  HIS95       0.2291
     69  O         29.1270   -1.3380   21.3200 O.2    95  HIS95      -0.2864
     70  CB        30.9260   -3.2640   23.0310 C.3    95  HIS95       0.0771
     71  CG        29.9330   -4.3240   23.3470 C.ar   95  HIS95       0.0820
     72  ND1       30.0830   -5.6190   22.9200 N.ar   95  HIS95      -0.2267
     73  CD2       28.7700   -4.2760   24.0340 C.ar   95  HIS95       0.1154
     74  CE1       29.0560   -6.3360   23.3460 C.ar   95  HIS95       0.1986
     75  NE2       28.2450   -5.5410   24.0250 N.ar   95  HIS95      -0.2212
     76  N         27.4870  -11.6530   23.7120 N.3   105  MET105     -0.1245
     77  CA        27.1420  -12.1130   22.3610 C.3   105  MET105      0.1570
     78  C         25.7460  -11.7600   21.8480 C.2   105  MET105      0.2261
     79  O         24.8100  -11.5030   22.6110 O.2   105  MET105     -0.2867
     80  CB        27.1990  -13.6500   22.2510 C.3   105  MET105      0.0387
     81  CG        28.4160  -14.2860   22.8810 C.3   105  MET105      0.0595
     82  SD        29.9150  -13.7740   22.0480 S.3   105  MET105     -0.1393
     83  CE        29.7940  -14.6960   20.5130 C.3   105  MET105      0.0692
     84  N         34.8090    1.8830   24.4990 N.3   124  HIS124     -0.1241
     85  CA        35.2810    1.6810   25.8530 C.3   124  HIS124      0.1621
     86  C         36.7270    1.1860   25.9470 C.2   124  HIS124      0.2264
     87  O         37.3110    0.7370   24.9730 O.2   124  HIS124     -0.2867
     88  CB        34.3240    0.7650   26.6430 C.3   124  HIS124      0.0745
     89  CG        34.2730   -0.6500   26.1390 C.ar  124  HIS124      0.0817
     90  ND1       35.0810   -1.6400   26.6410 N.ar  124  HIS124     -0.2268
     91  CD2       33.5070   -1.2430   25.1950 C.ar  124  HIS124      0.1154
     92  CE1       34.8260   -2.7800   26.0230 C.ar  124  HIS124      0.1986
     93  NE2       33.8810   -2.5660   25.1310 N.ar  124  HIS124     -0.2212
     94  N         39.4700   -1.5320   27.1440 N.3   126  ILE126     -0.1231
     95  CA        39.4980   -2.9670   27.3140 C.3   126  ILE126      0.1692
     96  C         40.1960   -3.2130   28.6390 C.2   126  ILE126      0.2592
     97  O         41.2760   -2.6750   28.8570 O.2   126  ILE126     -0.2718
     98  CB        40.2810   -3.6840   26.1990 C.3   126  ILE126      0.0266
     99  CG1       39.5990   -3.4660   24.8420 C.3   126  ILE126      0.0019
    100  CG2       40.3030   -5.1760   26.4860 C.3   126  ILE126      0.0020
    101  CD1       40.3270   -4.0620   23.6470 C.3   126  ILE126      0.0001
    102  N         39.5660   -4.0190   29.4890 N.am  127  ASP127     -0.1960
    103  CA        40.1810   -4.7100   30.6290 C.3   127  ASP127      0.1840
    104  C         40.0910   -6.2570   30.4890 C.2   127  ASP127      0.2622
    105  O         39.6660   -6.7580   29.4560 O.2   127  ASP127     -0.2715
    106  CB        39.4930   -4.2660   31.9040 C.3   127  ASP127      0.1450
    107  CG        38.0750   -4.7830   32.0090 C.2   127  ASP127      0.3671
    108  OD1       37.4020   -4.3920   32.9680 O.co2 127  ASP127     -0.2456
    109  OD2       37.6110   -5.5650   31.1520 O.co2 127  ASP127     -0.2456
    110  N         40.4830   -7.0040   31.5200 N.am  128  HIS128     -0.1959
    111  CA        40.4580   -8.4820   31.5080 C.3   128  HIS128      0.1787
    112  C         39.0670   -9.0660   31.1810 C.2   128  HIS128      0.2621
    113  O         38.9590  -10.0680   30.4860 O.2   128  HIS128     -0.2715
    114  CB        40.9680   -9.0370   32.8540 C.3   128  HIS128      0.0785
    115  CG        40.0440   -8.7860   34.0140 C.ar  128  HIS128      0.0821
    116  ND1       40.1450   -7.6660   34.8200 N.ar  128  HIS128     -0.2267
    117  CD2       38.9940   -9.5040   34.4950 C.ar  128  HIS128      0.1154
    118  CE1       39.1990   -7.7060   35.7450 C.ar  128  HIS128      0.1986
    119  NE2       38.4860   -8.8080   35.5680 N.ar  128  HIS128     -0.2212
    120  N         38.0140   -8.4140   31.6700 N.am  129  GLY129     -0.1940
    121  CA        36.6460   -8.8410   31.4740 C.3   129  GLY129      0.2014
    122  C         36.0810   -8.5980   30.0810 C.2   129  GLY129      0.2639
    123  O         36.7110   -7.9940   29.1990 O.2   129  GLY129     -0.2714
    124  N         34.8710   -9.1090   29.9010 N.am  130  ILE130     -0.1963
    125  CA        34.1520   -9.0500   28.6420 C.3   130  ILE130      0.1727
    126  C         33.2470   -7.8370   28.6650 C.2   130  ILE130      0.2616
    127  O         32.2370   -7.8080   29.3710 O.2   130  ILE130     -0.2715
    128  CB        33.3220  -10.3170   28.3920 C.3   130  ILE130      0.0290
    129  CG1       34.2340  -11.5530   28.5000 C.3   130  ILE130      0.0022
    130  CG2       32.6820  -10.2360   27.0120 C.3   130  ILE130      0.0023
    131  CD1       33.6880  -12.8500   27.9140 C.3   130  ILE130      0.0001
    132  N         33.6420   -6.8230   27.9100 N.am  131  ASP131     -0.1971
    133  CA        32.8190   -5.6380   27.7020 C.3   131  ASP131      0.1709
    134  C         32.5710   -4.8470   28.9760 C.2   131  ASP131      0.2293
    135  O         31.5510   -4.1920   29.1280 O.2   131  ASP131     -0.2864
    136  CB        31.5180   -6.0360   26.9970 C.3   131  ASP131      0.1436
    137  CG        31.7700   -6.7870   25.6960 C.2   131  ASP131      0.3671
    138  OD1       32.7920   -6.4910   25.0440 O.co2 131  ASP131     -0.2456
    139  OD2       30.9460   -7.6500   25.3320 O.co2 131  ASP131     -0.2456
@<TRIPOS>BOND
     1    34    33    1
     2    24    23   ar
     3    23    25   ar
     4    23    22    1
     5    33    32    1
     6    16    14   ar
     7    16    17   ar
     8    14    12   ar
     9    22    19    1
    10     7     8    1
    11     8    11    1
    12     8     9    1
    13    18     9   am
    14    18    19    1
    15    32    31    1
    16    12    11    1
    17    12    13   ar
    18    17    15   ar
    19     9    10    2
    20     3     2    1
    21     3     4    2
    22    64    62    1
    23    19    20    1
    24     2     1    1
    25     2     5    1
    26    31    30    1
    27    63    62    1
    28    63    65    1
    29    62    59    1
    30    13    15   ar
    31    20    21    2
    32    20    26   am
    33    26    27    1
    34    61    60    2
    35     5     6    1
    36    30    27    1
    37    59    60    1
    38    59    58    1
    39    60    66   am
    40    58    52   am
    41    27    28    1
    42    83    82    1
    43    57    55   am
    44    68    69    2
    45    68    67    1
    46    66    67    1
    47    52    51    1
    48    52    53    2
    49    67    70    1
    50    28    29    2
    51    28    35   am
    52    78    77    1
    53    78    79    2
    54    51    50    1
    55    51    54    1
    56    82    81    1
    57    55    56    2
    58    55    54    1
    59    80    77    1
    60    80    81    1
    61    77    76    1
    62    49    47    1
    63    35    36    1
    64    72    74   ar
    65    72    71   ar
    66    70    71    1
    67    74    75   ar
    68    71    73   ar
    69   101    99    1
    70    75    73   ar
    71    38    37    2
    72    36    37    1
    73    36    39    1
    74    47    44    1
    75    47    48    1
    76    37    43   am
    77    43    44    1
    78    84    85    1
    79    44    45    1
    80    99    98    1
    81    87    86    2
    82   138   137   ar
    83    93    91   ar
    84    93    92   ar
    85    91    89   ar
    86    42    40    1
    87    40    39    1
    88   139   137   ar
    89    39    41    1
    90   137   136    1
    91    85    86    1
    92    85    88    1
    93    92    90   ar
    94    89    90   ar
    95    89    88    1
    96    45    46    2
    97    98   100    1
    98    98    95    1
    99   136   133    1
   100   130   128    1
   101    94    95    1
   102    95    96    1
   103   133   132    1
   104   133   134    1
   105   132   126   am
   106   131   129    1
   107   128   129    1
   108   128   125    1
   109    96    97    2
   110    96   102   am
   111   125   126    1
   112   125   124    1
   113   126   127    2
   114   134   135    2
   115   123   122    2
   116   105   104    2
   117   102   103    1
   118   124   122   am
   119   122   121    1
   120   113   112    2
   121   104   103    1
   122   104   110   am
   123   103   106    1
   124   109   107   ar
   125   112   111    1
   126   112   120   am
   127   121   120    1
   128   111   110    1
   129   111   114    1
   130   106   107    1
   131   107   108   ar
   132   114   115    1
   133   115   117   ar
   134   115   116   ar
   135   117   119   ar
   136   116   118   ar
   137   119   118   ar
