@<TRIPOS>MOLECULE
tmp/5uinA00.pdb
 152 148 0 0 0
SMALL
GASTEIGER

@<TRIPOS>ATOM
      1  N         36.9660   -7.2740   12.0690 N.3     9  LYS9       -0.1231
      2  CA        36.3210   -7.7910   10.8700 C.3     9  LYS9        0.1693
      3  C         35.2540   -6.8900   10.3050 C.2     9  LYS9        0.2592
      4  O         34.9170   -5.8820   10.9260 O.2     9  LYS9       -0.2718
      5  CB        35.7330   -9.1850   11.1380 C.3     9  LYS9        0.0285
      6  CG        34.5420   -9.2670   12.0720 C.3     9  LYS9        0.0035
      7  CD        33.8580  -10.6490   12.0100 C.3     9  LYS9        0.0206
      8  CE        32.8300  -10.7120   13.1370 C.3     9  LYS9        0.1093
      9  NZ        31.8730  -11.8450   13.1110 N.3     9  LYS9       -0.1314
     10  N         34.7420   -7.2730    9.1300 N.am   10  ASN10      -0.1974
     11  CA        33.5500   -6.6450    8.5230 C.3    10  ASN10       0.1688
     12  C         33.7080   -5.1640    8.1770 C.2    10  ASN10       0.2292
     13  O         34.8290   -4.6680    8.1470 O.2    10  ASN10      -0.2864
     14  CB        32.3280   -6.8710    9.3760 C.3    10  ASN10       0.1181
     15  CG        32.0080   -8.3340    9.5450 C.2    10  ASN10       0.2629
     16  OD1       32.5630   -9.1930    8.8640 O.2    10  ASN10      -0.2716
     17  ND2       31.0800   -8.6260   10.4480 N.am   10  ASN10      -0.0877
     18  N         28.5090  -10.7800    2.7560 N.3    43  PHE43      -0.1241
     19  CA        27.5990   -9.6480    3.0610 C.3    43  PHE43       0.1605
     20  C         28.2610   -8.5060    3.8340 C.2    43  PHE43       0.2264
     21  O         27.7880   -7.3830    3.8140 O.2    43  PHE43      -0.2867
     22  CB        26.3260  -10.0930    3.8090 C.3    43  PHE43       0.0534
     23  CG        26.4970  -10.1310    5.2960 C.ar   43  PHE43      -0.0203
     24  CD1       26.0410   -9.0720    6.0940 C.ar   43  PHE43      -0.0042
     25  CD2       27.1470  -11.2030    5.9050 C.ar   43  PHE43      -0.0042
     26  CE1       26.2260   -9.0970    7.4690 C.ar   43  PHE43      -0.0003
     27  CE2       27.3370  -11.2260    7.2800 C.ar   43  PHE43      -0.0003
     28  CZ        26.8800  -10.1770    8.0640 C.ar   43  PHE43      -0.0000
     29  N         34.7380   -5.7010   16.4360 N.3    76  GLU76      -0.1245
     30  CA        34.1130   -7.0050   16.2130 C.3    76  GLU76       0.1567
     31  C         35.1540   -8.1040   16.2090 C.2    76  GLU76       0.2260
     32  O         35.0630   -9.0770   15.4890 O.2    76  GLU76      -0.2867
     33  CB        33.2920   -6.9400   14.9190 C.3    76  GLU76       0.0388
     34  CG        32.0360   -6.1000   15.1260 C.3    76  GLU76       0.1160
     35  CD        30.9940   -6.8950   15.8950 C.2    76  GLU76       0.3649
     36  OE1       30.3110   -7.7440   15.2310 O.co2  76  GLU76      -0.2457
     37  OE2       30.8920   -6.7220   17.1280 O.co2  76  GLU76      -0.2457
     38  N         28.8260   -3.4160   20.5810 N.3    96  PHE96      -0.1241
     39  CA        27.5510   -3.1630   19.9230 C.3    96  PHE96       0.1605
     40  C         26.3960   -3.2680   20.9270 C.2    96  PHE96       0.2264
     41  O         25.4730   -4.0280   20.7190 O.2    96  PHE96      -0.2867
     42  CB        27.3930   -4.1780   18.7720 C.3    96  PHE96       0.0534
     43  CG        28.2320   -3.8980   17.5270 C.ar   96  PHE96      -0.0203
     44  CD1       29.0220   -2.7620   17.3820 C.ar   96  PHE96      -0.0042
     45  CD2       28.1410   -4.7650   16.4430 C.ar   96  PHE96      -0.0042
     46  CE1       29.7380   -2.5280   16.2090 C.ar   96  PHE96      -0.0003
     47  CE2       28.8440   -4.5350   15.2840 C.ar   96  PHE96      -0.0003
     48  CZ        29.6240   -3.4030   15.1530 C.ar   96  PHE96      -0.0000
     49  N         27.4870  -11.6530   23.7120 N.3   105  MET105     -0.1230
     50  CA        27.1420  -12.1130   22.3610 C.3   105  MET105      0.1702
     51  C         25.7460  -11.7600   21.8480 C.2   105  MET105      0.2592
     52  O         24.8100  -11.5030   22.6110 O.2   105  MET105     -0.2718
     53  CB        27.1990  -13.6500   22.2510 C.3   105  MET105      0.0401
     54  CG        28.4160  -14.2860   22.8810 C.3   105  MET105      0.0596
     55  SD        29.9150  -13.7740   22.0480 S.3   105  MET105     -0.1393
     56  CE        29.7940  -14.6960   20.5130 C.3   105  MET105      0.0692
     57  N         25.6240  -11.8240   20.5250 N.am  106  TYR106     -0.1962
     58  CA        24.3790  -11.8270   19.8200 C.3   106  TYR106      0.1771
     59  C         23.5550  -10.5630   20.1430 C.2   106  TYR106      0.2620
     60  O         22.3560  -10.6440   20.4320 O.2   106  TYR106     -0.2715
     61  CB        23.6240  -13.1260   20.1590 C.3   106  TYR106      0.0574
     62  CG        24.4230  -14.4390   20.0210 C.ar  106  TYR106     -0.0198
     63  CD1       25.4460  -14.5970   19.0970 C.ar  106  TYR106     -0.0009
     64  CD2       24.1150  -15.5360   20.8020 C.ar  106  TYR106     -0.0009
     65  CE1       26.1370  -15.7970   18.9590 C.ar  106  TYR106      0.0417
     66  CE2       24.8000  -16.7310   20.6890 C.ar  106  TYR106      0.0417
     67  CZ        25.8190  -16.8570   19.7630 C.ar  106  TYR106      0.1957
     68  OH        26.4960  -18.0770   19.6520 O.3   106  TYR106     -0.2866
     69  N         24.1960   -9.4010   20.0840 N.am  107  THR107     -0.1937
     70  CA        23.5810   -8.1480   20.5090 C.3   107  THR107      0.2028
     71  C         22.6150   -7.5920   19.4760 C.2   107  THR107      0.2643
     72  O         21.9160   -6.6130   19.7380 O.2   107  THR107     -0.2714
     73  CB        24.6140   -7.0430   20.8500 C.3   107  THR107      0.1808
     74  OG1       25.3060   -6.6050   19.6980 O.3   107  THR107     -0.2208
     75  CG2       25.6340   -7.4920   21.8480 C.3   107  THR107      0.0379
     76  N         22.6190   -8.2050   18.2950 N.am  108  SER108     -0.1935
     77  CA        21.6180   -7.9550   17.2610 C.3   108  SER108      0.2055
     78  C         20.3100   -8.7130   17.4970 C.2   108  SER108      0.2642
     79  O         19.2760   -8.2880   16.9600 O.2   108  SER108     -0.2714
     80  CB        22.1520   -8.3510   15.8720 C.3   108  SER108      0.2130
     81  OG        23.1950   -7.4700   15.5520 O.3   108  SER108     -0.2179
     82  N         20.3770   -9.8170   18.2570 N.am  109  ALA109     -0.1977
     83  CA        19.1880  -10.5930   18.6450 C.3   109  ALA109      0.1597
     84  C         18.6280  -10.2440   20.0490 C.2   109  ALA109      0.2287
     85  O         17.4390   -9.8950   20.1880 O.2   109  ALA109     -0.2864
     86  CB        19.5020  -12.0970   18.5680 C.3   109  ALA109      0.0319
     87  N         17.1010   -8.5700   12.9560 N.3   149  ALA149     -0.1245
     88  CA        18.4810   -8.6400   13.4640 C.3   149  ALA149      0.1562
     89  C         19.4880   -8.1000   12.4660 C.2   149  ALA149      0.2260
     90  O         20.4060   -7.4420   12.8800 O.2   149  ALA149     -0.2867
     91  CB        18.8810  -10.0420   13.9180 C.3   149  ALA149      0.0290
     92  N         22.0890   -5.0350   13.0360 N.3   153  TYR153     -0.1241
     93  CA        23.5280   -5.2500   12.8990 C.3   153  TYR153      0.1605
     94  C         24.1380   -4.2000   11.9770 C.2   153  TYR153      0.2264
     95  O         25.2090   -3.6630   12.2520 O.2   153  TYR153     -0.2867
     96  CB        23.8520   -6.6410   12.3530 C.3   153  TYR153      0.0534
     97  CG        25.3570   -6.9330   12.4050 C.ar  153  TYR153     -0.0201
     98  CD1       25.9900   -7.2210   13.6080 C.ar  153  TYR153     -0.0009
     99  CD2       26.1480   -6.9190   11.2550 C.ar  153  TYR153     -0.0009
    100  CE1       27.3430   -7.4830   13.6640 C.ar  153  TYR153      0.0417
    101  CE2       27.5220   -7.1730   11.3080 C.ar  153  TYR153      0.0417
    102  CZ        28.1180   -7.4570   12.5260 C.ar  153  TYR153      0.1957
    103  OH        29.4840   -7.7180   12.6100 O.3   153  TYR153     -0.2866
    104  N         22.1640  -21.5560   17.5900 N.3   196  TYR196     -0.1241
    105  CA        21.8320  -21.4230   16.1760 C.3   196  TYR196      0.1605
    106  C         21.9410  -22.7160   15.3450 C.2   196  TYR196      0.2264
    107  O         21.5750  -22.6830   14.1870 O.2   196  TYR196     -0.2867
    108  CB        22.6830  -20.3020   15.5560 C.3   196  TYR196      0.0534
    109  CG        22.3610  -18.8920   16.0490 C.ar  196  TYR196     -0.0201
    110  CD1       21.2580  -18.1830   15.5420 C.ar  196  TYR196     -0.0009
    111  CD2       23.1620  -18.2520   17.0180 C.ar  196  TYR196     -0.0009
    112  CE1       20.9580  -16.8870   15.9800 C.ar  196  TYR196      0.0417
    113  CE2       22.8670  -16.9520   17.4570 C.ar  196  TYR196      0.0417
    114  CZ        21.7670  -16.2640   16.9460 C.ar  196  TYR196      0.1957
    115  OH        21.4710  -14.9760   17.3750 O.3   196  TYR196     -0.2866
    116  N         14.2320  -11.1760   15.5240 N.3   216  ALA216     -0.1245
    117  CA        15.5590  -11.4410   16.0780 C.3   216  ALA216      0.1562
    118  C         16.3100  -12.5560   15.3580 C.2   216  ALA216      0.2260
    119  O         17.5270  -12.5990   15.4380 O.2   216  ALA216     -0.2867
    120  CB        15.4570  -11.7770   17.5580 C.3   216  ALA216      0.0290
    121  N         18.1020  -13.0800    9.7600 N.3   219  PHE219     -0.1241
    122  CA        19.4390  -12.6790    9.3750 C.3   219  PHE219      0.1605
    123  C         19.8600  -13.6630    8.2900 C.2   219  PHE219      0.2264
    124  O         20.5410  -14.6650    8.5560 O.2   219  PHE219     -0.2867
    125  CB        20.3660  -12.7390   10.5780 C.3   219  PHE219      0.0534
    126  CG        21.5620  -11.8340   10.4880 C.ar  219  PHE219     -0.0203
    127  CD1       21.8310  -10.9200   11.5170 C.ar  219  PHE219     -0.0042
    128  CD2       22.4400  -11.8930    9.3970 C.ar  219  PHE219     -0.0042
    129  CE1       22.9380  -10.0840   11.4560 C.ar  219  PHE219     -0.0003
    130  CE2       23.5500  -11.0680    9.3430 C.ar  219  PHE219     -0.0003
    131  CZ        23.7890  -10.1640   10.3630 C.ar  219  PHE219     -0.0000
    132  N         22.8380  -16.0910    7.6420 N.3   222  TYR222     -0.1227
    133  CA        22.8730  -17.1940    8.6180 C.3   222  TYR222      0.1736
    134  C         21.6920  -18.1380    8.5890 C.2   222  TYR222      0.2595
    135  O         21.8680  -19.3400    8.4320 O.2   222  TYR222     -0.2718
    136  CB        22.9570  -16.6710   10.0410 C.3   222  TYR222      0.0548
    137  CG        24.2270  -15.9230   10.2720 C.ar  222  TYR222     -0.0200
    138  CD1       25.4480  -16.5930   10.4210 C.ar  222  TYR222     -0.0009
    139  CD2       24.2130  -14.5390   10.3300 C.ar  222  TYR222     -0.0009
    140  CE1       26.6250  -15.8860   10.6560 C.ar  222  TYR222      0.0417
    141  CE2       25.3790  -13.8190   10.5320 C.ar  222  TYR222      0.0417
    142  CZ        26.5780  -14.4980   10.7020 C.ar  222  TYR222      0.1957
    143  OH        27.6900  -13.7360   10.9160 O.3   222  TYR222     -0.2866
    144  N         20.4970  -17.5900    8.7890 N.am  223  GLN223     -0.1979
    145  CA        19.2850  -18.3740    8.7910 C.3   223  GLN223      0.1601
    146  C         18.0650  -17.4670    8.7640 C.2   223  GLN223      0.2287
    147  O         18.1460  -16.2750    9.1010 O.2   223  GLN223     -0.2864
    148  CB        19.2360  -19.2930   10.0140 C.3   223  GLN223      0.0394
    149  CG        18.8090  -18.6510   11.3530 C.3   223  GLN223      0.0908
    150  CD        19.8620  -17.7350   11.9530 C.2   223  GLN223      0.2608
    151  OE1       20.9840  -18.1590   12.2950 O.2   223  GLN223     -0.2717
    152  NE2       19.5010  -16.4740   12.1150 N.am  223  GLN223     -0.0878
@<TRIPOS>BOND
     1    18    19    1
     2    19    22    1
     3    19    20    1
     4    22    23    1
     5    21    20    2
     6    23    25   ar
     7    23    24   ar
     8    25    27   ar
     9    24    26   ar
    10    27    28   ar
    11    26    28   ar
    12   132   133    1
    13    13    12    2
    14    12    11    1
    15   123   124    2
    16   123   122    1
    17   135   134    2
    18    11    10    1
    19    11    14    1
    20   134   133    1
    21   134   144   am
    22   133   136    1
    23   146   145    1
    24   146   147    2
    25   144   145    1
    26   145   148    1
    27    16    15    2
    28    10     3   am
    29   130   128   ar
    30   130   131   ar
    31   122   121    1
    32   122   125    1
    33    14    15    1
    34   128   126   ar
    35    15    17   am
    36   148   149    1
    37   136   137    1
    38   137   139   ar
    39   137   138   ar
    40     3     2    1
    41     3     4    2
    42   139   141   ar
    43   131   129   ar
    44   138   140   ar
    45   126   125    1
    46   126   127   ar
    47   141   142   ar
    48   140   142   ar
    49   142   143    1
    50     2     5    1
    51     2     1    1
    52     5     6    1
    53    99   101   ar
    54    99    97   ar
    55   101   102   ar
    56   149   150    1
    57   129   127   ar
    58   150   152   am
    59   150   151    2
    60    94    95    2
    61    94    93    1
    62     7     6    1
    63     7     8    1
    64    96    97    1
    65    96    93    1
    66    97    98   ar
    67    89    90    2
    68    89    88    1
    69   102   103    1
    70   102   100   ar
    71    93    92    1
    72    87    88    1
    73     9     8    1
    74    88    91    1
    75    98   100   ar
    76   107   106    2
    77    33    34    1
    78    33    30    1
    79    34    35    1
    80    48    47   ar
    81    48    46   ar
    82    36    35   ar
    83    47    45   ar
    84   106   105    1
    85   118   119    2
    86   118   117    1
    87    32    31    2
    88   116   117    1
    89   110   112   ar
    90   110   109   ar
    91    81    80    1
    92   108   109    1
    93   108   105    1
    94    80    77    1
    95    35    37   ar
    96   112   114   ar
    97   109   111   ar
    98   117   120    1
    99   105   104    1
   100    46    44   ar
   101    31    30    1
   102    30    29    1
   103    45    43   ar
   104   114   115    1
   105   114   113   ar
   106    79    78    2
   107   111   113   ar
   108    77    78    1
   109    77    76    1
   110    44    43   ar
   111    78    82   am
   112    43    42    1
   113    82    83    1
   114    76    71   am
   115    86    83    1
   116    83    84    1
   117    42    39    1
   118    65    63   ar
   119    65    67   ar
   120    63    62   ar
   121    71    72    2
   122    71    70    1
   123    68    67    1
   124    74    73    1
   125    67    66   ar
   126    58    59    1
   127    58    61    1
   128    58    57    1
   129    39    38    1
   130    39    40    1
   131    62    61    1
   132    62    64   ar
   133    84    85    2
   134    69    59   am
   135    69    70    1
   136    59    60    2
   137    70    73    1
   138    56    55    1
   139    57    51   am
   140    66    64   ar
   141    41    40    2
   142    73    75    1
   143    51    50    1
   144    51    52    2
   145    55    54    1
   146    53    50    1
   147    53    54    1
   148    50    49    1
