@<TRIPOS>MOLECULE
tmp/5uioD00.pdb
 94 91 0 0 0
SMALL
GASTEIGER

@<TRIPOS>ATOM
      1  N        -55.0730   -2.2100   29.8420 N.3     6  ILE6       -0.1231
      2  CA       -56.1770   -2.1890   30.7890 C.3     6  ILE6        0.1692
      3  C        -56.0930   -0.8980   31.5930 C.2     6  ILE6        0.2592
      4  O        -55.0160   -0.5290   32.0750 O.2     6  ILE6       -0.2718
      5  CB       -56.1660   -3.4260   31.7050 C.3     6  ILE6        0.0266
      6  CG1      -57.3710   -3.3850   32.6500 C.3     6  ILE6        0.0019
      7  CG2      -54.8340   -3.5450   32.4530 C.3     6  ILE6        0.0020
      8  CD1      -57.6800   -4.7300   33.2790 C.3     6  ILE6        0.0001
      9  N        -57.2240   -0.2050   31.7220 N.am    7  ALA7       -0.1966
     10  CA       -57.2180    1.1270   32.3110 C.3     7  ALA7        0.1728
     11  C        -58.6160    1.4920   32.7870 C.2     7  ALA7        0.2616
     12  O        -59.6190    1.0310   32.2340 O.2     7  ALA7       -0.2715
     13  CB       -56.7250    2.1740   31.3090 C.3     7  ALA7        0.0334
     14  N        -58.6640    2.3440   33.8050 N.am    8  ALA8       -0.1977
     15  CA       -59.9120    2.8790   34.3340 C.3     8  ALA8        0.1597
     16  C        -59.9730    4.3660   34.0210 C.2     8  ALA8        0.2287
     17  O        -59.0590    5.1110   34.3850 O.2     8  ALA8       -0.2864
     18  CB       -60.0080    2.6450   35.8440 C.3     8  ALA8        0.0319
     19  N        -55.3260    7.4650   41.7440 N.3    21  MET21      -0.1245
     20  CA       -56.5350    7.4360   40.9320 C.3    21  MET21       0.1570
     21  C        -57.6260    8.2320   41.6350 C.2    21  MET21       0.2261
     22  O        -57.9290    7.9470   42.8000 O.2    21  MET21      -0.2867
     23  CB       -57.0030    6.0080   40.7090 C.3    21  MET21       0.0387
     24  CG       -56.0170    5.1550   39.9150 C.3    21  MET21       0.0595
     25  SD       -56.4430    3.4090   39.9560 S.3    21  MET21      -0.1393
     26  CE       -56.0200    3.0080   41.6500 C.3    21  MET21       0.0692
     27  N        -63.4230   -2.1850   40.6380 N.3    28  ASP28      -0.1225
     28  CA       -62.5630   -2.0630   39.4670 C.3    28  ASP28       0.1805
     29  C        -61.2140   -2.7200   39.7150 C.2    28  ASP28       0.2597
     30  O        -60.6580   -3.3700   38.8200 O.2    28  ASP28      -0.2718
     31  CB       -62.3650   -0.5970   39.0870 C.3    28  ASP28       0.1424
     32  CG       -61.2400   -0.4170   38.0900 C.2    28  ASP28       0.3668
     33  OD1      -61.4520   -0.7370   36.8990 O.co2  28  ASP28      -0.2456
     34  OD2      -60.1390    0.0170   38.4960 O.co2  28  ASP28      -0.2456
     35  N        -60.6720   -2.5700   40.9240 N.am   29  LEU29      -0.1979
     36  CA       -59.3980   -3.2110   41.2180 C.3    29  LEU29       0.1596
     37  C        -59.5330   -4.7290   41.2200 C.2    29  LEU29       0.2287
     38  O        -58.5760   -5.4270   40.8730 O.2    29  LEU29      -0.2864
     39  CB       -58.8390   -2.6940   42.5450 C.3    29  LEU29       0.0297
     40  CG       -58.4070   -1.2150   42.5650 C.3    29  LEU29       0.0022
     41  CD1      -57.7210   -0.8610   43.8760 C.3    29  LEU29       0.0001
     42  CD2      -57.4910   -0.8480   41.3940 C.3    29  LEU29       0.0001
     43  N        -61.6880   -6.3210   39.1210 N.3    31  TRP31      -0.1227
     44  CA       -61.7060   -6.5660   37.6840 C.3    31  TRP31       0.1737
     45  C        -60.2960   -6.5090   37.1130 C.2    31  TRP31       0.2595
     46  O        -59.9220   -7.3380   36.2770 O.2    31  TRP31      -0.2718
     47  CB       -62.6300   -5.5440   37.0140 C.3    31  TRP31       0.0564
     48  CG       -62.3810   -5.2330   35.5590 C.ar   31  TRP31       0.0003
     49  CD1      -61.5490   -4.2710   35.0620 C.ar   31  TRP31       0.0946
     50  CD2      -63.0100   -5.8420   34.4180 C.ar   31  TRP31       0.0152
     51  NE1      -61.6070   -4.2550   33.6880 N.ar   31  TRP31      -0.2442
     52  CE2      -62.4930   -5.2100   33.2690 C.ar   31  TRP31       0.0810
     53  CE3      -63.9500   -6.8630   34.2580 C.ar   31  TRP31       0.0012
     54  CZ2      -62.8840   -5.5690   31.9790 C.ar   31  TRP31       0.0191
     55  CZ3      -64.3350   -7.2180   32.9750 C.ar   31  TRP31       0.0001
     56  CH2      -63.8030   -6.5740   31.8560 C.ar   31  TRP31       0.0015
     57  N        -59.4920   -5.5590   37.5900 N.am   32  PHE32      -0.1976
     58  CA       -58.1050   -5.4440   37.1500 C.3    32  PHE32       0.1639
     59  C        -57.3120   -6.7020   37.4940 C.2    32  PHE32       0.2290
     60  O        -56.6290   -7.2800   36.6380 O.2    32  PHE32      -0.2864
     61  CB       -57.4750   -4.2090   37.7960 C.3    32  PHE32       0.0560
     62  CG       -55.9830   -4.1140   37.6140 C.ar   32  PHE32      -0.0200
     63  CD1      -55.4450   -3.6230   36.4370 C.ar   32  PHE32      -0.0042
     64  CD2      -55.1240   -4.5040   38.6280 C.ar   32  PHE32      -0.0042
     65  CE1      -54.0740   -3.5270   36.2690 C.ar   32  PHE32      -0.0003
     66  CE2      -53.7540   -4.4130   38.4650 C.ar   32  PHE32      -0.0003
     67  CZ       -53.2280   -3.9180   37.2840 C.ar   32  PHE32      -0.0000
     68  N        -50.4440   -1.7790   31.9890 N.3    95  ILE95      -0.1245
     69  CA       -51.3110   -1.3590   33.0870 C.3    95  ILE95       0.1561
     70  C        -51.1280    0.1150   33.4370 C.2    95  ILE95       0.2260
     71  O        -51.6620    0.5750   34.4550 O.2    95  ILE95      -0.2867
     72  CB       -51.1150   -2.2460   34.3330 C.3    95  ILE95       0.0252
     73  CG1      -49.7090   -2.0890   34.9260 C.3    95  ILE95       0.0019
     74  CG2      -51.3460   -3.7120   33.9910 C.3    95  ILE95       0.0019
     75  CD1      -49.6160   -2.5940   36.3570 C.3    95  ILE95       0.0001
     76  N        -49.2170    4.0960   28.3690 N.3   101  TYR101     -0.1241
     77  CA       -50.3310    3.8680   27.4500 C.3   101  TYR101      0.1605
     78  C        -50.0600    4.5010   26.0930 C.2   101  TYR101      0.2264
     79  O        -50.2970    3.8870   25.0460 O.2   101  TYR101     -0.2867
     80  CB       -51.6320    4.4420   28.0180 C.3   101  TYR101      0.0534
     81  CG       -52.2150    3.7270   29.2130 C.ar  101  TYR101     -0.0201
     82  CD1      -52.2270    2.3360   29.3010 C.ar  101  TYR101     -0.0009
     83  CD2      -52.7730    4.4540   30.2550 C.ar  101  TYR101     -0.0009
     84  CE1      -52.7690    1.6980   30.4060 C.ar  101  TYR101      0.0417
     85  CE2      -53.3150    3.8340   31.3510 C.ar  101  TYR101      0.0417
     86  CZ       -53.3140    2.4630   31.4300 C.ar  101  TYR101      0.1957
     87  OH       -53.8650    1.8790   32.5420 O.3   101  TYR101     -0.2866
     88  N        -62.4650    0.4360   32.0320 N.3   114  THR114     -0.1218
     89  CA       -63.5010    0.7390   33.0110 C.3   114  THR114      0.1862
     90  C        -63.9340    2.1880   32.8170 C.2   114  THR114      0.2287
     91  O        -63.1330    3.1110   32.9970 O.2   114  THR114     -0.2866
     92  CB       -62.9950    0.5110   34.4370 C.3   114  THR114      0.1770
     93  OG1      -62.5370   -0.8410   34.5720 O.3   114  THR114     -0.2211
     94  CG2      -64.0940    0.7710   35.4530 C.3   114  THR114      0.0375
@<TRIPOS>BOND
     1    79    78    2
     2    78    77    1
     3    77    80    1
     4    77    76    1
     5    80    81    1
     6    81    82   ar
     7    81    83   ar
     8    82    84   ar
     9     1     2    1
    10    83    85   ar
    11    84    86   ar
    12     2     3    1
    13     2     5    1
    14    13    10    1
    15    85    86   ar
    16    86    87    1
    17     3     9   am
    18     3     4    2
    19     5     7    1
    20     5     6    1
    21     9    10    1
    22    56    54   ar
    23    56    55   ar
    24    54    52   ar
    25    68    69    1
    26    88    89    1
    27    12    11    2
    28    10    11    1
    29     6     8    1
    30    11    14   am
    31    90    91    2
    32    90    89    1
    33    55    53   ar
    34    89    92    1
    35    69    70    1
    36    69    72    1
    37    52    51   ar
    38    52    50   ar
    39    70    71    2
    40    51    49   ar
    41    14    15    1
    42    74    72    1
    43    16    15    1
    44    16    17    2
    45    53    50   ar
    46    72    73    1
    47    15    18    1
    48    50    48   ar
    49    92    93    1
    50    92    94    1
    51    73    75    1
    52    49    48   ar
    53    48    47    1
    54    65    63   ar
    55    65    67   ar
    56    46    45    2
    57    63    62   ar
    58    60    59    2
    59    33    32   ar
    60    47    44    1
    61    45    57   am
    62    45    44    1
    63    58    59    1
    64    58    57    1
    65    58    61    1
    66    67    66   ar
    67    62    61    1
    68    62    64   ar
    69    44    43    1
    70    32    34   ar
    71    32    31    1
    72    66    64   ar
    73    30    29    2
    74    31    28    1
    75    28    29    1
    76    28    27    1
    77    29    35   am
    78    24    25    1
    79    24    23    1
    80    25    26    1
    81    23    20    1
    82    38    37    2
    83    35    36    1
    84    20    21    1
    85    20    19    1
    86    36    37    1
    87    36    39    1
    88    42    40    1
    89    21    22    2
    90    39    40    1
    91    40    41    1
