@<TRIPOS>MOLECULE
tmp/5uioD01.pdb
 107 100 0 0 0
SMALL
GASTEIGER

@<TRIPOS>ATOM
      1  N        -55.3260    7.4650   41.7440 N.3    21  MET21      -0.1245
      2  CA       -56.5350    7.4360   40.9320 C.3    21  MET21       0.1570
      3  C        -57.6260    8.2320   41.6350 C.2    21  MET21       0.2261
      4  O        -57.9290    7.9470   42.8000 O.2    21  MET21      -0.2867
      5  CB       -57.0030    6.0080   40.7090 C.3    21  MET21       0.0387
      6  CG       -56.0170    5.1550   39.9150 C.3    21  MET21       0.0595
      7  SD       -56.4430    3.4090   39.9560 S.3    21  MET21      -0.1393
      8  CE       -56.0200    3.0080   41.6500 C.3    21  MET21       0.0692
      9  N        -60.6720   -2.5700   40.9240 N.3    29  LEU29      -0.1231
     10  CA       -59.3980   -3.2110   41.2180 C.3    29  LEU29       0.1693
     11  C        -59.5330   -4.7290   41.2200 C.2    29  LEU29       0.2591
     12  O        -58.5760   -5.4270   40.8730 O.2    29  LEU29      -0.2718
     13  CB       -58.8390   -2.6940   42.5450 C.3    29  LEU29       0.0284
     14  CG       -58.4070   -1.2150   42.5650 C.3    29  LEU29       0.0019
     15  CD1      -57.7210   -0.8610   43.8760 C.3    29  LEU29       0.0001
     16  CD2      -57.4910   -0.8480   41.3940 C.3    29  LEU29       0.0001
     17  N        -60.7170   -5.2580   41.5590 N.am   30  ALA30      -0.1980
     18  CA       -60.9460   -6.6950   41.4140 C.3    30  ALA30       0.1597
     19  C        -60.9830   -7.1000   39.9480 C.2    30  ALA30       0.2287
     20  O        -60.4040   -8.1250   39.5660 O.2    30  ALA30      -0.2864
     21  CB       -62.2510   -7.1020   42.0990 C.3    30  ALA30       0.0319
     22  N        -59.4920   -5.5590   37.5900 N.3    32  PHE32      -0.1227
     23  CA       -58.1050   -5.4440   37.1500 C.3    32  PHE32       0.1736
     24  C        -57.3120   -6.7020   37.4940 C.2    32  PHE32       0.2595
     25  O        -56.6290   -7.2800   36.6380 O.2    32  PHE32      -0.2718
     26  CB       -57.4750   -4.2090   37.7960 C.3    32  PHE32       0.0547
     27  CG       -55.9830   -4.1140   37.6140 C.ar   32  PHE32      -0.0202
     28  CD1      -55.4450   -3.6230   36.4370 C.ar   32  PHE32      -0.0042
     29  CD2      -55.1240   -4.5040   38.6280 C.ar   32  PHE32      -0.0042
     30  CE1      -54.0740   -3.5270   36.2690 C.ar   32  PHE32      -0.0003
     31  CE2      -53.7540   -4.4130   38.4650 C.ar   32  PHE32      -0.0003
     32  CZ       -53.2280   -3.9180   37.2840 C.ar   32  PHE32      -0.0000
     33  N        -57.3870   -7.1400   38.7500 N.am   33  LYS33      -0.1980
     34  CA       -56.6690   -8.3440   39.1640 C.3    33  LYS33       0.1596
     35  C        -57.1120   -9.5490   38.3450 C.2    33  LYS33       0.2287
     36  O        -56.2840  -10.3220   37.8450 O.2    33  LYS33      -0.2864
     37  CB       -56.9020   -8.5920   40.6550 C.3    33  LYS33       0.0298
     38  CG       -56.0330   -9.6820   41.2490 C.3    33  LYS33       0.0038
     39  CD       -56.3400   -9.9010   42.7230 C.3    33  LYS33       0.0206
     40  CE       -55.3030  -10.8050   43.3710 C.3    33  LYS33       0.1093
     41  NZ       -55.7110  -11.2650   44.7260 N.3    33  LYS33      -0.1314
     42  N        -46.3730    4.7330   38.0420 N.3    47  THR47      -0.1218
     43  CA       -47.3780    3.7400   38.4140 C.3    47  THR47       0.1862
     44  C        -46.8080    2.7430   39.4170 C.2    47  THR47       0.2287
     45  O        -47.4810    2.3670   40.3850 O.2    47  THR47      -0.2866
     46  CB       -47.8920    3.0220   37.1620 C.3    47  THR47       0.1770
     47  OG1      -48.5050    3.9710   36.2720 O.3    47  THR47      -0.2211
     48  CG2      -48.9110    1.9520   37.5240 C.3    47  THR47       0.0375
     49  N        -46.8250    4.3370   42.7910 N.3    50  SER50      -0.1202
     50  CA       -48.1470    4.5780   43.3640 C.3    50  SER50       0.2020
     51  C        -48.7450    3.3010   43.9440 C.2    50  SER50       0.2618
     52  O        -49.3870    3.3370   45.0000 O.2    50  SER50      -0.2717
     53  CB       -49.0800    5.1740   42.3100 C.3    50  SER50       0.2103
     54  OG       -49.3150    4.2510   41.2640 O.3    50  SER50      -0.2182
     55  N        -48.5490    2.1640   43.2740 N.am   51  ILE51      -0.1979
     56  CA       -48.9880    0.8930   43.8440 C.3    51  ILE51       0.1595
     57  C        -48.2140    0.6030   45.1260 C.2    51  ILE51       0.2287
     58  O        -48.7890    0.1670   46.1320 O.2    51  ILE51      -0.2864
     59  CB       -48.8400   -0.2410   42.8100 C.3    51  ILE51       0.0276
     60  CG1      -49.6790    0.0690   41.5660 C.3    51  ILE51       0.0022
     61  CG2      -49.2680   -1.5800   43.4130 C.3    51  ILE51       0.0022
     62  CD1      -49.4850   -0.8970   40.4120 C.3    51  ILE51       0.0001
     63  N        -45.8400   -1.6000   45.8830 N.3    53  ARG53      -0.1245
     64  CA       -45.3040   -2.9380   46.0940 C.3    53  ARG53       0.1563
     65  C        -45.6340   -3.7750   44.8650 C.2    53  ARG53       0.2260
     66  O        -46.4740   -3.3770   44.0580 O.2    53  ARG53      -0.2867
     67  CB       -45.8760   -3.5850   47.3720 C.3    53  ARG53       0.0307
     68  CG       -47.3760   -3.3950   47.6000 C.3    53  ARG53       0.0489
     69  CD       -48.2020   -4.4570   46.9020 C.3    53  ARG53       0.2205
     70  NE       -49.6320   -4.2100   47.0550 N.pl3  53  ARG53      -0.0865
     71  CZ       -50.5830   -4.8650   46.3940 C.cat  53  ARG53       0.5346
     72  NH1      -50.2610   -5.8170   45.5250 N.pl3  53  ARG53       0.1354
     73  NH2      -51.8590   -4.5660   46.5990 N.pl3  53  ARG53       0.1354
     74  N        -47.1970   -6.4530   42.3000 N.3    55  LEU55      -0.1231
     75  CA       -48.5260   -7.0280   42.1500 C.3    55  LEU55       0.1678
     76  C        -48.4210   -8.5490   42.1820 C.2    55  LEU55       0.2434
     77  O        -47.7120   -9.1250   41.3470 O.2    55  LEU55      -0.2733
     78  CB       -49.1660   -6.5740   40.8440 C.3    55  LEU55       0.0284
     79  CG       -49.6740   -5.1310   40.7770 C.3    55  LEU55       0.0019
     80  CD1      -50.0390   -4.7730   39.3460 C.3    55  LEU55       0.0001
     81  CD2      -50.8720   -4.9140   41.6980 C.3    55  LEU55       0.0001
     82  N        -49.1060   -9.2320   43.1020 N.am   56  PRO56      -0.2729
     83  CA       -48.9040  -10.6810   43.2480 C.3    56  PRO56       0.1401
     84  C        -49.4230  -11.4740   42.0590 C.2    56  PRO56       0.2269
     85  O        -50.3660  -11.0770   41.3730 O.2    56  PRO56      -0.2865
     86  CB       -49.6980  -11.0200   44.5170 C.3    56  PRO56       0.0296
     87  CG       -50.7700   -9.9790   44.5690 C.3    56  PRO56       0.0237
     88  CD       -50.1090   -8.7250   44.0590 C.3    56  PRO56       0.0939
     89  N        -48.2210  -12.0630   39.1960 N.3    58  ARG58      -0.1245
     90  CA       -47.9480  -11.4960   37.8850 C.3    58  ARG58       0.1563
     91  C        -46.4630  -11.1890   37.7790 C.2    58  ARG58       0.2260
     92  O        -45.8390  -10.7790   38.7620 O.2    58  ARG58      -0.2867
     93  CB       -48.7550  -10.2100   37.6600 C.3    58  ARG58       0.0307
     94  CG       -50.2090  -10.4370   37.2880 C.3    58  ARG58       0.0489
     95  CD       -51.1060   -9.3590   37.8740 C.3    58  ARG58       0.2205
     96  NE       -51.2550   -9.4910   39.3210 N.pl3  58  ARG58      -0.0865
     97  CZ       -52.0770   -8.7520   40.0590 C.cat  58  ARG58       0.5346
     98  NH1      -52.8270   -7.8170   39.4860 N.pl3  58  ARG58       0.1354
     99  NH2      -52.1460   -8.9390   41.3730 N.pl3  58  ARG58       0.1354
    100  N        -50.4440   -1.7790   31.9890 N.3    95  ILE95      -0.1245
    101  CA       -51.3110   -1.3590   33.0870 C.3    95  ILE95       0.1561
    102  C        -51.1280    0.1150   33.4370 C.2    95  ILE95       0.2260
    103  O        -51.6620    0.5750   34.4550 O.2    95  ILE95      -0.2867
    104  CB       -51.1150   -2.2460   34.3330 C.3    95  ILE95       0.0252
    105  CG1      -49.7090   -2.0890   34.9260 C.3    95  ILE95       0.0019
    106  CG2      -51.3460   -3.7120   33.9910 C.3    95  ILE95       0.0019
    107  CD1      -49.6160   -2.5940   36.3570 C.3    95  ILE95       0.0001
@<TRIPOS>BOND
     1   100   101    1
     2   101   102    1
     3   101   104    1
     4   102   103    2
     5   106   104    1
     6   104   105    1
     7   105   107    1
     8    30    28   ar
     9    30    32   ar
    10    47    46    1
    11    28    27   ar
    12    25    24    2
    13    23    24    1
    14    23    22    1
    15    23    26    1
    16    46    48    1
    17    46    43    1
    18    32    31   ar
    19    94    93    1
    20    94    95    1
    21    24    33   am
    22    27    26    1
    23    27    29   ar
    24    93    90    1
    25    91    90    1
    26    91    92    2
    27    36    35    2
    28    95    96    1
    29    90    89    1
    30    42    43    1
    31    35    34    1
    32    43    44    1
    33    31    29   ar
    34    33    34    1
    35    34    37    1
    36    96    97    2
    37    80    79    1
    38    44    45    2
    39    98    97    1
    40    20    19    2
    41     6     7    1
    42     6     5    1
    43    19    18    1
    44     7     8    1
    45    97    99    1
    46    62    60    1
    47    37    38    1
    48     5     2    1
    49    79    78    1
    50    79    81    1
    51    78    75    1
    52    12    11    2
    53     9    10    1
    54     2     3    1
    55     2     1    1
    56    10    11    1
    57    10    13    1
    58    11    17   am
    59    38    39    1
    60    54    53    1
    61    77    76    2
    62    85    84    2
    63    16    14    1
    64    18    17    1
    65    18    21    1
    66    60    59    1
    67     3     4    2
    68    84    83    1
    69    75    76    1
    70    75    74    1
    71    76    82   am
    72    53    50    1
    73    13    14    1
    74    14    15    1
    75    39    40    1
    76    49    50    1
    77    59    61    1
    78    59    56    1
    79    82    83    1
    80    82    88    1
    81    83    86    1
    82    55    56    1
    83    55    51   am
    84    50    51    1
    85    40    41    1
    86    56    57    1
    87    51    52    2
    88    66    65    2
    89    88    87    1
    90    86    87    1
    91    65    64    1
    92    57    58    2
    93    72    71    1
    94    63    64    1
    95    64    67    1
    96    71    73    1
    97    71    70    2
    98    69    70    1
    99    69    68    1
   100    67    68    1
