@<TRIPOS>MOLECULE
tmp/5uipA02.pdb
 150 144 0 0 0
SMALL
GASTEIGER

@<TRIPOS>ATOM
      1  N          0.5400   -3.1240  -36.4860 N.3    16  MET16      -0.1230
      2  CA        -0.4230   -3.0770  -37.5800 C.3    16  MET16       0.1702
      3  C         -1.5090   -4.1060  -37.2910 C.2    16  MET16       0.2592
      4  O         -1.4750   -4.8060  -36.2760 O.2    16  MET16      -0.2718
      5  CB         0.2540   -3.3250  -38.9300 C.3    16  MET16       0.0401
      6  CG         1.0480   -4.5940  -38.9940 C.3    16  MET16       0.0596
      7  SD         1.8660   -4.8480  -40.5820 S.3    16  MET16      -0.1393
      8  CE         0.4760   -5.3870  -41.5720 C.3    16  MET16       0.0692
      9  N         -2.4810   -4.1960  -38.2030 N.am   17  GLU17      -0.1979
     10  CA        -3.6180   -5.0860  -37.9870 C.3    17  GLU17       0.1602
     11  C         -3.1980   -6.5510  -38.0440 C.2    17  GLU17       0.2287
     12  O         -3.6720   -7.3700  -37.2480 O.2    17  GLU17      -0.2864
     13  CB        -4.7080   -4.7980  -39.0190 C.3    17  GLU17       0.0415
     14  CG        -6.0000   -5.5650  -38.8210 C.3    17  GLU17       0.1163
     15  CD        -6.8450   -5.0430  -37.7190 C.2    17  GLU17       0.3649
     16  OE1       -6.9660   -3.7990  -37.5820 O.co2  17  GLU17      -0.2457
     17  OE2       -7.4980   -5.9400  -37.0760 O.co2  17  GLU17      -0.2457
     18  N         -1.0890   -2.7050  -22.6420 N.3    43  GLY43      -0.1210
     19  CA        -2.4820   -2.5130  -22.9790 C.3    43  GLY43       0.1956
     20  C         -3.1610   -3.8140  -23.3690 C.2    43  GLY43       0.2612
     21  O         -2.5240   -4.8220  -23.6670 O.2    43  GLY43      -0.2717
     22  N         -4.4950   -3.7680  -23.3830 N.am   44  ARG44      -0.1965
     23  CA        -5.2800   -4.9830  -23.5740 C.3    44  ARG44       0.1729
     24  C         -4.9840   -5.6400  -24.9180 C.2    44  ARG44       0.2616
     25  O         -4.9530   -6.8720  -25.0210 O.2    44  ARG44      -0.2715
     26  CB        -6.7680   -4.6580  -23.4500 C.3    44  ARG44       0.0348
     27  CG        -7.6570   -5.8650  -23.1560 C.3    44  ARG44       0.0492
     28  CD        -8.6110   -6.1690  -24.2930 C.3    44  ARG44       0.2205
     29  NE        -9.2870   -4.9710  -24.7840 N.pl3  44  ARG44      -0.0865
     30  CZ        -9.9400   -4.9030  -25.9380 C.cat  44  ARG44       0.5346
     31  NH1      -10.0130   -5.9670  -26.7260 N.pl3  44  ARG44       0.1354
     32  NH2      -10.5180   -3.7690  -26.3050 N.pl3  44  ARG44       0.1354
     33  N         -4.7610   -4.8400  -25.9640 N.am   45  HIS45      -0.1959
     34  CA        -4.5090   -5.4210  -27.2790 C.3    45  HIS45       0.1787
     35  C         -3.1570   -6.1240  -27.3210 C.2    45  HIS45       0.2620
     36  O         -3.0230   -7.1890  -27.9370 O.2    45  HIS45      -0.2715
     37  CB        -4.6000   -4.3390  -28.3550 C.3    45  HIS45       0.0785
     38  CG        -5.9830   -3.7950  -28.5340 C.ar   45  HIS45       0.0821
     39  ND1       -7.0820   -4.6090  -28.7110 N.ar   45  HIS45      -0.2267
     40  CD2       -6.4490   -2.5240  -28.5520 C.ar   45  HIS45       0.1154
     41  CE1       -8.1640   -3.8620  -28.8340 C.ar   45  HIS45       0.1986
     42  NE2       -7.8080   -2.5940  -28.7420 N.ar   45  HIS45      -0.2212
     43  N         -2.1470   -5.5510  -26.6650 N.am   46  THR46      -0.1951
     44  CA        -0.8630   -6.2330  -26.5410 C.3    46  THR46       0.1897
     45  C         -1.0100   -7.5390  -25.7710 C.2    46  THR46       0.2313
     46  O         -0.4380   -8.5660  -26.1540 O.2    46  THR46      -0.2863
     47  CB         0.1470   -5.3110  -25.8550 C.3    46  THR46       0.1794
     48  OG1        0.4000   -4.1740  -26.6920 O.3    46  THR46      -0.2208
     49  CG2        1.4650   -6.0370  -25.5790 C.3    46  THR46       0.0378
     50  N         -3.7140   -2.9330  -18.7850 N.3    62  LEU62      -0.1231
     51  CA        -4.6040   -1.7810  -18.7970 C.3    62  LEU62       0.1693
     52  C         -5.8470   -2.1030  -19.6170 C.2    62  LEU62       0.2593
     53  O         -5.7410   -2.5970  -20.7440 O.2    62  LEU62      -0.2718
     54  CB        -3.8920   -0.5620  -19.3820 C.3    62  LEU62       0.0284
     55  CG        -3.1020    0.2950  -18.3960 C.3    62  LEU62       0.0019
     56  CD1       -2.0490    1.1070  -19.1280 C.3    62  LEU62       0.0001
     57  CD2       -4.0490    1.2070  -17.6380 C.3    62  LEU62       0.0001
     58  N         -7.0190   -1.8310  -19.0470 N.am   63  SER63      -0.1938
     59  CA        -8.2710   -1.9820  -19.7760 C.3    63  SER63       0.2055
     60  C         -9.3610   -1.1980  -19.0610 C.2    63  SER63       0.2644
     61  O         -9.3810   -1.1340  -17.8300 O.2    63  SER63      -0.2714
     62  CB        -8.6820   -3.4530  -19.9010 C.3    63  SER63       0.2130
     63  OG        -9.9640   -3.5690  -20.4980 O.3    63  SER63      -0.2179
     64  N        -10.2630   -0.6020  -19.8440 N.am   64  SER64      -0.1935
     65  CA       -11.4240    0.0600  -19.2650 C.3    64  SER64       0.2055
     66  C        -12.4370   -0.9400  -18.7280 C.2    64  SER64       0.2642
     67  O        -13.2690   -0.5720  -17.8920 O.2    64  SER64      -0.2714
     68  CB       -12.0950    0.9600  -20.3050 C.3    64  SER64       0.2130
     69  OG       -12.6930    0.1930  -21.3370 O.3    64  SER64      -0.2179
     70  N        -12.3810   -2.1880  -19.1800 N.am   65  GLN65      -0.1976
     71  CA       -13.3740   -3.1970  -18.8560 C.3    65  GLN65       0.1601
     72  C        -12.8390   -4.2040  -17.8450 C.2    65  GLN65       0.2287
     73  O        -11.6240   -4.3370  -17.6640 O.2    65  GLN65      -0.2864
     74  CB       -13.8080   -3.9360  -20.1280 C.3    65  GLN65       0.0394
     75  CG       -14.3920   -3.0230  -21.1930 C.3    65  GLN65       0.0908
     76  CD       -15.5290   -2.1700  -20.6680 C.2    65  GLN65       0.2608
     77  OE1      -16.5810   -2.6840  -20.2920 O.2    65  GLN65      -0.2717
     78  NE2      -15.3160   -0.8590  -20.6270 N.am   65  GLN65      -0.0878
     79  N         -7.4550   -0.0380  -14.4720 N.3    76  LYS76      -0.1231
     80  CA        -8.3320    0.8100  -15.2720 C.3    76  LYS76       0.1693
     81  C         -7.7670    2.2060  -15.5100 C.2    76  LYS76       0.2593
     82  O         -8.4680    3.0610  -16.0650 O.2    76  LYS76      -0.2718
     83  CB        -9.7070    0.9130  -14.6040 C.3    76  LYS76       0.0285
     84  CG       -10.4950   -0.3890  -14.6070 C.3    76  LYS76       0.0035
     85  CD       -11.8960   -0.1900  -14.0330 C.3    76  LYS76       0.0206
     86  CE       -12.8170   -1.3660  -14.3540 C.3    76  LYS76       0.1093
     87  NZ       -12.7610   -2.4610  -13.3400 N.3    76  LYS76      -0.1314
     88  N         -6.5230    2.4640  -15.1150 N.am   77  SER77      -0.1938
     89  CA        -5.9340    3.7790  -15.3170 C.3    77  SER77       0.2055
     90  C         -4.4220    3.6670  -15.2110 C.2    77  SER77       0.2642
     91  O         -3.8880    2.6900  -14.6790 O.2    77  SER77      -0.2714
     92  CB        -6.4570    4.7950  -14.2990 C.3    77  SER77       0.2130
     93  OG        -5.9420    4.5180  -13.0090 O.3    77  SER77      -0.2179
     94  N         -3.7400    4.6940  -15.7210 N.am   78  VAL78      -0.1977
     95  CA        -2.2840    4.7430  -15.6250 C.3    78  VAL78       0.1596
     96  C         -1.8470    4.7600  -14.1650 C.2    78  VAL78       0.2287
     97  O         -0.8900    4.0760  -13.7800 O.2    78  VAL78      -0.2864
     98  CB        -1.7460    5.9620  -16.3990 C.3    78  VAL78       0.0276
     99  CG1       -0.2730    6.2090  -16.0840 C.3    78  VAL78       0.0022
    100  CG2       -1.9420    5.7560  -17.8970 C.3    78  VAL78       0.0022
    101  N          0.8910   -1.1530  -25.9310 N.3    96  GLY96      -0.1210
    102  CA         1.2560   -0.7430  -27.2750 C.3    96  GLY96       0.1956
    103  C          1.3220    0.7610  -27.4580 C.2    96  GLY96       0.2612
    104  O          1.7000    1.4900  -26.5440 O.2    96  GLY96      -0.2717
    105  N          0.9330    1.2240  -28.6500 N.am   97  GLY97      -0.1942
    106  CA         1.0990    2.6310  -28.9830 C.3    97  GLY97       0.2014
    107  C          0.4000    3.5560  -28.0080 C.2    97  GLY97       0.2639
    108  O          0.9950    4.5100  -27.4990 O.2    97  GLY97      -0.2714
    109  N         -0.8760    3.2850  -27.7280 N.am   98  ARG98      -0.1963
    110  CA        -1.6200    4.1320  -26.8030 C.3    98  ARG98       0.1729
    111  C         -0.9630    4.1510  -25.4270 C.2    98  ARG98       0.2616
    112  O         -0.9210    5.1960  -24.7660 O.2    98  ARG98      -0.2715
    113  CB        -3.0670    3.6490  -26.7080 C.3    98  ARG98       0.0348
    114  CG        -3.9730    4.5450  -25.8860 C.3    98  ARG98       0.0492
    115  CD        -5.4280    4.1300  -26.0340 C.3    98  ARG98       0.2205
    116  NE        -6.1910    4.3540  -24.8110 N.pl3  98  ARG98      -0.0865
    117  CZ        -7.4360    3.9310  -24.6170 C.cat  98  ARG98       0.5346
    118  NH1       -8.0690    3.2560  -25.5680 N.pl3  98  ARG98       0.1354
    119  NH2       -8.0500    4.1810  -23.4690 N.pl3  98  ARG98       0.1354
    120  N         -0.4380    3.0080  -24.9810 N.am   99  VAL99      -0.1977
    121  CA         0.2080    2.9510  -23.6730 C.3    99  VAL99       0.1596
    122  C          1.5350    3.7060  -23.6930 C.2    99  VAL99       0.2287
    123  O          1.8480    4.4590  -22.7620 O.2    99  VAL99      -0.2864
    124  CB         0.3830    1.4830  -23.2380 C.3    99  VAL99       0.0276
    125  CG1        1.1580    1.3860  -21.9270 C.3    99  VAL99       0.0022
    126  CG2       -0.9810    0.8120  -23.0960 C.3    99  VAL99       0.0022
    127  N          1.1810    7.4980  -23.2350 N.3   102  GLN102     -0.1245
    128  CA         0.8680    7.9710  -21.8920 C.3   102  GLN102      0.1566
    129  C          2.0550    7.8660  -20.9430 C.2   102  GLN102      0.2260
    130  O          2.1730    8.6790  -20.0190 O.2   102  GLN102     -0.2867
    131  CB        -0.3130    7.1810  -21.3270 C.3   102  GLN102      0.0367
    132  CG        -1.6300    7.4330  -22.0390 C.3   102  GLN102      0.0905
    133  CD        -2.6870    6.4130  -21.6780 C.2   102  GLN102      0.2608
    134  OE1       -3.4320    6.5860  -20.7130 O.2   102  GLN102     -0.2717
    135  NE2       -2.7530    5.3370  -22.4480 N.am  102  GLN102     -0.0878
    136  N         -0.3180    0.7900  -38.4190 N.3   122  ASP122     -0.1225
    137  CA        -1.3590    1.6560  -37.8860 C.3   122  ASP122      0.1805
    138  C         -1.0210    2.1960  -36.5010 C.2   122  ASP122      0.2598
    139  O         -1.8270    2.9320  -35.9250 O.2   122  ASP122     -0.2718
    140  CB        -2.7020    0.9110  -37.8410 C.3   122  ASP122      0.1424
    141  CG        -2.6430   -0.3700  -37.0260 C.2   122  ASP122      0.3668
    142  OD1       -1.6930   -0.5430  -36.2320 O.co2 122  ASP122     -0.2456
    143  OD2       -3.5590   -1.2060  -37.1730 O.co2 122  ASP122     -0.2456
    144  N          0.1520    1.8620  -35.9660 N.am  123  THR123     -0.1953
    145  CA         0.5660    2.3040  -34.6450 C.3   123  THR123      0.1897
    146  C          2.0440    2.6610  -34.6870 C.2   123  THR123      0.2313
    147  O          2.8380    1.9580  -35.3190 O.2   123  THR123     -0.2863
    148  CB         0.3070    1.2170  -33.5920 C.3   123  THR123      0.1794
    149  OG1       -1.0840    0.8710  -33.5860 O.3   123  THR123     -0.2208
    150  CG2        0.7060    1.7000  -32.2150 C.3   123  THR123      0.0378
@<TRIPOS>BOND
     1     8     7    1
     2     7     6    1
     3    13    14    1
     4    13    10    1
     5     6     5    1
     6     5     2    1
     7    14    15    1
     8   136   137    1
     9     9    10    1
    10     9     3   am
    11    11    10    1
    12    11    12    2
    13   137   140    1
    14   137   138    1
    15   140   141    1
    16    15    16   ar
    17    15    17   ar
    18     2     3    1
    19     2     1    1
    20     3     4    2
    21   143   141   ar
    22   141   142   ar
    23   138   144   am
    24   138   139    2
    25   144   145    1
    26   147   146    2
    27   146   145    1
    28   145   148    1
    29   148   149    1
    30   148   150    1
    31   106   105    1
    32   106   107    1
    33    41    42   ar
    34    41    39   ar
    35    42    40   ar
    36    39    38   ar
    37   105   103   am
    38    40    38   ar
    39    38    37    1
    40    37    34    1
    41   107   109   am
    42   107   108    2
    43    36    35    2
    44   109   110    1
    45   103   102    1
    46   103   104    2
    47    35    34    1
    48    35    43   am
    49    34    33    1
    50   102   101    1
    51   110   113    1
    52   110   111    1
    53    31    30    1
    54   113   114    1
    55    48    47    1
    56    43    44    1
    57    44    47    1
    58    44    45    1
    59    32    30    1
    60    46    45    2
    61   115   114    1
    62   115   116    1
    63    33    24   am
    64    30    29    2
    65    47    49    1
    66   118   117    1
    67   111   120   am
    68   111   112    2
    69    25    24    2
    70   120   121    1
    71    24    23    1
    72   116   117    2
    73    29    28    1
    74   117   119    1
    75    28    27    1
    76   122   121    1
    77   122   123    2
    78   121   124    1
    79    21    20    2
    80    23    26    1
    81    23    22    1
    82    26    27    1
    83    22    20   am
    84    20    19    1
    85   124   126    1
    86   124   125    1
    87   127   128    1
    88    19    18    1
    89   135   133   am
    90   132   133    1
    91   132   131    1
    92   128   131    1
    93   128   129    1
    94   133   134    2
    95    69    68    1
    96    75    76    1
    97    75    74    1
    98   129   130    2
    99    53    52    2
   100    76    78   am
   101    76    77    2
   102    63    62    1
   103    68    65    1
   104    74    71    1
   105    62    59    1
   106    64    65    1
   107    64    60   am
   108    59    60    1
   109    59    58    1
   110    52    58   am
   111    52    51    1
   112    54    51    1
   113    54    55    1
   114    65    66    1
   115    70    71    1
   116    70    66   am
   117    56    55    1
   118    60    61    2
   119    71    72    1
   120    51    50    1
   121    66    67    2
   122    55    57    1
   123   100    98    1
   124    72    73    2
   125    98    99    1
   126    98    95    1
   127    82    81    2
   128    94    95    1
   129    94    90   am
   130    95    96    1
   131    81    80    1
   132    81    88   am
   133    89    90    1
   134    89    88    1
   135    89    92    1
   136    80    83    1
   137    80    79    1
   138    90    91    2
   139    84    83    1
   140    84    85    1
   141    86    85    1
   142    86    87    1
   143    92    93    1
   144    96    97    2
