@<TRIPOS>MOLECULE
tmp/5uiqD00.pdb
 105 98 0 0 0
SMALL
GASTEIGER

@<TRIPOS>ATOM
      1  N         35.0750   11.2550   32.9010 N.3    29  MET29      -0.1230
      2  CA        33.9840   11.0720   31.9340 C.3    29  MET29       0.1702
      3  C         33.2300   12.3910   31.7120 C.2    29  MET29       0.2592
      4  O         32.6660   12.5860   30.6420 O.2    29  MET29      -0.2718
      5  CB        32.9720   10.0390   32.4430 C.3    29  MET29       0.0401
      6  CG        33.4640    8.6090   32.4310 C.3    29  MET29       0.0596
      7  SD        32.1600    7.4810   32.9910 S.3    29  MET29      -0.1393
      8  CE        31.9690    7.9910   34.6570 C.3    29  MET29       0.0692
      9  N         33.1870   13.2390   32.7500 N.am   30  GLY30      -0.1957
     10  CA        32.5180   14.5340   32.7480 C.3    30  GLY30       0.1869
     11  C         32.7400   15.3400   34.0120 C.2    30  GLY30       0.2309
     12  O         32.3590   16.5120   34.0830 O.2    30  GLY30      -0.2863
     13  N         32.9260   13.7090   37.0770 N.3    35  VAL35      -0.1245
     14  CA        32.4460   12.3190   37.0240 C.3    35  VAL35       0.1561
     15  C         33.5980   11.4400   36.5390 C.2    35  VAL35       0.2260
     16  O         34.1380   11.6810   35.4640 O.2    35  VAL35      -0.2867
     17  CB        31.1670   12.1510   36.1430 C.3    35  VAL35       0.0252
     18  CG1       30.5390   10.7730   36.3310 C.3    35  VAL35       0.0019
     19  CG2       30.1390   13.2500   36.4240 C.3    35  VAL35       0.0019
     20  N         29.9990    5.1120   37.9110 N.3    46  ALA46      -0.1245
     21  CA        30.2480    6.5300   37.6960 C.3    46  ALA46       0.1562
     22  C         30.3550    7.1440   39.0950 C.2    46  ALA46       0.2260
     23  O         29.4540    6.9510   39.9180 O.2    46  ALA46      -0.2867
     24  CB        29.1010    7.1530   36.9200 C.3    46  ALA46       0.0290
     25  N         30.8370   10.6150   41.0370 N.3    48  LYS48      -0.1245
     26  CA        30.8150   12.0630   40.9700 C.3    48  LYS48       0.1561
     27  C         31.4170   12.5940   42.2630 C.2    48  LYS48       0.2260
     28  O         30.8150   12.4290   43.3240 O.2    48  LYS48      -0.2867
     29  CB        29.3730   12.5960   40.7460 C.3    48  LYS48       0.0271
     30  CG        29.3100   14.0700   40.3350 C.3    48  LYS48       0.0035
     31  CD        28.0280   14.7550   40.7770 C.3    48  LYS48       0.0206
     32  CE        26.9700   14.7620   39.7000 C.3    48  LYS48       0.1093
     33  NZ        25.7620   15.5190   40.1170 N.3    48  LYS48      -0.1314
     34  N         18.4950    7.7360   35.7830 N.3    72  VAL72      -0.1245
     35  CA        19.7710    7.1310   36.2020 C.3    72  VAL72       0.1561
     36  C         19.6130    6.6880   37.6780 C.2    72  VAL72       0.2260
     37  O         18.9630    7.3930   38.4540 O.2    72  VAL72      -0.2867
     38  CB        20.9410    8.1440   36.0400 C.3    72  VAL72       0.0252
     39  CG1       22.2690    7.5290   36.4780 C.3    72  VAL72       0.0019
     40  CG2       21.0310    8.6330   34.6040 C.3    72  VAL72       0.0019
     41  N         26.8490    6.1520   40.8050 N.3    86  TYR86      -0.1227
     42  CA        25.7190    5.7730   39.9510 C.3    86  TYR86       0.1736
     43  C         26.0600    4.5940   39.0670 C.2    86  TYR86       0.2595
     44  O         27.2280    4.2190   38.9510 O.2    86  TYR86      -0.2718
     45  CB        25.3040    6.9420   39.0200 C.3    86  TYR86       0.0548
     46  CG        25.0910    8.2640   39.7180 C.ar   86  TYR86      -0.0200
     47  CD1       26.1540    9.1360   39.9390 C.ar   86  TYR86      -0.0009
     48  CD2       23.8280    8.6560   40.1370 C.ar   86  TYR86      -0.0009
     49  CE1       25.9680   10.3470   40.5840 C.ar   86  TYR86       0.0417
     50  CE2       23.6260    9.8780   40.7590 C.ar   86  TYR86       0.0417
     51  CZ        24.7000   10.7170   40.9850 C.ar   86  TYR86       0.1957
     52  OH        24.5070   11.9240   41.6010 O.3    86  TYR86      -0.2866
     53  N         25.0320    4.0550   38.3840 N.am   87  VAL87      -0.1966
     54  CA        25.1550    2.9900   37.3960 C.3    87  VAL87       0.1727
     55  C         25.8740    3.6010   36.1560 C.2    87  VAL87       0.2616
     56  O         25.5500    4.7130   35.7430 O.2    87  VAL87      -0.2715
     57  CB        23.7460    2.4010   37.0500 C.3    87  VAL87       0.0290
     58  CG1       23.8100    1.4980   35.8170 C.3    87  VAL87       0.0023
     59  CG2       23.1550    1.6260   38.2300 C.3    87  VAL87       0.0023
     60  N         26.8690    2.8920   35.6030 N.am   88  TYR88      -0.1960
     61  CA        27.6060    3.3450   34.4270 C.3    88  TYR88       0.1771
     62  C         26.7040    3.3390   33.1740 C.2    88  TYR88       0.2619
     63  O         26.0290    2.3440   32.8970 O.2    88  TYR88      -0.2715
     64  CB        28.8530    2.4740   34.2160 C.3    88  TYR88       0.0574
     65  CG        29.6630    2.8110   32.9800 C.ar   88  TYR88      -0.0198
     66  CD1       30.1780    4.0900   32.7860 C.ar   88  TYR88      -0.0009
     67  CD2       29.9490    1.8400   32.0220 C.ar   88  TYR88      -0.0009
     68  CE1       30.9180    4.4040   31.6470 C.ar   88  TYR88       0.0417
     69  CE2       30.7000    2.1400   30.8890 C.ar   88  TYR88       0.0417
     70  CZ        31.1730    3.4270   30.7000 C.ar   88  TYR88       0.1957
     71  OH        31.9080    3.7380   29.5830 O.3    88  TYR88      -0.2866
     72  N         26.6740    4.4630   32.4450 N.am   89  MET89      -0.1977
     73  CA        25.9160    4.6090   31.2120 C.3    89  MET89       0.1605
     74  C         26.9510    4.5530   30.0740 C.2    89  MET89       0.2287
     75  O         27.6270    5.5420   29.7980 O.2    89  MET89      -0.2864
     76  CB        25.1020    5.9020   31.2050 C.3    89  MET89       0.0413
     77  CG        24.1270    6.0170   32.3860 C.3    89  MET89       0.0598
     78  SD        22.9030    4.6740   32.5360 S.3    89  MET89      -0.1393
     79  CE        21.8270    5.2240   31.3410 C.3    89  MET89       0.0692
     80  N         27.0640    7.1970   27.0200 N.3    92  GLY92      -0.1225
     81  CA        27.1570    8.5960   27.4170 C.3    92  GLY92       0.1811
     82  C         25.9030    9.4080   27.2230 C.2    92  GLY92       0.2280
     83  O         24.7900    8.8780   27.3030 O.2    92  GLY92      -0.2866
     84  N         21.2150   10.6430   29.6790 N.3   142  LEU142     -0.1245
     85  CA        22.2290    9.6040   29.4680 C.3   142  LEU142      0.1561
     86  C         21.6550    8.3800   28.7700 C.2   142  LEU142      0.2260
     87  O         20.4310    8.2160   28.7290 O.2   142  LEU142     -0.2867
     88  CB        22.9640    9.2470   30.7700 C.3   142  LEU142      0.0270
     89  CG        23.5230   10.4230   31.6080 C.3   142  LEU142      0.0019
     90  CD1       24.1890    9.9150   32.8040 C.3   142  LEU142      0.0001
     91  CD2       24.4970   11.2900   30.8220 C.3   142  LEU142      0.0001
     92  N         19.4590   12.3590   34.2310 N.3   152  SER152     -0.1202
     93  CA        20.4310   12.4930   35.3280 C.3   152  SER152      0.2020
     94  C         20.3890   13.9310   35.9270 C.2   152  SER152      0.2618
     95  O         19.6730   14.7730   35.3920 O.2   152  SER152     -0.2717
     96  CB        21.8330   12.1640   34.8280 C.3   152  SER152      0.2103
     97  OG        22.2440   13.0710   33.8220 O.3   152  SER152     -0.2182
     98  N         21.1570   14.1880   37.0300 N.am  153  ASP153     -0.1973
     99  CA        21.3450   15.4570   37.7650 C.3   153  ASP153      0.1709
    100  C         20.0620   15.9910   38.4440 C.2   153  ASP153      0.2293
    101  O         19.2720   16.7120   37.8210 O.2   153  ASP153     -0.2864
    102  CB        21.9990   16.5390   36.8760 C.3   153  ASP153      0.1436
    103  CG        22.8790   17.5450   37.6050 C.2   153  ASP153      0.3671
    104  OD1       22.6320   17.8000   38.8230 O.co2 153  ASP153     -0.2456
    105  OD2       23.8000   18.1010   36.9590 O.co2 153  ASP153     -0.2456
@<TRIPOS>BOND
     1    80    81    1
     2    82    83    2
     3    82    81    1
     4    87    86    2
     5    86    85    1
     6    85    84    1
     7    85    88    1
     8    71    70    1
     9    75    74    2
    10    74    73    1
    11     4     3    2
    12    70    69   ar
    13    70    68   ar
    14    88    89    1
    15    91    89    1
    16    69    67   ar
    17    76    73    1
    18    76    77    1
    19    73    72    1
    20    79    78    1
    21    89    90    1
    22    68    66   ar
    23     3     2    1
    24     3     9   am
    25     2     5    1
    26     2     1    1
    27    67    65   ar
    28    77    78    1
    29     6     5    1
    30     6     7    1
    31    72    62   am
    32    10     9    1
    33    10    11    1
    34    66    65   ar
    35    63    62    2
    36    65    64    1
    37     7     8    1
    38    62    61    1
    39    97    96    1
    40    11    12    2
    41    64    61    1
    42    92    93    1
    43    61    60    1
    44    40    38    1
    45    96    93    1
    46    93    94    1
    47    95    94    2
    48    16    15    2
    49    60    55   am
    50    56    55    2
    51    34    35    1
    52    58    57    1
    53    94    98   am
    54    38    35    1
    55    38    39    1
    56    17    18    1
    57    17    19    1
    58    17    14    1
    59    55    54    1
    60    35    36    1
    61    15    14    1
    62   102   103    1
    63   102    99    1
    64    24    21    1
    65   105   103   ar
    66    14    13    1
    67    98    99    1
    68    57    54    1
    69    57    59    1
    70    54    53    1
    71   103   104   ar
    72    36    37    2
    73    21    20    1
    74    21    22    1
    75    99   100    1
    76   101   100    2
    77    53    43   am
    78    44    43    2
    79    45    46    1
    80    45    42    1
    81    43    42    1
    82    22    23    2
    83    32    33    1
    84    32    31    1
    85    46    47   ar
    86    46    48   ar
    87    47    49   ar
    88    42    41    1
    89    48    50   ar
    90    30    29    1
    91    30    31    1
    92    49    51   ar
    93    29    26    1
    94    50    51   ar
    95    26    25    1
    96    26    27    1
    97    51    52    1
    98    27    28    2
