@<TRIPOS>MOLECULE
tmp/5uirB00.pdb
 158 148 0 0 0
SMALL
GASTEIGER

@<TRIPOS>ATOM
      1  N        -19.3590   44.4210   -9.8400 N.3    26  MET26      -0.1230
      2  CA       -19.2390   42.9630   -9.6670 C.3    26  MET26       0.1702
      3  C        -19.0290   42.2640  -11.0160 C.2    26  MET26       0.2593
      4  O        -18.2720   41.2940  -11.1030 O.2    26  MET26      -0.2718
      5  CB       -20.4980   42.3870   -9.0170 C.3    26  MET26       0.0401
      6  CG       -20.6840   42.7730   -7.5820 C.3    26  MET26       0.0596
      7  SD       -21.9680   41.7100   -6.8990 S.3    26  MET26      -0.1393
      8  CE       -23.3920   42.6370   -7.2770 C.3    26  MET26       0.0692
      9  N        -19.7450   42.7460  -12.0280 N.am   27  GLY27      -0.1942
     10  CA       -19.7000   42.2400  -13.3900 C.3    27  GLY27       0.2014
     11  C        -20.4500   43.1280  -14.3590 C.2    27  GLY27       0.2639
     12  O        -21.0240   44.1470  -13.9660 O.2    27  GLY27      -0.2714
     13  N        -20.4490   42.7360  -15.6390 N.am   28  GLU28      -0.1963
     14  CA       -21.1070   43.4680  -16.7230 C.3    28  GLU28       0.1733
     15  C        -21.6400   42.4910  -17.7760 C.2    28  GLU28       0.2617
     16  O        -21.0360   41.4420  -18.0170 O.2    28  GLU28      -0.2715
     17  CB       -20.1110   44.4470  -17.3570 C.3    28  GLU28       0.0429
     18  CG       -20.7480   45.5860  -18.1280 C.3    28  GLU28       0.1163
     19  CD       -19.7930   46.6920  -18.5300 C.2    28  GLU28       0.3649
     20  OE1      -18.6590   46.7270  -18.0010 O.co2  28  GLU28      -0.2457
     21  OE2      -20.1850   47.5380  -19.3670 O.co2  28  GLU28      -0.2457
     22  N        -22.7420   42.8750  -18.4130 N.am   29  GLY29      -0.1940
     23  CA       -23.4020   42.0930  -19.4500 C.3    29  GLY29       0.2014
     24  C        -24.8730   41.8860  -19.1650 C.2    29  GLY29       0.2639
     25  O        -25.3760   42.3250  -18.1220 O.2    29  GLY29      -0.2714
     26  N        -25.5550   41.2190  -20.0980 N.am   30  GLY30      -0.1954
     27  CA       -26.9820   40.9250  -20.0100 C.3    30  GLY30       0.1869
     28  C        -27.8470   42.1520  -19.7920 C.2    30  GLY30       0.2309
     29  O        -28.4930   42.2720  -18.7450 O.2    30  GLY30      -0.2863
     30  N        -23.5350   45.2120  -13.3800 N.3    34  VAL34      -0.1245
     31  CA       -23.8730   44.7710  -12.0140 C.3    34  VAL34       0.1561
     32  C        -22.9550   45.4110  -10.9470 C.2    34  VAL34       0.2260
     33  O        -21.7470   45.1760  -10.9640 O.2    34  VAL34      -0.2867
     34  CB       -23.8730   43.2150  -11.8950 C.3    34  VAL34       0.0252
     35  CG1      -24.5640   42.7630  -10.6190 C.3    34  VAL34       0.0019
     36  CG2      -24.5190   42.5540  -13.1080 C.3    34  VAL34       0.0019
     37  N        -27.6080   43.1180   -4.8430 N.3    43  ALA43      -0.1245
     38  CA       -27.1430   43.2510   -6.2220 C.3    43  ALA43       0.1562
     39  C        -28.0170   44.2610   -6.9530 C.2    43  ALA43       0.2260
     40  O        -29.2360   44.1040   -6.9820 O.2    43  ALA43      -0.2867
     41  CB       -27.1890   41.9060   -6.9350 C.3    43  ALA43       0.0290
     42  N        -28.7740   45.7320  -10.5900 N.3    45  LYS45      -0.1245
     43  CA       -28.6400   45.5490  -12.0310 C.3    45  LYS45       0.1561
     44  C        -29.1710   46.8130  -12.7040 C.2    45  LYS45       0.2260
     45  O        -30.3820   47.0530  -12.6850 O.2    45  LYS45      -0.2867
     46  CB       -29.4320   44.3040  -12.4770 C.3    45  LYS45       0.0271
     47  CG       -29.2480   43.9070  -13.9400 C.3    45  LYS45       0.0035
     48  CD       -30.2800   42.8630  -14.3430 C.3    45  LYS45       0.0206
     49  CE       -30.0950   42.3560  -15.7470 C.3    45  LYS45       0.1093
     50  NZ       -31.1880   41.4220  -16.1340 N.3    45  LYS45      -0.1314
     51  N        -32.6280   32.8140   -8.3320 N.3    72  VAL72      -0.1245
     52  CA       -32.2240   33.9680   -7.5130 C.3    72  VAL72       0.1561
     53  C        -33.4710   34.6660   -7.0640 C.2    72  VAL72       0.2260
     54  O        -34.4760   34.5980   -7.7780 O.2    72  VAL72      -0.2867
     55  CB       -31.2300   34.9570   -8.1850 C.3    72  VAL72       0.0252
     56  CG1      -30.0210   34.2150   -8.7580 C.3    72  VAL72       0.0019
     57  CG2      -31.9050   35.7980   -9.2640 C.3    72  VAL72       0.0019
     58  N        -31.5260   42.3590   -6.2030 N.3    86  TYR86      -0.1227
     59  CA       -31.5260   40.9230   -5.9360 C.3    86  TYR86       0.1736
     60  C        -30.7550   40.5900   -4.6800 C.2    86  TYR86       0.2595
     61  O        -29.9810   41.4160   -4.1830 O.2    86  TYR86      -0.2718
     62  CB       -30.8310   40.1950   -7.0990 C.3    86  TYR86       0.0548
     63  CG       -31.5270   40.3650   -8.4230 C.ar   86  TYR86      -0.0200
     64  CD1      -32.5400   39.4970   -8.8130 C.ar   86  TYR86      -0.0009
     65  CD2      -31.1510   41.3750   -9.3070 C.ar   86  TYR86      -0.0009
     66  CE1      -33.1760   39.6370  -10.0410 C.ar   86  TYR86       0.0417
     67  CE2      -31.7830   41.5280  -10.5390 C.ar   86  TYR86       0.0417
     68  CZ       -32.8090   40.6690  -10.8920 C.ar   86  TYR86       0.1957
     69  OH       -33.4390   40.8110  -12.0980 O.3    86  TYR86      -0.2866
     70  N        -30.9080   39.3360   -4.2140 N.am   87  VAL87      -0.1966
     71  CA       -30.1360   38.8130   -3.0950 C.3    87  VAL87       0.1727
     72  C        -28.7160   38.6700   -3.6560 C.2    87  VAL87       0.2616
     73  O        -28.5510   38.1960   -4.7840 O.2    87  VAL87      -0.2715
     74  CB       -30.7180   37.4820   -2.5370 C.3    87  VAL87       0.0290
     75  CG1      -29.7810   36.8370   -1.5150 C.3    87  VAL87       0.0023
     76  CG2      -32.0940   37.7060   -1.9150 C.3    87  VAL87       0.0023
     77  N        -27.7160   39.1780   -2.9200 N.am   88  TYR88      -0.1960
     78  CA       -26.3220   39.1310   -3.3330 C.3    88  TYR88       0.1771
     79  C        -25.7900   37.6810   -3.3170 C.2    88  TYR88       0.2619
     80  O        -25.9360   36.9690   -2.3170 O.2    88  TYR88      -0.2715
     81  CB       -25.4780   40.0660   -2.4410 C.3    88  TYR88       0.0574
     82  CG       -23.9730   39.9340   -2.5960 C.ar   88  TYR88      -0.0198
     83  CD1      -23.3090   40.4930   -3.6880 C.ar   88  TYR88      -0.0009
     84  CD2      -23.2030   39.3130   -1.6150 C.ar   88  TYR88      -0.0009
     85  CE1      -21.9210   40.4050   -3.8130 C.ar   88  TYR88       0.0417
     86  CE2      -21.8160   39.2390   -1.7210 C.ar   88  TYR88       0.0417
     87  CZ       -21.1780   39.7790   -2.8240 C.ar   88  TYR88       0.1957
     88  OH       -19.8030   39.6930   -2.9200 O.3    88  TYR88      -0.2866
     89  N        -25.2020   37.2630   -4.4430 N.am   89  MET89      -0.1977
     90  CA       -24.5750   35.9540   -4.6360 C.3    89  MET89       0.1605
     91  C        -23.0680   36.1300   -4.3810 C.2    89  MET89       0.2287
     92  O        -22.3510   36.6840   -5.2260 O.2    89  MET89      -0.2864
     93  CB       -24.8910   35.3700   -6.0200 C.3    89  MET89       0.0413
     94  CG       -26.3990   35.2270   -6.2740 C.3    89  MET89       0.0598
     95  SD       -27.3960   34.2320   -5.0850 S.3    89  MET89      -0.1393
     96  CE       -27.0020   32.7330   -5.5780 C.3    89  MET89       0.0692
     97  N        -20.6470   34.8220   -7.2400 N.3    92  GLY92      -0.1210
     98  CA       -20.9270   35.2530   -8.6030 C.3    92  GLY92       0.1956
     99  C        -21.5460   34.1970   -9.4820 C.2    92  GLY92       0.2612
    100  O        -22.3310   33.3640   -9.0120 O.2    92  GLY92      -0.2717
    101  N        -21.1670   34.2260  -10.7740 N.am   93  SER93      -0.1952
    102  CA       -21.6670   33.3090  -11.7910 C.3    93  SER93       0.1924
    103  C        -20.8030   32.0530  -11.9130 C.2    93  SER93       0.2314
    104  O        -19.6100   32.0960  -11.5940 O.2    93  SER93      -0.2863
    105  CB       -21.7180   34.0260  -13.1300 C.3    93  SER93       0.2116
    106  OG       -20.4090   34.3170  -13.5810 O.3    93  SER93      -0.2180
    107  N        -17.6900   32.6000  -14.1380 N.3    96  ASP96      -0.1239
    108  CA       -16.5480   33.2230  -13.5080 C.3    96  ASP96       0.1674
    109  C        -15.7640   32.2340  -12.7000 C.2    96  ASP96       0.2266
    110  O        -14.5320   32.2640  -12.7370 O.2    96  ASP96      -0.2867
    111  CB       -16.9680   34.4410  -12.6970 C.3    96  ASP96       0.1410
    112  CG       -17.4150   35.6160  -13.5520 C.2    96  ASP96       0.3668
    113  OD1      -17.2480   35.5470  -14.7960 O.co2  96  ASP96      -0.2456
    114  OD2      -17.9030   36.6240  -12.9760 O.co2  96  ASP96      -0.2456
    115  N        -27.3830   29.6980  -19.5580 N.3   137  LYS137     -0.1245
    116  CA       -25.9440   29.7800  -19.7810 C.3   137  LYS137      0.1561
    117  C        -25.2660   29.9290  -18.4390 C.2   137  LYS137      0.2260
    118  O        -25.8870   30.4500  -17.4990 O.2   137  LYS137     -0.2867
    119  CB       -25.5790   30.9630  -20.7000 C.3   137  LYS137      0.0271
    120  CG       -26.1390   32.3140  -20.2700 C.3   137  LYS137      0.0035
    121  CD       -25.5900   33.4040  -21.1300 C.3   137  LYS137      0.0206
    122  CE       -25.9630   34.7770  -20.6430 C.3   137  LYS137      0.1093
    123  NZ       -25.2580   35.8060  -21.4370 N.3   137  LYS137     -0.1314
    124  N        -23.1660   32.1060  -17.3160 N.3   139  ALA139     -0.1231
    125  CA       -23.1620   33.4760  -16.7480 C.3   139  ALA139      0.1694
    126  C        -24.4200   33.7660  -15.9370 C.2   139  ALA139      0.2592
    127  O        -24.3380   34.4710  -14.9280 O.2   139  ALA139     -0.2718
    128  CB       -23.0200   34.5200  -17.8340 C.3   139  ALA139      0.0304
    129  N        -25.5770   33.1820  -16.3590 N.am  140  ASN140     -0.1974
    130  CA       -26.8800   33.3250  -15.7080 C.3   140  ASN140      0.1688
    131  C        -27.1160   32.3350  -14.5370 C.2   140  ASN140      0.2292
    132  O        -28.0880   32.4910  -13.8130 O.2   140  ASN140     -0.2864
    133  CB       -27.9930   33.2690  -16.7420 C.3   140  ASN140      0.1181
    134  CG       -28.2000   34.5900  -17.4330 C.2   140  ASN140      0.2629
    135  OD1      -27.7300   35.6320  -16.9830 O.2   140  ASN140     -0.2716
    136  ND2      -28.9420   34.5930  -18.5200 N.am  140  ASN140     -0.0877
    137  N        -26.0600   31.5950  -11.0580 N.3   142  LEU142     -0.1245
    138  CA       -25.4090   32.2680   -9.9370 C.3   142  LEU142      0.1561
    139  C        -25.1370   31.3380   -8.7570 C.2   142  LEU142      0.2260
    140  O        -25.6920   30.2420   -8.6970 O.2   142  LEU142     -0.2867
    141  CB       -26.1850   33.5120   -9.5170 C.3   142  LEU142      0.0270
    142  CG       -26.4070   34.5860  -10.6030 C.3   142  LEU142      0.0019
    143  CD1      -27.0860   35.8050  -10.0120 C.3   142  LEU142      0.0001
    144  CD2      -25.1040   34.9800  -11.3310 C.3   142  LEU142      0.0001
    145  N        -30.7750   32.7630  -12.9850 N.3   152  SER152     -0.1202
    146  CA       -31.1200   34.1740  -13.0320 C.3   152  SER152      0.2020
    147  C        -31.4230   34.6340  -14.4640 C.2   152  SER152      0.2618
    148  O        -31.1860   33.8860  -15.4040 O.2   152  SER152     -0.2717
    149  CB       -29.9950   35.0000  -12.4070 C.3   152  SER152      0.2103
    150  OG       -28.8260   35.0290  -13.2110 O.3   152  SER152     -0.2182
    151  N        -31.9420   35.8690  -14.6140 N.am  153  ASP153     -0.1973
    152  CA       -32.3130   36.5600  -15.8620 C.3   153  ASP153      0.1709
    153  C        -33.5470   35.9590  -16.5460 C.2   153  ASP153      0.2293
    154  O        -33.4670   35.0690  -17.3850 O.2   153  ASP153     -0.2864
    155  CB       -31.1370   36.7120  -16.8420 C.3   153  ASP153      0.1436
    156  CG       -31.1250   38.0320  -17.5910 C.2   153  ASP153      0.3671
    157  OD1      -32.2220   38.5910  -17.8290 O.co2 153  ASP153     -0.2456
    158  OD2      -30.0160   38.5040  -17.9470 O.co2 153  ASP153     -0.2456
@<TRIPOS>BOND
     1   123   122    1
     2   121   122    1
     3   121   120    1
     4   119   120    1
     5   119   116    1
     6    26    27    1
     7    26    24   am
     8    27    28    1
     9    28    29    2
    10   116   115    1
    11   116   117    1
    12    23    24    1
    13    23    22    1
    14    21    19   ar
    15    24    25    2
    16    19    18    1
    17    19    20   ar
    18   136   134   am
    19   117   118    2
    20    22    15   am
    21    18    17    1
    22    16    15    2
    23   158   156   ar
    24   128   125    1
    25   157   156   ar
    26    15    14    1
    27   156   155    1
    28   134   135    2
    29   134   133    1
    30   154   153    2
    31    17    14    1
    32   124   125    1
    33   155   152    1
    34   125   126    1
    35   133   130    1
    36    14    13    1
    37   153   152    1
    38   129   126   am
    39   129   130    1
    40    50    49    1
    41   126   127    2
    42   152   151    1
    43    49    48    1
    44   130   131    1
    45    13    11   am
    46   148   147    2
    47   113   112   ar
    48   151   147   am
    49   131   132    2
    50   147   146    1
    51    11    12    2
    52    11    10    1
    53    48    47    1
    54   107   108    1
    55    47    46    1
    56   106   105    1
    57   112   114   ar
    58   112   111    1
    59   108   109    1
    60   108   111    1
    61    10     9    1
    62    30    31    1
    63   150   149    1
    64   105   102    1
    65    36    34    1
    66   146   145    1
    67   146   149    1
    68   110   109    2
    69    44    45    2
    70    44    43    1
    71    46    43    1
    72    69    68    1
    73    43    42    1
    74     9     3   am
    75    31    34    1
    76    31    32    1
    77   103   102    1
    78   103   104    2
    79    34    35    1
    80   102   101    1
    81   144   142    1
    82     4     3    2
    83   137   138    1
    84     3     2    1
    85    33    32    2
    86    68    67   ar
    87    68    66   ar
    88   101    99   am
    89   142   143    1
    90   142   141    1
    91    67    65   ar
    92    66    64   ar
    93   138   141    1
    94   138   139    1
    95     1     2    1
    96     2     5    1
    97    99   100    2
    98    99    98    1
    99    65    63   ar
   100    57    55    1
   101     5     6    1
   102    64    63   ar
   103    56    55    1
   104   139   140    2
   105    98    97    1
   106    63    62    1
   107    51    52    1
   108    55    52    1
   109    54    53    2
   110     6     7    1
   111    52    53    1
   112     8     7    1
   113    62    59    1
   114    40    39    2
   115    39    38    1
   116    41    38    1
   117    94    93    1
   118    94    95    1
   119    38    37    1
   120    58    59    1
   121    93    90    1
   122    59    60    1
   123    96    95    1
   124    92    91    2
   125    73    72    2
   126    60    70   am
   127    60    61    2
   128    90    89    1
   129    90    91    1
   130    89    79   am
   131    70    71    1
   132    85    83   ar
   133    85    87   ar
   134    83    82   ar
   135    72    71    1
   136    72    77   am
   137    78    79    1
   138    78    77    1
   139    78    81    1
   140    79    80    2
   141    71    74    1
   142    88    87    1
   143    87    86   ar
   144    82    81    1
   145    82    84   ar
   146    74    76    1
   147    74    75    1
   148    86    84   ar
