@<TRIPOS>MOLECULE
tmp/5uisB00.pdb
 158 148 0 0 0
SMALL
GASTEIGER

@<TRIPOS>ATOM
      1  N          5.5410  -16.1790   11.3470 N.3    28  MET28      -0.1230
      2  CA         6.7870  -15.9510   12.0870 C.3    28  MET28       0.1702
      3  C          7.4600  -17.2650   12.4820 C.2    28  MET28       0.2593
      4  O          8.6850  -17.3190   12.5710 O.2    28  MET28      -0.2718
      5  CB         6.5340  -15.0970   13.3430 C.3    28  MET28       0.0401
      6  CG         5.9990  -13.7030   13.0470 C.3    28  MET28       0.0596
      7  SD         6.1030  -12.5890   14.4640 S.3    28  MET28      -0.1393
      8  CE         4.8070  -13.0300   15.2900 C.3    28  MET28       0.0692
      9  N          6.6480  -18.2960   12.7300 N.am   29  GLY29      -0.1942
     10  CA         7.0930  -19.6290   13.1190 C.3    29  GLY29       0.2014
     11  C          5.9620  -20.5520   13.5230 C.2    29  GLY29       0.2639
     12  O          4.7930  -20.1650   13.4650 O.2    29  GLY29      -0.2714
     13  N          6.3110  -21.8040   13.8980 N.am   30  GLU30      -0.1963
     14  CA         5.3880  -22.8560   14.3470 C.3    30  GLU30       0.1733
     15  C          6.0150  -23.6940   15.4700 C.2    30  GLU30       0.2617
     16  O          7.2370  -23.8840   15.4940 O.2    30  GLU30      -0.2715
     17  CB         5.0170  -23.8190   13.2070 C.3    30  GLU30       0.0429
     18  CG         4.7660  -23.2290   11.8400 C.3    30  GLU30       0.1163
     19  CD         4.4540  -24.2510   10.7610 C.2    30  GLU30       0.3649
     20  OE1        4.7910  -23.9910    9.5820 O.co2  30  GLU30      -0.2457
     21  OE2        3.8380  -25.2950   11.0830 O.co2  30  GLU30      -0.2457
     22  N          5.1540  -24.2530   16.3300 N.am   31  GLY31      -0.1940
     23  CA         5.5280  -25.1130   17.4450 C.3    31  GLY31       0.2014
     24  C          4.5930  -26.3020   17.5830 C.2    31  GLY31       0.2639
     25  O          4.6730  -27.2480   16.7960 O.2    31  GLY31      -0.2714
     26  N          3.7000  -26.2900   18.5730 N.am   32  GLY32      -0.1954
     27  CA         3.4840  -25.2250   19.5500 C.3    32  GLY32       0.1869
     28  C          2.4760  -25.6160   20.6270 C.2    32  GLY32       0.2309
     29  O          2.7240  -25.3470   21.8050 O.2    32  GLY32      -0.2863
     30  N          2.5650  -18.9580   14.7160 N.3    36  VAL36      -0.1245
     31  CA         2.7950  -17.5980   15.2300 C.3    36  VAL36       0.1561
     32  C          2.7400  -16.6230   14.0460 C.2    36  VAL36       0.2260
     33  O          3.4920  -16.7850   13.0850 O.2    36  VAL36      -0.2867
     34  CB         4.1310  -17.4860   16.0200 C.3    36  VAL36       0.0252
     35  CG1        4.2250  -16.1550   16.7620 C.3    36  VAL36       0.0019
     36  CG2        4.2890  -18.6460   16.9940 C.3    36  VAL36       0.0019
     37  N          2.2960  -10.2500   18.1560 N.3    47  ALA47      -0.1245
     38  CA         2.4720  -11.6420   17.7770 C.3    47  ALA47       0.1562
     39  C          1.1650  -12.3480   18.1340 C.2    47  ALA47       0.2260
     40  O          0.6520  -12.1800   19.2390 O.2    47  ALA47      -0.2867
     41  CB         3.6380  -12.2550   18.5260 C.3    47  ALA47       0.0290
     42  N         -0.5280  -16.0580   18.2910 N.3    49  LYS49      -0.1245
     43  CA        -0.3990  -17.5090   18.2070 C.3    49  LYS49       0.1561
     44  C         -1.7940  -18.1220   18.0750 C.2    49  LYS49       0.2260
     45  O         -2.6130  -17.9950   18.9860 O.2    49  LYS49      -0.2867
     46  CB         0.3440  -18.0970   19.4150 C.3    49  LYS49       0.0271
     47  CG         0.7510  -19.5480   19.1790 C.3    49  LYS49       0.0035
     48  CD         1.5560  -20.1360   20.3070 C.3    49  LYS49       0.0206
     49  CE         2.0980  -21.4950   19.8980 C.3    49  LYS49       0.1093
     50  NZ         2.9160  -22.1120   20.9700 N.3    49  LYS49      -0.1314
     51  N          7.7800  -13.1840   28.3100 N.3    75  VAL75      -0.1245
     52  CA         6.9940  -12.5080   27.2630 C.3    75  VAL75       0.1561
     53  C          5.6820  -11.9860   27.8610 C.2    75  VAL75       0.2260
     54  O          5.1290  -12.6220   28.7540 O.2    75  VAL75      -0.2867
     55  CB         6.7310  -13.3420   25.9800 C.3    75  VAL75       0.0252
     56  CG1        8.0190  -13.6280   25.2250 C.3    75  VAL75       0.0019
     57  CG2        5.9690  -14.6290   26.2880 C.3    75  VAL75       0.0019
     58  N          0.5480  -11.3880   21.9600 N.3    88  TYR88      -0.1227
     59  CA         1.7270  -11.0030   22.7410 C.3    88  TYR88       0.1736
     60  C          2.4410   -9.7740   22.2190 C.2    88  TYR88       0.2595
     61  O          2.2790   -9.4130   21.0560 O.2    88  TYR88      -0.2718
     62  CB         2.7620  -12.1400   22.7080 C.3    88  TYR88       0.0548
     63  CG         2.2700  -13.4700   23.2110 C.ar   88  TYR88      -0.0200
     64  CD1        1.6540  -14.3760   22.3520 C.ar   88  TYR88      -0.0009
     65  CD2        2.4660  -13.8500   24.5330 C.ar   88  TYR88      -0.0009
     66  CE1        1.2410  -15.6240   22.7980 C.ar   88  TYR88       0.0417
     67  CE2        2.0440  -15.0930   24.9960 C.ar   88  TYR88       0.0417
     68  CZ         1.4280  -15.9720   24.1230 C.ar   88  TYR88       0.1957
     69  OH         1.0230  -17.2030   24.5560 O.3    88  TYR88      -0.2866
     70  N          3.3320   -9.1970   23.0570 N.am   89  VAL89      -0.1966
     71  CA         4.2330   -8.1050   22.6740 C.3    89  VAL89       0.1727
     72  C          5.2220   -8.7210   21.6510 C.2    89  VAL89       0.2616
     73  O          5.7210   -9.8430   21.8400 O.2    89  VAL89      -0.2715
     74  CB         4.9500   -7.4990   23.9060 C.3    89  VAL89       0.0290
     75  CG1        6.0580   -6.5310   23.5050 C.3    89  VAL89       0.0023
     76  CG2        3.9570   -6.8140   24.8380 C.3    89  VAL89       0.0023
     77  N          5.4130   -8.0200   20.5330 N.am   90  TYR90      -0.1960
     78  CA         6.2980   -8.4300   19.4440 C.3    90  TYR90       0.1771
     79  C          7.8000   -8.4720   19.8470 C.2    90  TYR90       0.2619
     80  O          8.3100   -7.5310   20.4500 O.2    90  TYR90      -0.2715
     81  CB         6.0740   -7.5070   18.2380 C.3    90  TYR90       0.0574
     82  CG         6.9500   -7.8210   17.0470 C.ar   90  TYR90      -0.0198
     83  CD1        6.8080   -9.0170   16.3490 C.ar   90  TYR90      -0.0009
     84  CD2        7.8750   -6.8940   16.5710 C.ar   90  TYR90      -0.0009
     85  CE1        7.6060   -9.3050   15.2390 C.ar   90  TYR90       0.0417
     86  CE2        8.6590   -7.1620   15.4490 C.ar   90  TYR90       0.0417
     87  CZ         8.5290   -8.3740   14.7950 C.ar   90  TYR90       0.1957
     88  OH         9.2960   -8.6390   13.6900 O.3    90  TYR90      -0.2866
     89  N          8.4870   -9.5730   19.4950 N.am   91  MET91      -0.1977
     90  CA         9.9150   -9.8410   19.7320 C.3    91  MET91       0.1605
     91  C         10.6210   -9.7850   18.3740 C.2    91  MET91       0.2287
     92  O         10.5650  -10.7490   17.5910 O.2    91  MET91      -0.2864
     93  CB        10.1200  -11.2070   20.4080 C.3    91  MET91       0.0413
     94  CG         9.4470  -11.3170   21.7580 C.3    91  MET91       0.0598
     95  SD        10.1670  -10.1880   22.9780 S.3    91  MET91      -0.1393
     96  CE         8.8020   -9.1800   23.3450 C.3    91  MET91       0.0692
     97  N         13.3990  -12.5610   17.3020 N.3    94  GLY94      -0.1210
     98  CA        12.9350  -13.9430   17.3280 C.3    94  GLY94       0.1956
     99  C         13.4630  -14.7780   18.4630 C.2    94  GLY94       0.2612
    100  O         13.5970  -14.2800   19.5760 O.2    94  GLY94      -0.2717
    101  N         13.7790  -16.0460   18.1860 N.am   95  SER95      -0.1952
    102  CA        14.2600  -16.9650   19.2140 C.3    95  SER95       0.1924
    103  C         15.7830  -17.0630   19.2890 C.2    95  SER95       0.2314
    104  O         16.4780  -16.7730   18.3130 O.2    95  SER95      -0.2863
    105  CB        13.6200  -18.3440   19.0560 C.3    95  SER95       0.2116
    106  OG        14.2300  -19.0990   18.0290 O.3    95  SER95      -0.2180
    107  N         17.3080  -19.5300   16.6830 N.3    98  ASP98      -0.1239
    108  CA        17.5070  -18.9540   15.3680 C.3    98  ASP98       0.1674
    109  C         18.6800  -17.9970   15.3190 C.2    98  ASP98       0.2266
    110  O         19.3450  -17.9150   14.2890 O.2    98  ASP98      -0.2867
    111  CB        16.2190  -18.2840   14.8850 C.3    98  ASP98       0.1410
    112  CG        15.0300  -19.2050   14.7490 C.2    98  ASP98       0.3668
    113  OD1       15.2340  -20.4300   14.6530 O.co2  98  ASP98      -0.2456
    114  OD2       13.9040  -18.6990   14.6540 O.co2  98  ASP98      -0.2456
    115  N         13.8920  -24.4410   26.5730 N.3   139  LYS139     -0.1245
    116  CA        14.6980  -24.6710   25.3720 C.3   139  LYS139      0.1561
    117  C         14.9690  -23.3370   24.7000 C.2   139  LYS139      0.2260
    118  O         14.2450  -22.3740   24.9670 O.2   139  LYS139     -0.2867
    119  CB        14.0330  -25.6840   24.4180 C.3   139  LYS139      0.0271
    120  CG        12.6030  -25.3870   23.9970 C.3   139  LYS139      0.0035
    121  CD        12.1770  -26.4300   23.0210 C.3   139  LYS139      0.0206
    122  CE        10.8040  -26.1960   22.4740 C.3   139  LYS139      0.1093
    123  NZ        10.4260  -27.2960   21.5480 N.3   139  LYS139     -0.1314
    124  N         14.4340  -22.3900   21.6690 N.3   141  ALA141     -0.1231
    125  CA        13.3240  -21.9880   20.7810 C.3   141  ALA141      0.1694
    126  C         12.2650  -21.1930   21.5710 C.2   141  ALA141      0.2592
    127  O         11.5950  -20.3440   20.9880 O.2   141  ALA141     -0.2718
    128  CB        12.6860  -23.2130   20.1290 C.3   141  ALA141      0.0304
    129  N         12.1560  -21.4380   22.9020 N.am  142  ASN142     -0.1974
    130  CA        11.2260  -20.7630   23.8250 C.3   142  ASN142      0.1688
    131  C         11.8280  -19.5490   24.5350 C.2   142  ASN142      0.2292
    132  O         11.1470  -18.9110   25.3430 O.2   142  ASN142     -0.2864
    133  CB        10.6250  -21.7530   24.8350 C.3   142  ASN142      0.1181
    134  CG         9.7000  -22.7660   24.2050 C.2   142  ASN142      0.2629
    135  OD1        9.2750  -22.6480   23.0440 O.2   142  ASN142     -0.2716
    136  ND2        9.3920  -23.8030   24.9460 N.am  142  ASN142     -0.0877
    137  N         12.8780  -15.9790   23.7430 N.3   144  LEU144     -0.1245
    138  CA        12.7490  -14.9550   22.7080 C.3   144  LEU144      0.1561
    139  C         13.5950  -13.7310   22.9910 C.2   144  LEU144      0.2260
    140  O         13.9920  -13.4980   24.1350 O.2   144  LEU144     -0.2867
    141  CB        11.2800  -14.5900   22.4320 C.3   144  LEU144      0.0270
    142  CG        10.3170  -15.7670   22.2080 C.3   144  LEU144      0.0019
    143  CD1        8.9110  -15.2780   22.1240 C.3   144  LEU144      0.0001
    144  CD2       10.6830  -16.6030   20.9670 C.3   144  LEU144      0.0001
    145  N          9.1090  -17.7990   26.9610 N.3   154  SER154     -0.1202
    146  CA         7.7890  -17.9930   26.3570 C.3   154  SER154      0.2020
    147  C          7.3300  -19.4470   26.5080 C.2   154  SER154      0.2618
    148  O          8.0910  -20.2750   27.0000 O.2   154  SER154     -0.2717
    149  CB         7.8410  -17.6000   24.8780 C.3   154  SER154      0.2103
    150  OG         8.7020  -18.4360   24.1250 O.3   154  SER154     -0.2182
    151  N          6.0970  -19.7470   26.0430 N.am  155  ASP155     -0.1973
    152  CA         5.4170  -21.0510   26.0270 C.3   155  ASP155      0.1709
    153  C          5.2120  -21.6300   27.4320 C.2   155  ASP155      0.2293
    154  O          6.0260  -22.4130   27.9280 O.2   155  ASP155     -0.2864
    155  CB         6.1000  -22.0550   25.0760 C.3   155  ASP155      0.1436
    156  CG         5.6530  -21.9500   23.6330 C.2   155  ASP155      0.3671
    157  OD1        5.6150  -20.8160   23.1000 O.co2 155  ASP155     -0.2456
    158  OD2        5.3890  -23.0020   23.0200 O.co2 155  ASP155     -0.2456
@<TRIPOS>BOND
     1    20    19   ar
     2    19    21   ar
     3    19    18    1
     4     1     2    1
     5    18    17    1
     6     2     3    1
     7     2     5    1
     8     3     4    2
     9     3     9   am
    10     9    10    1
    11     6     5    1
    12     6     7    1
    13    33    32    2
    14    10    11    1
    15    17    14    1
    16    12    11    2
    17    11    13   am
    18    88    87    1
    19    13    14    1
    20    32    31    1
    21   110   109    2
    22    14    15    1
    23     7     8    1
    24   113   112   ar
    25   114   112   ar
    26    30    31    1
    27   112   111    1
    28    87    85   ar
    29    87    86   ar
    30   111   108    1
    31    31    34    1
    32    85    83   ar
    33   109   108    1
    34   108   107    1
    35    86    84   ar
    36    15    16    2
    37    15    22   am
    38    34    35    1
    39    34    36    1
    40    22    23    1
    41    83    82   ar
    42    84    82   ar
    43    25    24    2
    44    82    81    1
    45    97    98    1
    46    98    99    1
    47    23    24    1
    48    24    26   am
    49    92    91    2
    50    38    39    1
    51    38    37    1
    52    38    41    1
    53   106   105    1
    54    44    43    1
    55    44    45    2
    56    39    40    2
    57   101    99   am
    58   101   102    1
    59    43    42    1
    60    43    46    1
    61    81    78    1
    62   104   103    2
    63    91    90    1
    64    99   100    2
    65    26    27    1
    66   105   102    1
    67    47    46    1
    68    47    48    1
    69   102   103    1
    70    78    79    1
    71    78    77    1
    72    89    90    1
    73    89    79   am
    74    27    28    1
    75    90    93    1
    76    79    80    2
    77    49    48    1
    78    49    50    1
    79   128   125    1
    80    93    94    1
    81    77    72   am
    82    28    29    2
    83   125   126    1
    84   125   124    1
    85   144   142    1
    86   127   126    2
    87    61    60    2
    88   123   122    1
    89   126   129   am
    90    72    73    2
    91    72    71    1
    92    94    95    1
    93    58    59    1
    94   143   142    1
    95   142   141    1
    96    60    59    1
    97    60    70   am
    98    64    66   ar
    99    64    63   ar
   100   141   138    1
   101   122   121    1
   102    71    70    1
   103    71    74    1
   104    62    59    1
   105    62    63    1
   106   138   139    1
   107   138   137    1
   108    66    68   ar
   109   129   130    1
   110    95    96    1
   111   139   140    2
   112   158   156   ar
   113   121   120    1
   114   135   134    2
   115   157   156   ar
   116    63    65   ar
   117    75    74    1
   118   156   155    1
   119   130   131    1
   120   130   133    1
   121    74    76    1
   122   120   119    1
   123    68    69    1
   124    68    67   ar
   125   150   149    1
   126   134   133    1
   127   134   136   am
   128   119   116    1
   129    65    67   ar
   130   131   132    2
   131   117   118    2
   132   117   116    1
   133   149   146    1
   134   155   152    1
   135    56    55    1
   136   116   115    1
   137    55    57    1
   138    55    52    1
   139   152   151    1
   140   152   153    1
   141   151   147   am
   142   146   147    1
   143   146   145    1
   144   147   148    2
   145    52    53    1
   146    52    51    1
   147   153   154    2
   148    53    54    2
