@<TRIPOS>MOLECULE
tmp/5uitB00.pdb
 145 136 0 0 0
SMALL
GASTEIGER

@<TRIPOS>ATOM
      1  N         -4.2770  -11.6210  -10.9470 N.3    29  MET29      -0.1230
      2  CA        -3.9860  -13.0290  -10.6600 C.3    29  MET29       0.1702
      3  C         -4.0860  -13.9080  -11.9250 C.2    29  MET29       0.2593
      4  O         -3.5370  -15.0150  -11.9680 O.2    29  MET29      -0.2718
      5  CB        -4.9880  -13.5830   -9.6290 C.3    29  MET29       0.0401
      6  CG        -4.8610  -12.9470   -8.2750 C.3    29  MET29       0.0596
      7  SD        -5.7890  -13.9540   -7.0710 S.3    29  MET29      -0.1393
      8  CE        -7.4490  -13.4200   -7.4320 C.3    29  MET29       0.0692
      9  N         -4.8660  -13.4460  -12.8840 N.am   30  GLY30      -0.1942
     10  CA        -5.0550  -14.1530  -14.1450 C.3    30  GLY30       0.2014
     11  C         -6.0370  -13.3990  -15.0060 C.2    30  GLY30       0.2639
     12  O         -6.4610  -12.2890  -14.6410 O.2    30  GLY30      -0.2714
     13  N         -6.3990  -13.9760  -16.1610 N.am   31  GLU31      -0.1963
     14  CA        -7.3600  -13.2980  -17.0350 C.3    31  GLU31       0.1733
     15  C         -7.9420  -14.2770  -18.0380 C.2    31  GLU31       0.2616
     16  O         -7.3950  -15.3620  -18.2200 O.2    31  GLU31      -0.2715
     17  CB        -6.7410  -12.0890  -17.7700 C.3    31  GLU31       0.0429
     18  CG        -5.4950  -12.3990  -18.5660 C.3    31  GLU31       0.1163
     19  CD        -4.8600  -11.1770  -19.2110 C.2    31  GLU31       0.3649
     20  OE1       -3.6750  -10.9050  -18.9090 O.co2  31  GLU31      -0.2457
     21  OE2       -5.5640  -10.4490  -19.9500 O.co2  31  GLU31      -0.2457
     22  N         -9.0660  -13.9020  -18.6320 N.am   32  GLY32      -0.1955
     23  CA        -9.7450  -14.6970  -19.6530 C.3    32  GLY32       0.1869
     24  C        -10.2210  -13.8450  -20.8190 C.2    32  GLY32       0.2309
     25  O         -9.9320  -12.6360  -20.8950 O.2    32  GLY32      -0.2863
     26  N         -8.8220  -10.8980  -13.6840 N.3    37  VAL37      -0.1245
     27  CA        -9.0320  -11.2990  -12.2980 C.3    37  VAL37       0.1561
     28  C         -8.0200  -10.6170  -11.3500 C.2    37  VAL37       0.2260
     29  O         -6.8140  -10.8230  -11.4690 O.2    37  VAL37      -0.2867
     30  CB        -8.9240  -12.8280  -12.1300 C.3    37  VAL37       0.0252
     31  CG1       -9.4350  -13.2320  -10.7430 C.3    37  VAL37       0.0019
     32  CG2       -9.6850  -13.5510  -13.2460 C.3    37  VAL37       0.0019
     33  N        -11.5190  -12.5500   -4.9200 N.3    48  ALA48      -0.1245
     34  CA       -11.0290  -12.3570   -6.2780 C.3    48  ALA48       0.1562
     35  C        -12.0670  -11.4950   -6.9870 C.2    48  ALA48       0.2260
     36  O        -13.2810  -11.7250   -6.8540 O.2    48  ALA48      -0.2867
     37  CB       -10.9120  -13.6780   -6.9910 C.3    48  ALA48       0.0290
     38  N        -13.3920  -10.1430  -10.5290 N.3    50  LYS50      -0.1245
     39  CA       -13.2860  -10.2270  -11.9660 C.3    50  LYS50       0.1561
     40  C        -14.0030   -9.0130  -12.5450 C.2    50  LYS50       0.2260
     41  O        -15.2220   -8.8640  -12.4020 O.2    50  LYS50      -0.2867
     42  CB       -13.9220  -11.5210  -12.5120 C.3    50  LYS50       0.0271
     43  CG       -13.9660  -11.5210  -14.0350 C.3    50  LYS50       0.0035
     44  CD       -13.8360  -12.9010  -14.6140 C.3    50  LYS50       0.0206
     45  CE       -15.1520  -13.6090  -14.7430 C.3    50  LYS50       0.1093
     46  NZ       -15.0930  -14.6320  -15.8290 N.3    50  LYS50      -0.1314
     47  N        -17.0330  -22.8380   -8.0740 N.3    78  VAL78      -0.1245
     48  CA       -16.5790  -21.6160   -7.3930 C.3    78  VAL78       0.1561
     49  C        -17.8050  -20.8640   -6.8680 C.2    78  VAL78       0.2260
     50  O        -18.8950  -20.9450   -7.4620 O.2    78  VAL78      -0.2867
     51  CB       -15.6420  -20.7180   -8.2450 C.3    78  VAL78       0.0252
     52  CG1      -16.4440  -20.0200   -9.3570 C.3    78  VAL78       0.0019
     53  CG2      -14.9550  -19.6680   -7.3440 C.3    78  VAL78       0.0019
     54  N        -15.6900  -13.1700   -5.9710 N.3    94  TYR94      -0.1227
     55  CA       -15.7220  -14.5910   -5.5580 C.3    94  TYR94       0.1736
     56  C        -14.8800  -14.8760   -4.3880 C.2    94  TYR94       0.2595
     57  O        -13.9260  -14.1540   -4.1100 O.2    94  TYR94      -0.2718
     58  CB       -15.1350  -15.4920   -6.6800 C.3    94  TYR94       0.0548
     59  CG       -15.8510  -15.3270   -7.9950 C.ar   94  TYR94      -0.0200
     60  CD1      -16.8580  -16.2060   -8.3780 C.ar   94  TYR94      -0.0009
     61  CD2      -15.5310  -14.2860   -8.8540 C.ar   94  TYR94      -0.0009
     62  CE1      -17.5060  -16.0660   -9.5940 C.ar   94  TYR94       0.0417
     63  CE2      -16.1370  -14.1690  -10.0990 C.ar   94  TYR94       0.0417
     64  CZ       -17.1510  -15.0410  -10.4470 C.ar   94  TYR94       0.1957
     65  OH       -17.8030  -14.9070  -11.6380 O.3    94  TYR94      -0.2866
     66  N        -15.0850  -16.0780   -3.8480 N.am   95  VAL95      -0.1966
     67  CA       -14.2270  -16.5990   -2.7920 C.3    95  VAL95       0.1727
     68  C        -12.7940  -16.7260   -3.4130 C.2    95  VAL95       0.2616
     69  O        -12.6480  -17.1720   -4.5470 O.2    95  VAL95      -0.2715
     70  CB       -14.7630  -18.0040   -2.3550 C.3    95  VAL95       0.0290
     71  CG1      -13.7020  -18.7440   -1.5260 C.3    95  VAL95       0.0023
     72  CG2      -16.0850  -17.8690   -1.5620 C.3    95  VAL95       0.0023
     73  N        -11.7560  -16.3530   -2.6720 N.am   96  TYR96      -0.1960
     74  CA       -10.3640  -16.4540   -3.1520 C.3    96  TYR96       0.1771
     75  C         -9.9000  -17.9350   -3.1860 C.2    96  TYR96       0.2619
     76  O        -10.1280  -18.6740   -2.2240 O.2    96  TYR96      -0.2715
     77  CB        -9.4830  -15.6650   -2.1690 C.3    96  TYR96       0.0574
     78  CG        -7.9860  -15.7440   -2.3880 C.ar   96  TYR96      -0.0198
     79  CD1       -7.1360  -16.1430   -1.3650 C.ar   96  TYR96      -0.0009
     80  CD2       -7.4150  -15.3660   -3.5980 C.ar   96  TYR96      -0.0009
     81  CE1       -5.7650  -16.2220   -1.5550 C.ar   96  TYR96       0.0417
     82  CE2       -6.0320  -15.3940   -3.7840 C.ar   96  TYR96       0.0417
     83  CZ        -5.2120  -15.8250   -2.7550 C.ar   96  TYR96       0.1957
     84  OH        -3.8420  -15.8690   -2.8990 O.3    96  TYR96      -0.2866
     85  N         -9.2180  -18.3410   -4.2720 N.am   97  MET97      -0.1977
     86  CA        -8.6900  -19.6960   -4.4640 C.3    97  MET97       0.1605
     87  C         -7.1510  -19.5630   -4.3840 C.2    97  MET97       0.2287
     88  O         -6.5010  -19.1280   -5.3520 O.2    97  MET97      -0.2864
     89  CB        -9.1480  -20.2130   -5.8460 C.3    97  MET97       0.0413
     90  CG       -10.6750  -20.4040   -5.9380 C.3    97  MET97       0.0598
     91  SD       -11.2210  -21.8170   -4.9570 S.3    97  MET97      -0.1393
     92  CE       -12.3310  -21.1010   -3.8520 C.3    97  MET97       0.0692
     93  N         -4.9180  -21.0050   -7.1460 N.3   100  GLY100     -0.1210
     94  CA        -5.1330  -20.6080   -8.5310 C.3   100  GLY100      0.1956
     95  C         -5.7520  -21.6450   -9.4330 C.2   100  GLY100      0.2612
     96  O         -6.6370  -22.3890   -9.0140 O.2   100  GLY100     -0.2717
     97  N         -5.3390  -21.6610  -10.7200 N.am  101  SER101     -0.1952
     98  CA        -5.9400  -22.5810  -11.6650 C.3   101  SER101      0.1924
     99  C         -5.1280  -23.8660  -11.8150 C.2   101  SER101      0.2314
    100  O         -3.8980  -23.8830  -11.6120 O.2   101  SER101     -0.2863
    101  CB        -6.0950  -21.9150  -13.0340 C.3   101  SER101      0.2116
    102  OG        -4.8590  -21.7080  -13.7070 O.3   101  SER101     -0.2180
    103  N         -2.2320  -23.5120  -14.2990 N.3   104  ASP104     -0.1239
    104  CA        -1.0150  -22.9150  -13.7340 C.3   104  ASP104      0.1674
    105  C         -0.3050  -23.8820  -12.7800 C.2   104  ASP104      0.2266
    106  O          0.9230  -23.9410  -12.7580 O.2   104  ASP104     -0.2867
    107  CB        -1.3920  -21.6200  -13.0140 C.3   104  ASP104      0.1410
    108  CG        -1.8820  -20.5490  -13.9850 C.2   104  ASP104      0.3668
    109  OD1       -2.3580  -19.5030  -13.5150 O.co2 104  ASP104     -0.2456
    110  OD2       -1.6870  -20.7230  -15.2060 O.co2 104  ASP104     -0.2456
    111  N         -7.8720  -24.0530  -17.2060 N.3   147  ALA147     -0.1231
    112  CA        -7.8470  -22.6380  -16.7490 C.3   147  ALA147      0.1694
    113  C         -9.1410  -22.3320  -15.9630 C.2   147  ALA147      0.2592
    114  O         -9.1860  -21.3300  -15.2660 O.2   147  ALA147     -0.2718
    115  CB        -7.7580  -21.6760  -17.9480 C.3   147  ALA147      0.0304
    116  N        -10.2200  -23.1470  -16.1890 N.am  148  ASN148     -0.1974
    117  CA       -11.5410  -23.0060  -15.5430 C.3   148  ASN148      0.1688
    118  C        -11.7630  -24.0250  -14.4570 C.2   148  ASN148      0.2292
    119  O        -12.8850  -24.3130  -14.1120 O.2   148  ASN148     -0.2864
    120  CB       -12.6960  -22.9890  -16.5950 C.3   148  ASN148      0.1181
    121  CG       -12.6970  -21.7410  -17.4080 C.2   148  ASN148      0.2629
    122  OD1      -12.1130  -20.7590  -17.0010 O.2   148  ASN148     -0.2716
    123  ND2      -13.3740  -21.7220  -18.5710 N.am  148  ASN148     -0.0877
    124  N        -10.3990  -24.2540  -10.6610 N.3   150  LEU150     -0.1245
    125  CA        -9.6350  -23.5510   -9.6430 C.3   150  LEU150      0.1561
    126  C         -9.3860  -24.4080   -8.4200 C.2   150  LEU150      0.2260
    127  O        -10.0070  -25.4580   -8.2510 O.2   150  LEU150     -0.2867
    128  CB       -10.3320  -22.2290   -9.2760 C.3   150  LEU150      0.0270
    129  CG       -10.6800  -21.3280  -10.4830 C.3   150  LEU150      0.0019
    130  CD1      -11.3650  -20.0710  -10.0170 C.3   150  LEU150      0.0001
    131  CD2       -9.4090  -20.9420  -11.3710 C.3   150  LEU150      0.0001
    132  N        -15.0690  -22.9660  -12.6780 N.3   160  SER160     -0.1202
    133  CA       -15.3920  -21.5490  -12.7450 C.3   160  SER160      0.2020
    134  C        -15.8370  -21.1890  -14.1720 C.2   160  SER160      0.2618
    135  O        -15.6910  -21.9880  -15.1000 O.2   160  SER160     -0.2717
    136  CB       -14.1610  -20.7170  -12.3970 C.3   160  SER160      0.2103
    137  OG       -13.1500  -20.9240  -13.3830 O.3   160  SER160     -0.2182
    138  N        -16.2370  -19.9170  -14.3520 N.am  161  ASP161     -0.1973
    139  CA       -16.5850  -19.3190  -15.6250 C.3   161  ASP161      0.1709
    140  C        -17.8720  -19.8110  -16.2550 C.2   161  ASP161      0.2293
    141  O        -17.8880  -20.7000  -17.0930 O.2   161  ASP161     -0.2864
    142  CB       -15.3950  -19.2790  -16.5760 C.3   161  ASP161      0.1436
    143  CG       -15.5450  -18.1630  -17.6000 C.2   161  ASP161      0.3671
    144  OD1      -16.6580  -17.5860  -17.6940 O.co2 161  ASP161     -0.2456
    145  OD2      -14.5600  -17.8640  -18.2940 O.co2 161  ASP161     -0.2456
@<TRIPOS>BOND
     1    25    24    2
     2    24    23    1
     3    21    19   ar
     4    23    22    1
     5    19    20   ar
     6    19    18    1
     7    22    15   am
     8   123   121   am
     9    18    17    1
    10   145   143   ar
    11    16    15    2
    12    15    14    1
    13   115   112    1
    14    17    14    1
    15   144   143   ar
    16   143   142    1
    17   121   122    2
    18   121   120    1
    19   111   112    1
    20   141   140    2
    21    14    13    1
    22   112   113    1
    23   120   117    1
    24   142   139    1
    25   140   139    1
    26   116   113   am
    27   116   117    1
    28    13    11   am
    29   113   114    2
    30    46    45    1
    31   139   138    1
    32   117   118    1
    33   110   108   ar
    34   135   134    2
    35    11    12    2
    36    11    10    1
    37    45    44    1
    38    44    43    1
    39   118   119    2
    40   138   134   am
    41   103   104    1
    42   134   133    1
    43    10     9    1
    44    43    42    1
    45   108   109   ar
    46   108   107    1
    47   104   107    1
    48   104   105    1
    49   102   101    1
    50    26    27    1
    51   137   136    1
    52    32    30    1
    53   101    98    1
    54     9     3   am
    55   105   106    2
    56   133   132    1
    57   133   136    1
    58    40    41    2
    59    40    39    1
    60    42    39    1
    61    27    30    1
    62    27    28    1
    63    30    31    1
    64     4     3    2
    65    39    38    1
    66     3     2    1
    67    99    98    1
    68    99   100    2
    69    98    97    1
    70    65    64    1
    71    29    28    2
    72   131   129    1
    73     1     2    1
    74    97    95   am
    75   124   125    1
    76     2     5    1
    77   129   130    1
    78   129   128    1
    79    64    63   ar
    80    64    62   ar
    81    63    61   ar
    82   125   128    1
    83   125   126    1
    84     5     6    1
    85    62    60   ar
    86    95    96    2
    87    95    94    1
    88    52    51    1
    89    61    59   ar
    90    94    93    1
    91   126   127    2
    92    60    59   ar
    93     6     7    1
    94    51    48    1
    95    51    53    1
    96    47    48    1
    97    59    58    1
    98    50    49    2
    99     8     7    1
   100    48    49    1
   101    37    34    1
   102    35    36    2
   103    35    34    1
   104    58    55    1
   105    34    33    1
   106    54    55    1
   107    90    89    1
   108    90    91    1
   109    89    86    1
   110    55    56    1
   111    88    87    2
   112    91    92    1
   113    69    68    2
   114    86    87    1
   115    86    85    1
   116    56    57    2
   117    56    66   am
   118    85    75   am
   119    66    67    1
   120    82    80   ar
   121    82    83   ar
   122    80    78   ar
   123    68    67    1
   124    68    73   am
   125    75    74    1
   126    75    76    2
   127    74    73    1
   128    74    77    1
   129    84    83    1
   130    67    70    1
   131    83    81   ar
   132    78    77    1
   133    78    79   ar
   134    70    72    1
   135    70    71    1
   136    81    79   ar
