@<TRIPOS>MOLECULE
tmp/5uiuA00.pdb
 169 159 0 0 0
SMALL
GASTEIGER

@<TRIPOS>ATOM
      1  N        -19.7280  -44.2390    8.4590 N.3    28  MET28      -0.1230
      2  CA       -19.6220  -42.7820    8.2910 C.3    28  MET28       0.1702
      3  C        -19.8370  -42.0690    9.6300 C.2    28  MET28       0.2593
      4  O        -19.3470  -40.9590    9.8330 O.2    28  MET28      -0.2718
      5  CB       -20.6900  -42.2820    7.3110 C.3    28  MET28       0.0401
      6  CG       -20.5710  -42.8990    5.9410 C.3    28  MET28       0.0596
      7  SD       -21.5180  -41.9680    4.7190 S.3    28  MET28      -0.1393
      8  CE       -23.0120  -42.6330    4.9330 C.3    28  MET28       0.0692
      9  N        -20.5970  -42.7110   10.5090 N.am   29  GLY29      -0.1942
     10  CA       -20.9330  -42.1380   11.8020 C.3    29  GLY29       0.2014
     11  C        -21.7590  -43.0670   12.6470 C.2    29  GLY29       0.2639
     12  O        -22.1680  -44.1390   12.1870 O.2    29  GLY29      -0.2714
     13  N        -22.0040  -42.6510   13.8940 N.am   30  GLU30      -0.1963
     14  CA       -22.7620  -43.4280   14.8760 C.3    30  GLU30       0.1733
     15  C        -23.3010  -42.5350   15.9850 C.2    30  GLU30       0.2616
     16  O        -22.7650  -41.4580   16.2290 O.2    30  GLU30      -0.2715
     17  CB       -21.8980  -44.5730   15.4660 C.3    30  GLU30       0.0429
     18  CG       -20.6720  -44.0930   16.2270 C.3    30  GLU30       0.1163
     19  CD       -19.6640  -45.1760   16.5540 C.2    30  GLU30       0.3649
     20  OE1      -18.4840  -45.0130   16.1690 O.co2  30  GLU30      -0.2457
     21  OE2      -20.0490  -46.1840   17.1890 O.co2  30  GLU30      -0.2457
     22  N        -24.3550  -43.0040   16.6390 N.am   31  GLY31      -0.1955
     23  CA       -24.9930  -42.3120   17.7510 C.3    31  GLY31       0.1869
     24  C        -25.5810  -43.3090   18.7170 C.2    31  GLY31       0.2309
     25  O        -25.3090  -44.5080   18.6100 O.2    31  GLY31      -0.2863
     26  N        -28.6820  -44.2260   18.8890 N.3    33  PHE33      -0.1227
     27  CA       -29.7380  -45.0220   18.2570 C.3    33  PHE33       0.1740
     28  C        -29.3290  -45.8220   16.9940 C.2    33  PHE33       0.2635
     29  O        -30.1710  -46.5360   16.4310 O.2    33  PHE33      -0.2714
     30  CB       -31.0260  -44.1880   18.0460 C.3    33  PHE33       0.0548
     31  CG       -31.4610  -43.3400   19.2260 C.ar   33  PHE33      -0.0202
     32  CD1      -31.6230  -43.9020   20.4890 C.ar   33  PHE33      -0.0042
     33  CD2      -31.7400  -41.9830   19.0650 C.ar   33  PHE33      -0.0042
     34  CE1      -32.0150  -43.1120   21.5790 C.ar   33  PHE33      -0.0003
     35  CE2      -32.1530  -41.1980   20.1510 C.ar   33  PHE33      -0.0003
     36  CZ       -32.2770  -41.7670   21.4010 C.ar   33  PHE33      -0.0000
     37  N        -28.0530  -45.7560   16.6010 N.am   34  GLY34      -0.1732
     38  CA       -27.5910  -46.5160   15.4440 C.2    34  GLY34       0.1340
     39  C        -26.2500  -46.1590   14.8480 C.2    34  GLY34       0.2521
     40  O        -25.4750  -45.4060   15.4300 O.2    34  GLY34      -0.2816
     41  N        -24.3760  -45.3010   10.8690 N.3    36  VAL36      -0.1245
     42  CA       -24.6040  -44.8640    9.4870 C.3    36  VAL36       0.1561
     43  C        -23.5150  -45.4070    8.5770 C.2    36  VAL36       0.2260
     44  O        -22.3240  -45.2270    8.8450 O.2    36  VAL36      -0.2867
     45  CB       -24.8150  -43.3330    9.3430 C.3    36  VAL36       0.0252
     46  CG1      -25.0540  -42.9490    7.8810 C.3    36  VAL36       0.0019
     47  CG2      -25.9870  -42.8740   10.1930 C.3    36  VAL36       0.0019
     48  N        -26.8570  -43.3130    2.0640 N.3    47  ALA47      -0.1245
     49  CA       -26.4730  -43.4950    3.4590 C.3    47  ALA47       0.1562
     50  C        -27.5010  -44.4350    4.0470 C.2    47  ALA47       0.2260
     51  O        -28.7010  -44.2250    3.8610 O.2    47  ALA47      -0.2867
     52  CB       -26.5090  -42.1780    4.2150 C.3    47  ALA47       0.0290
     53  N        -28.7200  -46.0090    7.6450 N.3    49  LYS49      -0.1245
     54  CA       -28.6830  -45.9760    9.0960 C.3    49  LYS49       0.1561
     55  C        -29.2960  -47.2720    9.6040 C.2    49  LYS49       0.2260
     56  O        -30.4830  -47.5310    9.3760 O.2    49  LYS49      -0.2867
     57  CB       -29.4260  -44.7460    9.6480 C.3    49  LYS49       0.0271
     58  CG       -29.3200  -44.6030   11.1750 C.3    49  LYS49       0.0035
     59  CD       -29.7960  -43.2500   11.6710 C.3    49  LYS49       0.0206
     60  CE       -31.3000  -43.0940   11.7040 C.3    49  LYS49       0.1093
     61  NZ       -31.6860  -41.8050   12.3330 N.3    49  LYS49      -0.1314
     62  N        -32.8630  -33.2300    5.6920 N.3    82  VAL82      -0.1245
     63  CA       -32.2960  -34.3610    4.9420 C.3    82  VAL82       0.1561
     64  C        -33.4290  -35.1730    4.3190 C.2    82  VAL82       0.2260
     65  O        -34.5090  -35.2920    4.9150 O.2    82  VAL82      -0.2867
     66  CB       -31.2980  -35.2410    5.7730 C.3    82  VAL82       0.0252
     67  CG1      -32.0310  -36.0680    6.8440 C.3    82  VAL82       0.0019
     68  CG2      -30.4530  -36.1570    4.8540 C.3    82  VAL82       0.0019
     69  N        -31.0440  -42.8050    3.2350 N.3    98  TYR98      -0.1227
     70  CA       -31.0440  -41.3780    2.9350 C.3    98  TYR98       0.1736
     71  C        -30.2530  -41.0200    1.7030 C.2    98  TYR98       0.2595
     72  O        -29.3400  -41.7560    1.3060 O.2    98  TYR98      -0.2718
     73  CB       -30.4040  -40.6050    4.1190 C.3    98  TYR98       0.0548
     74  CG       -31.0980  -40.8540    5.4410 C.ar   98  TYR98      -0.0200
     75  CD1      -32.1640  -40.0560    5.8530 C.ar   98  TYR98      -0.0009
     76  CD2      -30.7370  -41.9320    6.2490 C.ar   98  TYR98      -0.0009
     77  CE1      -32.8220  -40.2970    7.0610 C.ar   98  TYR98       0.0417
     78  CE2      -31.3720  -42.1650    7.4710 C.ar   98  TYR98       0.0417
     79  CZ       -32.4280  -41.3580    7.8620 C.ar   98  TYR98       0.1957
     80  OH       -33.0680  -41.6050    9.0530 O.3    98  TYR98      -0.2866
     81  N        -30.5110  -39.7900    1.2000 N.am   99  VAL99      -0.1966
     82  CA       -29.7200  -39.1590    0.1450 C.3    99  VAL99       0.1727
     83  C        -28.3410  -38.9970    0.7940 C.2    99  VAL99       0.2616
     84  O        -28.2560  -38.6390    1.9740 O.2    99  VAL99      -0.2715
     85  CB       -30.3380  -37.7950   -0.3060 C.3    99  VAL99       0.0290
     86  CG1      -29.3470  -36.9570   -1.1160 C.3    99  VAL99       0.0023
     87  CG2      -31.6130  -38.0210   -1.1130 C.3    99  VAL99       0.0023
     88  N        -27.2800  -39.3340    0.0560 N.am  100  TYR100     -0.1960
     89  CA       -25.9130  -39.2370    0.5490 C.3   100  TYR100      0.1771
     90  C        -25.4970  -37.7780    0.7750 C.2   100  TYR100      0.2619
     91  O        -25.7110  -36.9370   -0.0910 O.2   100  TYR100     -0.2715
     92  CB       -24.9680  -39.9410   -0.4350 C.3   100  TYR100      0.0574
     93  CG       -23.5100  -39.8860   -0.0500 C.ar  100  TYR100     -0.0198
     94  CD1      -22.5650  -39.3130   -0.8990 C.ar  100  TYR100     -0.0009
     95  CD2      -23.0620  -40.4400    1.1480 C.ar  100  TYR100     -0.0009
     96  CE1      -21.2100  -39.2820   -0.5590 C.ar  100  TYR100      0.0417
     97  CE2      -21.7140  -40.4020    1.5020 C.ar  100  TYR100      0.0417
     98  CZ       -20.7900  -39.8390    0.6360 C.ar  100  TYR100      0.1957
     99  OH       -19.4640  -39.8190    0.9820 O.3   100  TYR100     -0.2866
    100  N        -24.9490  -37.4870    1.9680 N.am  101  MET101     -0.1977
    101  CA       -24.4810  -36.1580    2.3700 C.3   101  MET101      0.1605
    102  C        -22.9600  -36.2320    2.3200 C.2   101  MET101      0.2287
    103  O        -22.3560  -36.7650    3.2620 O.2   101  MET101     -0.2864
    104  CB       -25.0030  -35.7750    3.7820 C.3   101  MET101      0.0413
    105  CG       -26.5190  -35.6180    3.8560 C.3   101  MET101      0.0598
    106  SD       -27.1220  -34.1160    3.0210 S.3   101  MET101     -0.1393
    107  CE       -27.9330  -34.7750    1.6580 C.3   101  MET101      0.0692
    108  N        -20.8880  -34.9910    5.3010 N.3   104  GLY104     -0.1210
    109  CA       -21.2070  -35.5380    6.6190 C.3   104  GLY104      0.1956
    110  C        -21.9040  -34.5800    7.5570 C.2   104  GLY104      0.2612
    111  O        -22.7580  -33.7980    7.1240 O.2   104  GLY104     -0.2717
    112  N        -21.5310  -34.6170    8.8540 N.am  105  SER105     -0.1952
    113  CA       -22.1870  -33.7460    9.8350 C.3   105  SER105      0.1924
    114  C        -21.4000  -32.4690   10.1080 C.2   105  SER105      0.2314
    115  O        -20.1730  -32.4360    9.9410 O.2   105  SER105     -0.2863
    116  CB       -22.4450  -34.4960   11.1480 C.3   105  SER105      0.2116
    117  OG       -21.2440  -34.7190   11.8720 O.3   105  SER105     -0.2180
    118  N        -18.6970  -33.0710   12.7390 N.3   108  ASP108     -0.1239
    119  CA       -17.4500  -33.6060   12.1720 C.3   108  ASP108      0.1674
    120  C        -16.6790  -32.5760   11.3650 C.2   108  ASP108      0.2266
    121  O        -15.4570  -32.5900   11.4080 O.2   108  ASP108     -0.2867
    122  CB       -17.7210  -34.8650   11.3510 C.3   108  ASP108      0.1410
    123  CG       -18.2770  -36.0240   12.1610 C.2   108  ASP108      0.3668
    124  OD1      -18.8040  -36.9760   11.5430 O.co2 108  ASP108     -0.2456
    125  OD2      -18.1640  -35.9920   13.4140 O.co2 108  ASP108     -0.2456
    126  N        -28.7350  -30.3490   17.4100 N.3   149  LYS149     -0.1245
    127  CA       -27.3150  -30.4480   17.7480 C.3   149  LYS149      0.1561
    128  C        -26.5270  -30.4910   16.4530 C.2   149  LYS149      0.2260
    129  O        -27.1140  -30.7500   15.3900 O.2   149  LYS149     -0.2867
    130  CB       -27.0080  -31.6600   18.6570 C.3   149  LYS149      0.0271
    131  CG       -27.3980  -33.0290   18.1280 C.3   149  LYS149      0.0035
    132  CD       -27.1820  -34.0470   19.2210 C.3   149  LYS149      0.0206
    133  CE       -27.2850  -35.4520   18.7180 C.3   149  LYS149      0.1093
    134  NZ       -26.9890  -36.4140   19.8040 N.3   149  LYS149     -0.1314
    135  N        -24.4270  -32.7090   15.4100 N.3   151  ALA151     -0.1231
    136  CA       -24.3790  -34.0610   14.8130 C.3   151  ALA151      0.1694
    137  C        -25.6380  -34.3020   13.9590 C.2   151  ALA151      0.2592
    138  O        -25.6570  -35.2250   13.1300 O.2   151  ALA151     -0.2718
    139  CB       -24.2810  -35.1290   15.9100 C.3   151  ALA151      0.0304
    140  N        -26.6950  -33.4800   14.1930 N.am  152  ASN152     -0.1974
    141  CA       -28.0010  -33.5400   13.5040 C.3   152  ASN152      0.1688
    142  C        -28.1950  -32.4460   12.4560 C.2   152  ASN152      0.2292
    143  O        -29.3180  -32.1430   12.0600 O.2   152  ASN152     -0.2864
    144  CB       -29.1610  -33.6210   14.5170 C.3   152  ASN152      0.1181
    145  CG       -29.1650  -34.9430   15.2380 C.2   152  ASN152      0.2629
    146  OD1      -28.5070  -35.9020   14.8090 O.2   152  ASN152     -0.2716
    147  ND2      -29.9020  -35.0310   16.3440 N.am  152  ASN152     -0.0877
    148  N        -26.6510  -31.9680    8.7700 N.3   154  LEU154     -0.1245
    149  CA       -25.8080  -32.5990    7.7480 C.3   154  LEU154      0.1561
    150  C        -25.4790  -31.6370    6.6470 C.2   154  LEU154      0.2260
    151  O        -26.0890  -30.5670    6.5600 O.2   154  LEU154     -0.2867
    152  CB       -26.3960  -33.9170    7.2220 C.3   154  LEU154      0.0270
    153  CG       -26.8790  -34.9260    8.2860 C.3   154  LEU154      0.0019
    154  CD1      -27.5780  -36.0850    7.6190 C.3   154  LEU154      0.0001
    155  CD2      -25.7200  -35.4450    9.1720 C.3   154  LEU154      0.0001
    156  N        -31.3090  -33.3960   10.4300 N.3   164  SER164     -0.1202
    157  CA       -31.5440  -34.8270   10.4090 C.3   164  SER164      0.2020
    158  C        -32.0460  -35.3500   11.7720 C.2   164  SER164      0.2618
    159  O        -32.0960  -34.5940   12.7500 O.2   164  SER164     -0.2717
    160  CB       -30.2600  -35.5520   10.0070 C.3   164  SER164      0.2103
    161  OG       -29.2590  -35.4300   11.0050 O.3   164  SER164     -0.2182
    162  N        -32.3140  -36.6760   11.8250 N.am  165  ASP165     -0.1973
    163  CA       -32.7650  -37.4460   12.9730 C.3   165  ASP165      0.1709
    164  C        -34.0670  -36.9190   13.5700 C.2   165  ASP165      0.2293
    165  O        -34.0420  -36.1090   14.4920 O.2   165  ASP165     -0.2864
    166  CB       -31.6480  -37.5960   14.0330 C.3   165  ASP165      0.1436
    167  CG       -31.8030  -38.8190   14.9250 C.2   165  ASP165      0.3671
    168  OD1      -32.9360  -39.3570   15.0210 O.co2 165  ASP165     -0.2456
    169  OD2      -30.8130  -39.2130   15.5540 O.co2 165  ASP165     -0.2456
@<TRIPOS>BOND
     1    86    85    1
     2    87    85    1
     3    94    96   ar
     4    94    93   ar
     5    96    98   ar
     6    92    93    1
     7    92    89    1
     8    85    82    1
     9    91    90    2
    10    93    95   ar
    11    88    89    1
    12    88    83   am
    13    82    83    1
    14    82    81    1
    15    89    90    1
    16    98    99    1
    17    98    97   ar
    18    90   100   am
    19    83    84    2
    20    95    97   ar
    21    81    71   am
    22    72    71    2
    23   107   106    1
    24    71    70    1
    25   100   101    1
    26    48    49    1
    27   102   101    1
    28   102   103    2
    29   101   104    1
    30    70    69    1
    31    70    73    1
    32   106   105    1
    33    49    50    1
    34    49    52    1
    35   104   105    1
    36    51    50    2
    37    73    74    1
    38    64    65    2
    39    64    63    1
    40     7     8    1
    41     7     6    1
    42    68    66    1
    43    63    62    1
    44    63    66    1
    45   108   109    1
    46    74    75   ar
    47    74    76   ar
    48    66    67    1
    49    75    77   ar
    50     6     5    1
    51    76    78   ar
    52   151   150    2
    53   109   110    1
    54   150   149    1
    55    77    79   ar
    56   111   110    2
    57   152   149    1
    58   152   153    1
    59     5     2    1
    60    78    79   ar
    61   110   112   am
    62   154   153    1
    63    53    54    1
    64   149   148    1
    65    79    80    1
    66    46    45    1
    67   153   155    1
    68     2     1    1
    69     2     3    1
    70    43    44    2
    71    43    42    1
    72   112   113    1
    73    54    55    1
    74    54    57    1
    75    45    42    1
    76    45    47    1
    77    56    55    2
    78    42    41    1
    79     3     4    2
    80     3     9   am
    81    57    58    1
    82   113   114    1
    83   113   116    1
    84   115   114    2
    85   160   157    1
    86   160   161    1
    87   157   156    1
    88   157   158    1
    89     9    10    1
    90   116   117    1
    91    58    59    1
    92   122   123    1
    93   122   119    1
    94   120   121    2
    95   120   119    1
    96   124   123   ar
    97    59    60    1
    98    60    61    1
    99   158   162   am
   100   158   159    2
   101    10    11    1
   102   162   163    1
   103   143   142    2
   104   123   125   ar
   105   119   118    1
   106    12    11    2
   107   142   141    1
   108    11    13   am
   109   163   164    1
   110   163   166    1
   111   138   137    2
   112   141   140    1
   113   141   144    1
   114   164   165    2
   115    13    14    1
   116   137   140   am
   117   137   136    1
   118   166   167    1
   119   144   145    1
   120   146   145    2
   121   136   135    1
   122   136   139    1
   123    39    40    2
   124    39    38    1
   125    14    17    1
   126    14    15    1
   127   167   168   ar
   128   167   169   ar
   129   145   147   am
   130   129   128    2
   131    38    37    2
   132    17    18    1
   133    15    16    2
   134    15    22   am
   135    20    19   ar
   136    18    19    1
   137    29    28    2
   138   128   127    1
   139    19    21   ar
   140    37    28    1
   141    22    23    1
   142    28    27    1
   143   126   127    1
   144   127   130    1
   145    23    24    1
   146    30    27    1
   147    30    31    1
   148   131   130    1
   149   131   132    1
   150    27    26    1
   151    25    24    2
   152   133   132    1
   153   133   134    1
   154    33    31   ar
   155    33    35   ar
   156    31    32   ar
   157    35    36   ar
   158    32    34   ar
   159    36    34   ar
