@<TRIPOS>MOLECULE
tmp/5uivA00.pdb
 176 169 0 0 0
SMALL
GASTEIGER

@<TRIPOS>ATOM
      1  N         27.9490   17.4490   16.8040 N.3    14  ASP14      -0.1239
      2  CA        29.0860   18.3440   16.9070 C.3    14  ASP14       0.1674
      3  C         30.1470   17.7570   17.8680 C.2    14  ASP14       0.2266
      4  O         29.8260   17.1240   18.8730 O.2    14  ASP14      -0.2867
      5  CB        28.6380   19.7400   17.3650 C.3    14  ASP14       0.1410
      6  CG        29.7060   20.7880   17.1440 C.2    14  ASP14       0.3668
      7  OD1       30.2730   20.9160   16.0130 O.co2  14  ASP14      -0.2456
      8  OD2       29.9690   21.5220   18.1190 O.co2  14  ASP14      -0.2456
      9  N         34.0180   14.0960   13.5210 N.3    18  LYS18      -0.1245
     10  CA        33.7330   14.0060   12.0770 C.3    18  LYS18       0.1561
     11  C         34.7640   14.7150   11.1510 C.2    18  LYS18       0.2260
     12  O         35.2860   14.0890   10.2320 O.2    18  LYS18      -0.2867
     13  CB        32.3590   14.6040   11.7610 C.3    18  LYS18       0.0271
     14  CG        31.1850   14.0420   12.5430 C.3    18  LYS18       0.0035
     15  CD        29.8250   14.5190   12.0050 C.3    18  LYS18       0.0206
     16  CE        29.5960   16.0490   12.0650 C.3    18  LYS18       0.1093
     17  NZ        30.0160   16.6560   13.3680 N.3    18  LYS18      -0.1314
     18  N         31.5040   18.9410    2.6910 N.3    36  LYS36      -0.1231
     19  CA        30.9060   19.2730    3.9700 C.3    36  LYS36       0.1693
     20  C         29.4450   19.7290    3.7800 C.2    36  LYS36       0.2592
     21  O         29.1800   20.6050    2.9450 O.2    36  LYS36      -0.2718
     22  CB        31.7290   20.4320    4.5810 C.3    36  LYS36       0.0285
     23  CG        31.2530   21.0330    5.9050 C.3    36  LYS36       0.0035
     24  CD        31.1940   19.9970    6.9910 C.3    36  LYS36       0.0206
     25  CE        30.4610   20.4740    8.2400 C.3    36  LYS36       0.1093
     26  NZ        29.6900   19.3860    8.8970 N.3    36  LYS36      -0.1314
     27  N         28.5100   19.2100    4.5790 N.am   37  PHE37      -0.1963
     28  CA        27.1350   19.7780    4.5920 C.3    37  PHE37       0.1756
     29  C         26.7980   20.3640    5.9780 C.2    37  PHE37       0.2461
     30  O         27.1070   19.7550    6.9870 O.2    37  PHE37      -0.2730
     31  CB        26.0650   18.7680    4.1310 C.3    37  PHE37       0.0574
     32  CG        26.1110   18.4600    2.6410 C.ar   37  PHE37      -0.0200
     33  CD1       25.7640   19.4240    1.6980 C.ar   37  PHE37      -0.0042
     34  CD2       26.5190   17.1950    2.1710 C.ar   37  PHE37      -0.0042
     35  CE1       25.8310   19.1450    0.3520 C.ar   37  PHE37      -0.0003
     36  CE2       26.5410   16.9060    0.8100 C.ar   37  PHE37      -0.0003
     37  CZ        26.1900   17.8650   -0.0970 C.ar   37  PHE37      -0.0000
     38  N         26.1640   21.5530    6.0170 N.am   38  PRO38      -0.2727
     39  CA        25.7770   22.3100    4.8250 C.3    38  PRO38       0.1402
     40  C         26.9880   22.8680    4.1140 C.2    38  PRO38       0.2269
     41  O         28.0180   23.1600    4.7850 O.2    38  PRO38      -0.2865
     42  CB        24.9130   23.4660    5.3760 C.3    38  PRO38       0.0296
     43  CG        25.2070   23.5410    6.8340 C.3    38  PRO38       0.0237
     44  CD        25.6510   22.1560    7.2560 C.3    38  PRO38       0.0939
     45  N         28.1220   25.9820    2.9110 N.3    40  ARG40      -0.1245
     46  CA        27.7900   27.3880    3.1520 C.3    40  ARG40       0.1563
     47  C         28.3480   28.3230    2.0500 C.2    40  ARG40       0.2260
     48  O         28.1150   29.5100    2.0860 O.2    40  ARG40      -0.2867
     49  CB        28.3540   27.7840    4.5320 C.3    40  ARG40       0.0307
     50  CG        27.7910   26.9380    5.6780 C.3    40  ARG40       0.0489
     51  CD        28.3450   27.3950    7.0080 C.3    40  ARG40       0.2205
     52  NE        28.2170   26.3610    8.0490 N.pl3  40  ARG40      -0.0865
     53  CZ        27.8630   26.5930    9.3240 C.cat  40  ARG40       0.5346
     54  NH1       27.5650   27.8180    9.7440 N.pl3  40  ARG40       0.1354
     55  NH2       27.8320   25.5960   10.2030 N.pl3  40  ARG40       0.1354
     56  N         21.9940   29.8260   10.8430 N.3    52  LEU52      -0.1245
     57  CA        22.6980   29.1600   11.9430 C.3    52  LEU52       0.1561
     58  C         23.4340   30.1890   12.8200 C.2    52  LEU52       0.2260
     59  O         23.4710   30.0690   14.0500 O.2    52  LEU52      -0.2867
     60  CB        23.6390   28.0920   11.3970 C.3    52  LEU52       0.0270
     61  CG        23.0070   26.8590   10.7420 C.3    52  LEU52       0.0019
     62  CD1       24.0920   25.9880   10.1390 C.3    52  LEU52       0.0001
     63  CD2       22.2610   25.9940   11.7140 C.3    52  LEU52       0.0001
     64  N         18.0320   23.0130    3.7900 N.3    68  PHE68      -0.1241
     65  CA        19.1180   22.0300    3.9890 C.3    68  PHE68       0.1605
     66  C         19.0970   20.9380    2.9270 C.2    68  PHE68       0.2264
     67  O         20.1620   20.5050    2.4650 O.2    68  PHE68      -0.2867
     68  CB        19.0410   21.3150    5.3400 C.3    68  PHE68       0.0534
     69  CG        19.6120   22.0880    6.4890 C.ar   68  PHE68      -0.0203
     70  CD1       20.9860   22.1810    6.6680 C.ar   68  PHE68      -0.0042
     71  CD2       18.7860   22.7230    7.4050 C.ar   68  PHE68      -0.0042
     72  CE1       21.5390   22.8730    7.7440 C.ar   68  PHE68      -0.0003
     73  CE2       19.3200   23.4300    8.4790 C.ar   68  PHE68      -0.0003
     74  CZ        20.6940   23.5110    8.6460 C.ar   68  PHE68      -0.0000
     75  N         21.7730   20.1980   -0.5780 N.3    72  ARG72      -0.1245
     76  CA        22.3310   18.9090   -1.0410 C.3    72  ARG72       0.1563
     77  C         22.0730   18.7020   -2.5400 C.2    72  ARG72       0.2260
     78  O         22.9170   18.2230   -3.2920 O.2    72  ARG72      -0.2867
     79  CB        21.7150   17.7710   -0.2500 C.3    72  ARG72       0.0307
     80  CG        22.2350   17.6460    1.1650 C.3    72  ARG72       0.0489
     81  CD        21.6890   16.4120    1.9020 C.3    72  ARG72       0.2205
     82  NE        20.3530   16.5980    2.4910 N.pl3  72  ARG72      -0.0865
     83  CZ        20.0760   17.3230    3.5690 C.cat  72  ARG72       0.5346
     84  NH1       21.0320   18.0460    4.1830 N.pl3  72  ARG72       0.1354
     85  NH2       18.8190   17.3390    4.0390 N.pl3  72  ARG72       0.1354
     86  N         28.3820   15.0130    7.2340 N.3    93  ARG93      -0.1231
     87  CA        26.9310   15.2770    7.3750 C.3    93  ARG93       0.1694
     88  C         26.2160   15.1170    6.0730 C.2    93  ARG93       0.2592
     89  O         26.8080   15.3980    5.0190 O.2    93  ARG93      -0.2718
     90  CB        26.5710   16.6700    7.9460 C.3    93  ARG93       0.0321
     91  CG        26.9790   16.9380    9.4000 C.3    93  ARG93       0.0489
     92  CD        26.2790   18.1740    9.9170 C.3    93  ARG93       0.2205
     93  NE        26.7440   18.5250   11.2360 N.pl3  93  ARG93      -0.0865
     94  CZ        26.4210   17.8910   12.3530 C.cat  93  ARG93       0.5346
     95  NH1       25.5930   16.8470   12.3770 N.pl3  93  ARG93       0.1354
     96  NH2       26.9430   18.3350   13.4920 N.pl3  93  ARG93       0.1354
     97  N         24.9310   14.7150    6.1430 N.am   94  TYR94      -0.1976
     98  CA        24.0880   14.5290    4.9680 C.3    94  TYR94       0.1639
     99  C         22.6290   14.3440    5.4170 C.2    94  TYR94       0.2290
    100  O         22.1520   15.0700    6.3310 O.2    94  TYR94      -0.2864
    101  CB        24.6550   13.3550    4.1450 C.3    94  TYR94       0.0560
    102  CG        24.2350   13.1120    2.6730 C.ar   94  TYR94      -0.0198
    103  CD1       24.4450   14.0580    1.6990 C.ar   94  TYR94      -0.0009
    104  CD2       23.7380   11.8480    2.2610 C.ar   94  TYR94      -0.0009
    105  CE1       24.1490   13.8090    0.3650 C.ar   94  TYR94       0.0417
    106  CE2       23.4270   11.5770    0.9210 C.ar   94  TYR94       0.0417
    107  CZ        23.6440   12.5580   -0.0520 C.ar   94  TYR94       0.1957
    108  OH        23.3330   12.3390   -1.4200 O.3    94  TYR94      -0.2866
    109  N         21.6100   13.8650    9.2820 N.3    97  SER97      -0.1202
    110  CA        21.6030   15.1860    9.9170 C.3    97  SER97       0.2020
    111  C         20.3100   15.9600    9.5430 C.2    97  SER97       0.2619
    112  O         19.6170   16.4920   10.3930 O.2    97  SER97      -0.2717
    113  CB        22.8860   15.9920    9.6080 C.3    97  SER97       0.2103
    114  OG        23.9650   15.5950   10.4390 O.3    97  SER97      -0.2182
    115  N         19.9300   15.9520    8.2950 N.am   98  GLY98      -0.1956
    116  CA        18.6980   16.6210    7.9140 C.3    98  GLY98       0.1869
    117  C         17.4850   16.2010    8.7120 C.2    98  GLY98       0.2309
    118  O         16.7520   17.0360    9.2080 O.2    98  GLY98      -0.2863
    119  N         17.9240   16.6300   13.1050 N.3   101  TYR101     -0.1227
    120  CA        17.9310   17.9450   13.7450 C.3   101  TYR101      0.1736
    121  C         16.5620   18.5630   13.6660 C.2   101  TYR101      0.2596
    122  O         16.1290   19.2190   14.5740 O.2   101  TYR101     -0.2718
    123  CB        19.0300   18.8760   13.1900 C.3   101  TYR101      0.0548
    124  CG        20.4190   18.5050   13.6640 C.ar  101  TYR101     -0.0200
    125  CD1       21.1470   17.5290   13.0480 C.ar  101  TYR101     -0.0009
    126  CD2       20.9860   19.1230   14.7750 C.ar  101  TYR101     -0.0009
    127  CE1       22.4220   17.1950   13.4990 C.ar  101  TYR101      0.0417
    128  CE2       22.2380   18.7770   15.2500 C.ar  101  TYR101      0.0417
    129  CZ        22.9530   17.8030   14.6310 C.ar  101  TYR101      0.1957
    130  OH        24.2160   17.4480   15.1110 O.3   101  TYR101     -0.2866
    131  N         15.8490   18.3210   12.5900 N.am  102  THR102     -0.1953
    132  CA        14.4840   18.7620   12.4830 C.3   102  THR102      0.1897
    133  C         13.5360   17.8710   13.3300 C.2   102  THR102      0.2313
    134  O         12.6490   18.4040   14.0370 O.2   102  THR102     -0.2863
    135  CB        14.0620   18.8180   11.0360 C.3   102  THR102      0.1794
    136  OG1       14.8680   19.8060   10.3780 O.3   102  THR102     -0.2208
    137  CG2       12.5720   19.2150   10.9270 C.3   102  THR102      0.0378
    138  N         26.3470   28.5430   17.4490 N.3   160  GLU160     -0.1245
    139  CA        25.3250   28.5040   16.4130 C.3   160  GLU160      0.1567
    140  C         24.0260   28.0820   17.0430 C.2   160  GLU160      0.2260
    141  O         24.0000   27.6860   18.2030 O.2   160  GLU160     -0.2867
    142  CB        25.7330   27.6310   15.2440 C.3   160  GLU160      0.0388
    143  CG        26.9890   28.1490   14.5720 C.3   160  GLU160      0.1160
    144  CD        27.3240   27.4490   13.2650 C.2   160  GLU160      0.3649
    145  OE1       28.1160   28.0460   12.5020 O.co2 160  GLU160     -0.2457
    146  OE2       26.8110   26.3160   13.0220 O.co2 160  GLU160     -0.2457
    147  N         21.8370   25.6520   17.2040 N.3   162  TYR162     -0.1227
    148  CA        21.4270   24.3550   17.7240 C.3   162  TYR162      0.1736
    149  C         22.3690   23.9340   18.8050 C.2   162  TYR162      0.2595
    150  O         22.1920   22.8630   19.3570 O.2   162  TYR162     -0.2718
    151  CB        21.4390   23.3160   16.6210 C.3   162  TYR162      0.0548
    152  CG        20.4260   23.4820   15.5270 C.ar  162  TYR162     -0.0200
    153  CD1       19.2900   24.2890   15.6550 C.ar  162  TYR162     -0.0009
    154  CD2       20.5350   22.7530   14.3870 C.ar  162  TYR162     -0.0009
    155  CE1       18.3490   24.3910   14.6210 C.ar  162  TYR162      0.0417
    156  CE2       19.5730   22.8490   13.3780 C.ar  162  TYR162      0.0417
    157  CZ        18.4810   23.6610   13.5070 C.ar  162  TYR162      0.1957
    158  OH        17.5470   23.7180   12.4790 O.3   162  TYR162     -0.2866
    159  N         23.3610   24.7770   19.1230 N.am  163  GLU163     -0.1979
    160  CA        24.4350   24.4160   20.0240 C.3   163  GLU163      0.1602
    161  C         24.0260   24.6610   21.5090 C.2   163  GLU163      0.2287
    162  O         24.5500   25.5420   22.2330 O.2   163  GLU163     -0.2864
    163  CB        25.7110   25.1080   19.6150 C.3   163  GLU163      0.0415
    164  CG        26.1740   24.7160   18.2270 C.3   163  GLU163      0.1163
    165  CD        27.6140   25.1310   18.0150 C.2   163  GLU163      0.3649
    166  OE1       27.8190   26.2660   17.4950 O.co2 163  GLU163     -0.2457
    167  OE2       28.5330   24.3480   18.4100 O.co2 163  GLU163     -0.2457
    168  N         20.8150   19.0290   21.7960 N.3   168  GLN168     -0.1245
    169  CA        21.7550   17.9850   21.3630 C.3   168  GLN168      0.1566
    170  C         21.3840   16.5640   21.8840 C.2   168  GLN168      0.2260
    171  O         21.5830   15.5770   21.1980 O.2   168  GLN168     -0.2867
    172  CB        23.1860   18.3150   21.8310 C.3   168  GLN168      0.0367
    173  CG        23.8410   19.5940   21.2880 C.3   168  GLN168      0.0905
    174  CD        24.0490   19.6020   19.7750 C.2   168  GLN168      0.2608
    175  OE1       24.4670   18.6060   19.1980 O.2   168  GLN168     -0.2717
    176  NE2       23.7860   20.7380   19.1260 N.am  168  GLN168     -0.0878
@<TRIPOS>BOND
     1    78    77    2
     2    77    76    1
     3   108   107    1
     4    76    75    1
     5    76    79    1
     6    79    80    1
     7    37    35   ar
     8    37    36   ar
     9   107   105   ar
    10   107   106   ar
    11    35    33   ar
    12   105   103   ar
    13    36    34   ar
    14   106   104   ar
    15    80    81    1
    16    33    32   ar
    17   103   102   ar
    18    81    82    1
    19    47    48    2
    20    47    46    1
    21    34    32   ar
    22   104   102   ar
    23    67    66    2
    24    82    83    2
    25    32    31    1
    26   102   101    1
    27    18    19    1
    28    45    46    1
    29    66    65    1
    30    21    20    2
    31    46    49    1
    32    83    85    1
    33    83    84    1
    34    20    19    1
    35    20    27   am
    36    64    65    1
    37    19    22    1
    38    65    68    1
    39    40    41    2
    40    40    39    1
    41    31    28    1
    42   101    98    1
    43    49    50    1
    44    27    28    1
    45    22    23    1
    46    28    29    1
    47    39    42    1
    48    39    38    1
    49    98    99    1
    50    98    97    1
    51    89    88    2
    52    68    69    1
    53    42    43    1
    54    99   100    2
    55    50    51    1
    56    23    24    1
    57    29    38   am
    58    29    30    2
    59    38    44    1
    60    88    97   am
    61    88    87    1
    62    69    70   ar
    63    69    71   ar
    64    70    72   ar
    65    43    44    1
    66    24    25    1
    67    51    52    1
    68    86    87    1
    69    87    90    1
    70    71    73   ar
    71    72    74   ar
    72   116   115    1
    73   116   117    1
    74    90    91    1
    75    52    53    2
    76    25    26    1
    77   115   111   am
    78    73    74   ar
    79   117   118    2
    80   109   110    1
    81    53    54    1
    82    53    55    1
    83    91    92    1
    84   111   110    1
    85   111   112    2
    86   113   110    1
    87   113   114    1
    88    92    93    1
    89    62    61    1
    90    12    11    2
    91   136   135    1
    92    61    60    1
    93    61    63    1
    94    56    57    1
    95   137   135    1
    96   135   132    1
    97    11    10    1
    98    93    94    2
    99    60    57    1
   100    13    10    1
   101    13    14    1
   102    57    58    1
   103    15    16    1
   104    15    14    1
   105    16    17    1
   106    10     9    1
   107    94    95    1
   108    94    96    1
   109   158   157    1
   110   132   131    1
   111   132   133    1
   112   145   144   ar
   113   131   121   am
   114    58    59    2
   115   146   144   ar
   116   125   127   ar
   117   125   124   ar
   118   119   120    1
   119   123   124    1
   120   123   120    1
   121   144   143    1
   122   133   134    2
   123   156   157   ar
   124   156   154   ar
   125   127   129   ar
   126   157   155   ar
   127   124   126   ar
   128   121   120    1
   129   121   122    2
   130   154   152   ar
   131   143   142    1
   132   155   153   ar
   133   129   130    1
   134   129   128   ar
   135   126   128   ar
   136   142   139    1
   137   152   153   ar
   138   152   151    1
   139     7     6   ar
   140   139   140    1
   141   139   138    1
   142   151   148    1
   143     1     2    1
   144     2     5    1
   145     2     3    1
   146   140   141    2
   147     6     5    1
   148     6     8   ar
   149   147   148    1
   150   166   165   ar
   151   148   149    1
   152     3     4    2
   153   165   164    1
   154   165   167   ar
   155   164   163    1
   156   149   159   am
   157   149   150    2
   158   159   160    1
   159   176   174   am
   160   175   174    2
   161   163   160    1
   162   174   173    1
   163   160   161    1
   164   171   170    2
   165   173   172    1
   166   169   168    1
   167   169   172    1
   168   169   170    1
   169   161   162    2
