@<TRIPOS>MOLECULE
tmp/5uivA01.pdb
 139 132 0 0 0
SMALL
GASTEIGER

@<TRIPOS>ATOM
      1  N         27.9490   17.4490   16.8040 N.3    14  ASP14      -0.1225
      2  CA        29.0860   18.3440   16.9070 C.3    14  ASP14       0.1805
      3  C         30.1470   17.7570   17.8680 C.2    14  ASP14       0.2598
      4  O         29.8260   17.1240   18.8730 O.2    14  ASP14      -0.2718
      5  CB        28.6380   19.7400   17.3650 C.3    14  ASP14       0.1424
      6  CG        29.7060   20.7880   17.1440 C.2    14  ASP14       0.3668
      7  OD1       30.2730   20.9160   16.0130 O.co2  14  ASP14      -0.2456
      8  OD2       29.9690   21.5220   18.1190 O.co2  14  ASP14      -0.2456
      9  N         31.4020   17.9340   17.5070 N.am   15  ARG15      -0.1966
     10  CA        32.5520   17.5580   18.2850 C.3    15  ARG15       0.1729
     11  C         32.6520   16.0800   18.5170 C.2    15  ARG15       0.2617
     12  O         33.4220   15.6440   19.3860 O.2    15  ARG15      -0.2715
     13  CB        32.6140   18.3420   19.5980 C.3    15  ARG15       0.0348
     14  CG        32.8370   19.8650   19.4260 C.3    15  ARG15       0.0492
     15  CD        32.7590   20.5810   20.7850 C.3    15  ARG15       0.2205
     16  NE        31.3920   20.9770   21.1600 N.pl3  15  ARG15      -0.0865
     17  CZ        30.9790   21.2760   22.4000 C.cat  15  ARG15       0.5346
     18  NH1       31.7830   21.2400   23.4600 N.pl3  15  ARG15       0.1354
     19  NH2       29.7270   21.6420   22.5950 N.pl3  15  ARG15       0.1354
     20  N         31.9180   15.2850   17.7290 N.am   16  SER16      -0.1936
     21  CA        32.0310   13.8510   17.8480 C.3    16  SER16       0.2055
     22  C         33.2550   13.3280   17.0960 C.2    16  SER16       0.2644
     23  O         33.4770   12.1120   17.1390 O.2    16  SER16      -0.2714
     24  CB        30.7490   13.1280   17.3840 C.3    16  SER16       0.2130
     25  OG        30.4920   13.3640   16.0160 O.3    16  SER16      -0.2179
     26  N         34.0450   14.1930   16.4210 N.am   17  GLY17      -0.1939
     27  CA        35.2120   13.7280   15.6470 C.3    17  GLY17       0.2014
     28  C         35.1320   13.6550   14.1160 C.2    17  GLY17       0.2639
     29  O         36.1030   13.2750   13.4890 O.2    17  GLY17      -0.2714
     30  N         34.0180   14.0960   13.5210 N.am   18  LYS18      -0.1963
     31  CA        33.7330   14.0060   12.0770 C.3    18  LYS18       0.1728
     32  C         34.7640   14.7150   11.1510 C.2    18  LYS18       0.2617
     33  O         35.2860   14.0890   10.2320 O.2    18  LYS18      -0.2715
     34  CB        32.3590   14.6040   11.7610 C.3    18  LYS18       0.0311
     35  CG        31.1850   14.0420   12.5430 C.3    18  LYS18       0.0038
     36  CD        29.8250   14.5190   12.0050 C.3    18  LYS18       0.0206
     37  CE        29.5960   16.0490   12.0650 C.3    18  LYS18       0.1093
     38  NZ        30.0160   16.6560   13.3680 N.3    18  LYS18      -0.1314
     39  N         35.0290   16.0090   11.3410 N.am   19  SER19      -0.1936
     40  CA        35.9260   16.6850   10.4150 C.3    19  SER19       0.2055
     41  C         37.3320   16.1250   10.5820 C.2    19  SER19       0.2644
     42  O         38.0210   15.8590    9.5850 O.2    19  SER19      -0.2714
     43  CB        35.9070   18.2010   10.5720 C.3    19  SER19       0.2130
     44  OG        36.3330   18.5530   11.8490 O.3    19  SER19      -0.2179
     45  N         37.7470   15.9020   11.8250 N.am   20  THR20      -0.1936
     46  CA        39.0330   15.2580   12.0630 C.3    20  THR20       0.2028
     47  C         39.2160   13.9470   11.2810 C.2    20  THR20       0.2642
     48  O         40.2090   13.7980   10.5610 O.2    20  THR20      -0.2714
     49  CB        39.2090   14.9540   13.5450 C.3    20  THR20       0.1808
     50  OG1       39.1090   16.1780   14.2600 O.3    20  THR20      -0.2208
     51  CG2       40.6210   14.2970   13.8450 C.3    20  THR20       0.0379
     52  N         38.2680   13.0100   11.4100 N.am   21  GLN21      -0.1976
     53  CA        38.3620   11.7290   10.6670 C.3    21  GLN21       0.1601
     54  C         38.1390   11.8540    9.1420 C.2    21  GLN21       0.2287
     55  O         38.7750   11.1500    8.3550 O.2    21  GLN21      -0.2864
     56  CB        37.4230   10.6790   11.2470 C.3    21  GLN21       0.0394
     57  CG        37.7520   10.3300   12.6790 C.3    21  GLN21       0.0908
     58  CD        39.1280    9.6630   12.8340 C.2    21  GLN21       0.2608
     59  OE1       39.6070    8.9520   11.9380 O.2    21  GLN21      -0.2717
     60  NE2       39.7590    9.8930   13.9680 N.am   21  GLN21      -0.0878
     61  N         30.7930   14.9290    5.1250 N.3    92  ASP92      -0.1239
     62  CA        30.6820   15.2200    6.5320 C.3    92  ASP92       0.1674
     63  C         29.2940   15.8500    6.7340 C.2    92  ASP92       0.2266
     64  O         29.0780   17.0300    6.4430 O.2    92  ASP92      -0.2867
     65  CB        31.8860   16.0910    6.9640 C.3    92  ASP92       0.1410
     66  CG        31.7670   16.6880    8.3870 C.2    92  ASP92       0.3668
     67  OD1       30.7400   16.6170    9.0600 O.co2  92  ASP92      -0.2456
     68  OD2       32.7260   17.3090    8.8360 O.co2  92  ASP92      -0.2456
     69  N         31.4680   13.7980   27.3080 N.3   150  GLU150     -0.1245
     70  CA        32.7790   13.8110   26.5760 C.3   150  GLU150      0.1567
     71  C         32.8400   14.9480   25.5540 C.2   150  GLU150      0.2260
     72  O         33.8470   15.6260   25.4380 O.2   150  GLU150     -0.2867
     73  CB        33.0550   12.4170   25.9550 C.3   150  GLU150      0.0388
     74  CG        34.3700   12.1490   25.1940 C.3   150  GLU150      0.1160
     75  CD        35.6140   12.9670   25.5940 C.2   150  GLU150      0.3649
     76  OE1       35.7810   13.3350   26.7880 O.co2 150  GLU150     -0.2457
     77  OE2       36.4780   13.2380   24.6980 O.co2 150  GLU150     -0.2457
     78  N         35.4750   19.0430   24.8280 N.3   154  ARG154     -0.1231
     79  CA        36.3230   19.3100   23.6370 C.3   154  ARG154      0.1694
     80  C         36.1550   20.7180   23.1120 C.2   154  ARG154      0.2592
     81  O         35.0780   21.3260   23.2320 O.2   154  ARG154     -0.2718
     82  CB        35.9560   18.4000   22.4780 C.3   154  ARG154      0.0321
     83  CG        35.6220   17.0090   22.8780 C.3   154  ARG154      0.0489
     84  CD        35.4660   16.1280   21.6880 C.3   154  ARG154      0.2205
     85  NE        35.9150   14.7840   22.0310 N.pl3 154  ARG154     -0.0865
     86  CZ        35.9590   13.7490   21.1960 C.cat 154  ARG154      0.5346
     87  NH1       35.5880   13.8660   19.9340 N.pl3 154  ARG154      0.1354
     88  NH2       36.3860   12.5780   21.6400 N.pl3 154  ARG154      0.1354
     89  N         37.1860   21.2090   22.4410 N.am  155  LYS155     -0.1966
     90  CA        37.0650   22.4960   21.7980 C.3   155  LYS155      0.1728
     91  C         36.1070   22.3700   20.5970 C.2   155  LYS155      0.2616
     92  O         36.0190   21.2890   19.9710 O.2   155  LYS155     -0.2715
     93  CB        38.4290   23.0220   21.3680 C.3   155  LYS155      0.0311
     94  CG        38.4270   24.5500   21.2310 C.3   155  LYS155      0.0038
     95  CD        39.0600   25.0520   19.9360 C.3   155  LYS155      0.0206
     96  CE        38.6970   26.5120   19.6840 C.3   155  LYS155      0.1093
     97  NZ        39.2880   26.9810   18.4060 N.3   155  LYS155     -0.1314
     98  N         35.3900   23.4480   20.2790 N.am  156  GLY156     -0.1955
     99  CA        34.6140   23.4910   19.0320 C.3   156  GLY156      0.1869
    100  C         33.1980   24.0250   19.0670 C.2   156  GLY156      0.2309
    101  O         32.5780   24.1590   18.0090 O.2   156  GLY156     -0.2863
    102  N         32.7150    5.8650   19.8570 N.3   192  VAL192     -0.1245
    103  CA        34.0460    6.4360   19.9090 C.3   192  VAL192      0.1561
    104  C         34.3690    6.9820   21.2860 C.2   192  VAL192      0.2260
    105  O         35.4180    7.6410   21.4340 O.2   192  VAL192     -0.2867
    106  CB        34.3130    7.5360   18.8080 C.3   192  VAL192      0.0252
    107  CG1       33.9700    6.9850   17.4310 C.3   192  VAL192      0.0019
    108  CG2       33.5500    8.8310   19.0690 C.3   192  VAL192      0.0019
    109  N         38.2380    6.8190   23.0040 N.3   195  LYS195     -0.1231
    110  CA        39.1570    6.4410   21.9610 C.3   195  LYS195      0.1693
    111  C         39.8980    7.6480   21.5110 C.2   195  LYS195      0.2593
    112  O         39.3110    8.6910   21.3640 O.2   195  LYS195     -0.2718
    113  CB        38.4120    5.7760   20.8140 C.3   195  LYS195      0.0285
    114  CG        38.2990    4.2730   21.0430 C.3   195  LYS195      0.0035
    115  CD        37.3280    3.5640   20.1180 C.3   195  LYS195      0.0206
    116  CE        36.3760    2.6650   20.9160 C.3   195  LYS195      0.1093
    117  NZ        35.4920    1.8610   20.0230 N.3   195  LYS195     -0.1314
    118  N         41.2080    7.5260   21.3350 N.am  196  THR196     -0.1939
    119  CA        42.0260    8.6180   20.7640 C.3   196  THR196      0.2028
    120  C         41.7190    8.7840   19.2780 C.2   196  THR196      0.2642
    121  O         41.0730    7.9130   18.6230 O.2   196  THR196     -0.2714
    122  CB        43.5500    8.3220   20.8440 C.3   196  THR196      0.1808
    123  OG1       43.8610    7.1770   20.0360 O.3   196  THR196     -0.2208
    124  CG2       43.9860    8.0900   22.2870 C.3   196  THR196      0.0379
    125  N         42.2140    9.8920   18.7430 N.am  197  ILE197     -0.1977
    126  CA        42.2010   10.0950   17.3100 C.3   197  ILE197      0.1596
    127  C         42.6250    8.8260   16.5060 C.2   197  ILE197      0.2287
    128  O         41.8660    8.3740   15.6260 O.2   197  ILE197     -0.2864
    129  CB        43.0150   11.3220   16.9180 C.3   197  ILE197      0.0276
    130  CG1       42.2540   12.5850   17.3390 C.3   197  ILE197      0.0022
    131  CG2       43.2540   11.3020   15.4020 C.3   197  ILE197      0.0022
    132  CD1       42.9480   13.9060   17.0850 C.3   197  ILE197      0.0001
    133  N         40.3850    5.6730   16.6860 N.3   200  VAL200     -0.1245
    134  CA        39.1860    5.8610   15.8850 C.3   200  VAL200      0.1561
    135  C         39.4760    5.5920   14.3950 C.2   200  VAL200      0.2260
    136  O         38.7510    4.8030   13.7380 O.2   200  VAL200     -0.2867
    137  CB        38.5550    7.2610   16.0920 C.3   200  VAL200      0.0252
    138  CG1       37.4290    7.5090   15.0690 C.3   200  VAL200      0.0019
    139  CG2       37.9690    7.3840   17.4950 C.3   200  VAL200      0.0019
@<TRIPOS>BOND
     1    61    62    1
     2    64    63    2
     3    62    63    1
     4    62    65    1
     5    65    66    1
     6    55    54    2
     7    66    68   ar
     8    66    67   ar
     9    54    53    1
    10    42    41    2
    11    33    32    2
    12    40    43    1
    13    40    41    1
    14    40    39    1
    15    48    47    2
    16    43    44    1
    17    41    45   am
    18    53    56    1
    19    53    52    1
    20    32    39   am
    21    32    31    1
    22    56    57    1
    23    47    52   am
    24    47    46    1
    25    34    31    1
    26    34    35    1
    27    45    46    1
    28    59    58    2
    29    36    37    1
    30    36    35    1
    31    46    49    1
    32    37    38    1
    33    31    30    1
    34    57    58    1
    35    58    60   am
    36    29    28    2
    37    30    28   am
    38    49    51    1
    39    49    50    1
    40   136   135    2
    41    28    27    1
    42   135   134    1
    43   138   137    1
    44   131   129    1
    45   128   127    2
    46    27    26    1
    47   134   137    1
    48   134   133    1
    49     7     6   ar
    50    25    24    1
    51   137   139    1
    52    26    22   am
    53   127   126    1
    54     1     2    1
    55     2     5    1
    56     2     3    1
    57   129   126    1
    58   129   130    1
    59   132   130    1
    60    22    23    2
    61    22    21    1
    62     6     5    1
    63     6     8   ar
    64   126   125    1
    65    24    21    1
    66   107   106    1
    67     9     3   am
    68     9    10    1
    69    20    21    1
    70    20    11   am
    71     3     4    2
    72   101   100    2
    73    10    11    1
    74    10    13    1
    75    97    96    1
    76    11    12    2
    77   121   120    2
    78   125   120   am
    79   106   108    1
    80   106   103    1
    81    99   100    1
    82    99    98    1
    83   120   119    1
    84    14    13    1
    85    14    15    1
    86    96    95    1
    87   102   103    1
    88   103   104    1
    89    87    86    1
    90    95    94    1
    91    92    91    2
    92   117   116    1
    93   123   122    1
    94   115   116    1
    95   115   114    1
    96    98    91   am
    97    91    90    1
    98   119   122    1
    99   119   118    1
   100    15    16    1
   101   113   114    1
   102   113   110    1
   103   122   124    1
   104    16    17    2
   105    86    88    1
   106    86    85    2
   107    94    93    1
   108   104   105    2
   109   118   111   am
   110   112   111    2
   111    93    90    1
   112   111   110    1
   113    84    85    1
   114    84    83    1
   115    90    89    1
   116   110   109    1
   117    17    19    1
   118    17    18    1
   119    89    80   am
   120    82    83    1
   121    82    79    1
   122    80    81    2
   123    80    79    1
   124    79    78    1
   125    77    75   ar
   126    74    75    1
   127    74    73    1
   128    72    71    2
   129    71    70    1
   130    75    76   ar
   131    73    70    1
   132    70    69    1
