@<TRIPOS>MOLECULE
tmp/5uiwA05.pdb
 110 102 0 0 0
SMALL
GASTEIGER

@<TRIPOS>ATOM
      1  N       -150.2920 -100.8640  619.5700 N.3     9  ASN9       -0.1225
      2  CA      -151.2960 -101.1620  620.5840 C.3     9  ASN9        0.1785
      3  C       -150.7470 -100.9670  621.9850 C.2     9  ASN9        0.2597
      4  O       -151.3060 -100.2170  622.7870 O.2     9  ASN9       -0.2718
      5  CB      -151.8170 -102.5850  620.4230 C.3     9  ASN9        0.1169
      6  CG      -152.7920 -102.7170  619.2750 C.2     9  ASN9        0.2627
      7  OD1     -153.3300 -101.7240  618.7810 O.2     9  ASN9       -0.2716
      8  ND2     -153.0270 -103.9480  618.8410 N.am    9  ASN9       -0.0877
      9  N       -149.6410 -101.6490  622.2610 N.am   10  VAL10      -0.1980
     10  CA      -148.9520 -101.5680  623.5420 C.3    10  VAL10       0.1595
     11  C       -148.7340 -100.1320  623.9990 C.2    10  VAL10       0.2287
     12  O       -148.9310  -99.7990  625.1660 O.2    10  VAL10      -0.2864
     13  CB      -147.5960 -102.2690  623.4640 C.3    10  VAL10       0.0276
     14  CG1     -146.9240 -102.2980  624.8280 C.3    10  VAL10       0.0022
     15  CG2     -147.7760 -103.6670  622.8950 C.3    10  VAL10       0.0022
     16  N       -152.2790  -98.3970  624.7130 N.3    13  ILE13      -0.1231
     17  CA      -152.8250  -98.9160  625.9530 C.3    13  ILE13       0.1692
     18  C       -152.0790  -98.3270  627.1460 C.2    13  ILE13       0.2591
     19  O       -152.6940  -97.8450  628.1090 O.2    13  ILE13      -0.2718
     20  CB      -152.7610 -100.4470  625.9860 C.3    13  ILE13       0.0266
     21  CG1     -153.8710 -101.0090  625.0980 C.3    13  ILE13       0.0019
     22  CG2     -152.8990 -100.9580  627.4160 C.3    13  ILE13       0.0020
     23  CD1     -153.7590 -102.4880  624.8150 C.3    13  ILE13       0.0001
     24  N       -150.7510  -98.3530  627.0670 N.am   14  ALA14      -0.1980
     25  CA      -149.9000  -97.8080  628.1190 C.3    14  ALA14       0.1597
     26  C       -150.1990  -96.3400  628.3900 C.2    14  ALA14       0.2287
     27  O       -150.1330  -95.8930  629.5290 O.2    14  ALA14      -0.2864
     28  CB      -148.4310  -97.9800  627.7530 C.3    14  ALA14       0.0319
     29  N       -153.4640  -96.4060  630.6220 N.3    17  LEU17      -0.1231
     30  CA      -153.3280  -97.0530  631.9220 C.3    17  LEU17       0.1693
     31  C       -152.3190  -96.3940  632.8680 C.2    17  LEU17       0.2591
     32  O       -152.6360  -96.1220  634.0230 O.2    17  LEU17      -0.2718
     33  CB      -152.9340  -98.5110  631.7300 C.3    17  LEU17       0.0284
     34  CG      -154.0240  -99.4150  631.1770 C.3    17  LEU17       0.0019
     35  CD1     -153.5430 -100.8500  631.1730 C.3    17  LEU17       0.0001
     36  CD2     -155.2850  -99.2580  632.0000 C.3    17  LEU17       0.0001
     37  N       -151.1040  -96.1510  632.3790 N.am   18  LEU18      -0.1980
     38  CA      -149.9930  -95.7660  633.2510 C.3    18  LEU18       0.1596
     39  C       -150.1470  -94.4160  633.9710 C.2    18  LEU18       0.2287
     40  O       -149.8460  -94.3370  635.1660 O.2    18  LEU18      -0.2864
     41  CB      -148.6780  -95.7760  632.4580 C.3    18  LEU18       0.0297
     42  CG      -148.2160  -97.1410  631.9350 C.3    18  LEU18       0.0022
     43  CD1     -146.7680  -97.0780  631.4880 C.3    18  LEU18       0.0001
     44  CD2     -148.3860  -98.2300  632.9830 C.3    18  LEU18       0.0001
     45  N       -152.2400  -94.6500  637.1730 N.3    21  LEU21      -0.1245
     46  CA      -151.5550  -95.5740  638.0670 C.3    21  LEU21       0.1561
     47  C       -150.3560  -94.9190  638.7410 C.2    21  LEU21       0.2260
     48  O       -150.2440  -94.9250  639.9690 O.2    21  LEU21      -0.2867
     49  CB      -151.0980  -96.8210  637.3100 C.3    21  LEU21       0.0270
     50  CG      -150.2940  -97.7870  638.1810 C.3    21  LEU21       0.0019
     51  CD1     -151.1000  -98.1900  639.4200 C.3    21  LEU21       0.0001
     52  CD2     -149.8950  -99.0120  637.3850 C.3    21  LEU21       0.0001
     53  N       -141.6140 -107.5660  643.7150 N.3   283  PHE283     -0.1241
     54  CA      -141.9230 -106.4540  642.8340 C.3   283  PHE283      0.1605
     55  C       -140.8820 -106.2250  641.7540 C.2   283  PHE283      0.2264
     56  O       -141.1960 -105.6290  640.7280 O.2   283  PHE283     -0.2867
     57  CB      -142.1060 -105.1730  643.6510 C.3   283  PHE283      0.0534
     58  CG      -143.4700 -105.0390  644.2620 C.ar  283  PHE283     -0.0203
     59  CD1     -143.8030 -105.7380  645.4120 C.ar  283  PHE283     -0.0042
     60  CD2     -144.4230 -104.2180  643.6820 C.ar  283  PHE283     -0.0042
     61  CE1     -145.0590 -105.6120  645.9760 C.ar  283  PHE283     -0.0003
     62  CE2     -145.6880 -104.0930  644.2430 C.ar  283  PHE283     -0.0003
     63  CZ      -146.0030 -104.7900  645.3910 C.ar  283  PHE283     -0.0000
     64  N       -144.3750 -106.1910  625.8560 N.3   313  GLN313     -0.1245
     65  CA      -145.5210 -106.1400  626.7600 C.3   313  GLN313      0.1566
     66  C       -145.1260 -106.6070  628.1470 C.2   313  GLN313      0.2260
     67  O       -145.3990 -105.9340  629.1400 O.2   313  GLN313     -0.2867
     68  CB      -146.6760 -106.9910  626.2290 C.3   313  GLN313      0.0367
     69  CG      -147.3050 -106.4340  624.9590 C.3   313  GLN313      0.0905
     70  CD      -148.4070 -107.3190  624.4090 C.2   313  GLN313      0.2608
     71  OE1     -148.9350 -108.1850  625.1090 O.2   313  GLN313     -0.2717
     72  NE2     -148.7560 -107.1090  623.1450 N.am  313  GLN313     -0.0878
     73  N       -142.8660 -104.0090  629.8840 N.3   316  GLN316     -0.1231
     74  CA      -143.5330 -102.8200  630.3790 C.3   316  GLN316      0.1698
     75  C       -144.3750 -103.1380  631.6080 C.2   316  GLN316      0.2592
     76  O       -144.4990 -102.3120  632.5200 O.2   316  GLN316     -0.2718
     77  CB      -144.4140 -102.1940  629.3060 C.3   316  GLN316      0.0381
     78  CG      -144.9280 -100.8280  629.7060 C.3   316  GLN316      0.0905
     79  CD      -143.7970  -99.9230  630.1450 C.2   316  GLN316      0.2608
     80  OE1     -142.9230  -99.5790  629.3490 O.2   316  GLN316     -0.2717
     81  NE2     -143.7940  -99.5470  631.4200 N.am  316  GLN316     -0.0878
     82  N       -144.9640 -104.3280  631.6300 N.am  317  VAL317     -0.1980
     83  CA      -145.7940 -104.7000  632.7580 C.3   317  VAL317      0.1595
     84  C       -144.9120 -104.8360  633.9840 C.2   317  VAL317      0.2287
     85  O       -145.2280 -104.2970  635.0420 O.2   317  VAL317     -0.2864
     86  CB      -146.5730 -106.0040  632.5020 C.3   317  VAL317      0.0276
     87  CG1     -147.1960 -106.5230  633.7860 C.3   317  VAL317      0.0022
     88  CG2     -147.6620 -105.7650  631.4780 C.3   317  VAL317      0.0022
     89  N       -143.3600 -101.5960  635.2350 N.3   320  THR320     -0.1203
     90  CA      -144.3980 -100.8380  635.9120 C.3   320  THR320      0.1994
     91  C       -144.6350 -101.3640  637.3300 C.2   320  THR320      0.2617
     92  O       -144.7640 -100.5920  638.2760 O.2   320  THR320     -0.2717
     93  CB      -145.7060 -100.8810  635.1000 C.3   320  THR320      0.1784
     94  OG1     -145.5050 -100.2070  633.8550 O.3   320  THR320     -0.2211
     95  CG2     -146.8450 -100.2110  635.8510 C.3   320  THR320      0.0376
     96  N       -144.6900 -102.6810  637.4710 N.am  321  LEU321     -0.1979
     97  CA      -144.7870 -103.3040  638.7790 C.3   321  LEU321      0.1596
     98  C       -143.6660 -102.8130  639.6840 C.2   321  LEU321      0.2287
     99  O       -143.9140 -102.3730  640.8020 O.2   321  LEU321     -0.2864
    100  CB      -144.7380 -104.8220  638.6520 C.3   321  LEU321      0.0297
    101  CG      -144.7610 -105.6150  639.9560 C.3   321  LEU321      0.0022
    102  CD1     -146.0660 -105.4010  640.7080 C.3   321  LEU321      0.0001
    103  CD2     -144.5550 -107.0890  639.6540 C.3   321  LEU321      0.0001
    104  N       -144.2020  -99.3480  640.9660 N.3   324  THR324     -0.1218
    105  CA      -145.1710  -99.1680  642.0420 C.3   324  THR324      0.1862
    106  C       -144.5740  -99.4770  643.4090 C.2   324  THR324      0.2287
    107  O       -145.1460  -99.0990  644.4370 O.2   324  THR324     -0.2866
    108  CB      -146.4200 -100.0460  641.8500 C.3   324  THR324      0.1770
    109  OG1     -146.0790 -101.4270  642.0300 O.3   324  THR324     -0.2211
    110  CG2     -147.0220  -99.8300  640.4630 C.3   324  THR324      0.0375
@<TRIPOS>BOND
     1     7     6    2
     2     8     6   am
     3     6     5    1
     4     1     2    1
     5     5     2    1
     6     2     3    1
     7     3     9   am
     8     3     4    2
     9     9    10    1
    10    15    13    1
    11    72    70   am
    12    13    10    1
    13    13    14    1
    14    10    11    1
    15    11    12    2
    16    70    69    1
    17    70    71    2
    18    16    17    1
    19    23    21    1
    20    69    68    1
    21    21    20    1
    22    64    65    1
    23    17    20    1
    24    17    18    1
    25    20    22    1
    26    68    65    1
    27    65    66    1
    28    24    18   am
    29    24    25    1
    30    18    19    2
    31    28    25    1
    32    25    26    1
    33    66    67    2
    34    26    27    2
    35    77    78    1
    36    77    74    1
    37    80    79    2
    38    78    79    1
    39    73    74    1
    40    79    81   am
    41    74    75    1
    42    29    30    1
    43    35    34    1
    44    34    33    1
    45    34    36    1
    46    88    86    1
    47    43    42    1
    48    75    82   am
    49    75    76    2
    50    82    83    1
    51    33    30    1
    52    30    31    1
    53    42    41    1
    54    42    44    1
    55    37    31   am
    56    37    38    1
    57    41    38    1
    58    86    83    1
    59    86    87    1
    60    83    84    1
    61    31    32    2
    62    38    39    1
    63    94    93    1
    64    39    40    2
    65    84    85    2
    66    93    95    1
    67    93    90    1
    68    89    90    1
    69    90    91    1
    70    45    46    1
    71    49    46    1
    72    49    50    1
    73    91    96   am
    74    91    92    2
    75    52    50    1
    76    96    97    1
    77    46    47    1
    78    50    51    1
    79   100    97    1
    80   100   101    1
    81    47    48    2
    82    97    98    1
    83   103   101    1
    84    98    99    2
    85   101   102    1
    86   110   108    1
    87    56    55    2
    88   104   105    1
    89    55    54    1
    90   108   109    1
    91   108   105    1
    92   105   106    1
    93    54    57    1
    94    54    53    1
    95   106   107    2
    96    57    58    1
    97    60    62   ar
    98    60    58   ar
    99    62    63   ar
   100    58    59   ar
   101    63    61   ar
   102    59    61   ar
