@<TRIPOS>MOLECULE
tmp/5uiwA02.pdb
 99 92 0 0 0
SMALL
GASTEIGER

@<TRIPOS>ATOM
      1  N       -138.2070 -108.5470  646.2310 N.3   281  PHE281     -0.1227
      2  CA      -138.0540 -109.5460  645.1640 C.3   281  PHE281      0.1736
      3  C       -139.3670 -109.8470  644.4560 C.2   281  PHE281      0.2595
      4  O       -139.3700 -110.2680  643.3080 O.2   281  PHE281     -0.2718
      5  CB      -137.4780 -110.8530  645.7050 C.3   281  PHE281      0.0547
      6  CG      -136.0400 -110.7620  646.1050 C.ar  281  PHE281     -0.0202
      7  CD1     -135.1540 -109.9900  645.3790 C.ar  281  PHE281     -0.0042
      8  CD2     -135.5780 -111.4370  647.2250 C.ar  281  PHE281     -0.0042
      9  CE1     -133.8300 -109.9030  645.7540 C.ar  281  PHE281     -0.0003
     10  CE2     -134.2560 -111.3530  647.6070 C.ar  281  PHE281     -0.0003
     11  CZ      -133.3780 -110.5850  646.8680 C.ar  281  PHE281     -0.0000
     12  N       -140.4880 -109.6470  645.1330 N.am  282  LEU282     -0.1980
     13  CA      -141.7740 -109.8540  644.4790 C.3   282  LEU282      0.1596
     14  C       -142.0120 -108.7960  643.4120 C.2   282  LEU282      0.2287
     15  O       -142.5320 -109.0880  642.3290 O.2   282  LEU282     -0.2864
     16  CB      -142.9130 -109.8330  645.4940 C.3   282  LEU282      0.0297
     17  CG      -142.9570 -111.0310  646.4410 C.3   282  LEU282      0.0022
     18  CD1     -144.2430 -111.0240  647.2810 C.3   282  LEU282      0.0001
     19  CD2     -142.8000 -112.3390  645.6610 C.3   282  LEU282      0.0001
     20  N       -137.9430 -108.7270  640.9210 N.3   285  ALA285     -0.1231
     21  CA      -137.3720 -109.8810  640.2330 C.3   285  ALA285      0.1679
     22  C       -138.0190 -110.1310  638.8710 C.2   285  ALA285      0.2434
     23  O       -137.3290 -110.5500  637.9520 O.2   285  ALA285     -0.2733
     24  CB      -137.4740 -111.1260  641.0900 C.3   285  ALA285      0.0304
     25  N       -139.3440 -109.9020  638.7290 N.am  286  PRO286     -0.2729
     26  CA      -139.8530 -110.1290  637.3710 C.3   286  PRO286      0.1401
     27  C       -139.2000 -109.2240  636.3260 C.2   286  PRO286      0.2269
     28  O       -138.8310 -109.7000  635.2570 O.2   286  PRO286     -0.2865
     29  CB      -141.3510 -109.8230  637.5040 C.3   286  PRO286      0.0296
     30  CG      -141.6630 -110.1150  638.9230 C.3   286  PRO286      0.0237
     31  CD      -140.4470 -109.7280  639.6980 C.3   286  PRO286      0.0939
     32  N       -135.6410 -110.3900  635.3920 N.3   289  ILE289     -0.1231
     33  CA      -135.6850 -111.5920  634.5720 C.3   289  ILE289      0.1692
     34  C       -136.0220 -111.2460  633.1230 C.2   289  ILE289      0.2591
     35  O       -135.3130 -111.6520  632.2030 O.2   289  ILE289     -0.2718
     36  CB      -136.7000 -112.6110  635.1220 C.3   289  ILE289      0.0266
     37  CG1     -136.1840 -113.1870  636.4400 C.3   289  ILE289      0.0019
     38  CG2     -136.9140 -113.7190  634.1220 C.3   289  ILE289      0.0020
     39  CD1     -137.2580 -113.8420  637.2650 C.3   289  ILE289      0.0001
     40  N       -137.0860 -110.4730  632.9310 N.am  290  VAL290     -0.1980
     41  CA      -137.4960 -110.0320  631.6010 C.3   290  VAL290      0.1595
     42  C       -136.3860 -109.2030  630.9420 C.2   290  VAL290      0.2287
     43  O       -136.2320 -109.2000  629.7200 O.2   290  VAL290     -0.2864
     44  CB      -138.8210 -109.2240  631.6690 C.3   290  VAL290      0.0276
     45  CG1     -139.2210 -108.7140  630.3010 C.3   290  VAL290      0.0022
     46  CG2     -139.9310 -110.0940  632.2320 C.3   290  VAL290      0.0022
     47  N       -134.0560 -111.7030  629.4690 N.3   293  LEU293     -0.1245
     48  CA      -134.6460 -112.2890  628.2750 C.3   293  LEU293      0.1561
     49  C       -134.5220 -111.3590  627.0730 C.2   293  LEU293      0.2260
     50  O       -134.2770 -111.8080  625.9580 O.2   293  LEU293     -0.2867
     51  CB      -136.1140 -112.6290  628.5200 C.3   293  LEU293      0.0270
     52  CG      -136.4110 -113.9840  629.1580 C.3   293  LEU293      0.0019
     53  CD1     -137.8790 -114.0870  629.5180 C.3   293  LEU293      0.0001
     54  CD2     -136.0320 -115.0930  628.1970 C.3   293  LEU293      0.0001
     55  N       -135.9850 -114.8580  620.2810 N.3   302  LEU302     -0.1245
     56  CA      -137.1280 -113.9740  620.4370 C.3   302  LEU302      0.1561
     57  C       -136.9600 -112.6890  619.6340 C.2   302  LEU302      0.2260
     58  O       -137.7740 -111.7740  619.7620 O.2   302  LEU302     -0.2867
     59  CB      -137.3390 -113.6380  621.9140 C.3   302  LEU302      0.0270
     60  CG      -138.2490 -114.5230  622.7710 C.3   302  LEU302      0.0019
     61  CD1     -138.0850 -115.9910  622.4270 C.3   302  LEU302      0.0001
     62  CD2     -137.9450 -114.3010  624.2440 C.3   302  LEU302      0.0001
     63  N       -142.4580 -111.6950  618.2500 N.3   307  SER307     -0.1217
     64  CA      -141.9520 -112.1790  619.5350 C.3   307  SER307      0.1889
     65  C       -141.5280 -111.0350  620.4460 C.2   307  SER307      0.2288
     66  O       -141.8250 -111.0350  621.6440 O.2   307  SER307     -0.2866
     67  CB      -140.7680 -113.1260  619.3340 C.3   307  SER307      0.2089
     68  OG      -141.1450 -114.2730  618.6040 O.3   307  SER307     -0.2183
     69  N       -144.3670 -109.2020  622.1880 N.3   310  ARG310     -0.1231
     70  CA      -144.8310 -109.8860  623.3830 C.3   310  ARG310      0.1694
     71  C       -143.8220 -109.6800  624.5000 C.2   310  ARG310      0.2591
     72  O       -144.1910 -109.4940  625.6560 O.2   310  ARG310     -0.2718
     73  CB      -145.0450 -111.3720  623.1160 C.3   310  ARG310      0.0321
     74  CG      -146.2220 -111.6620  622.2000 C.3   310  ARG310      0.0489
     75  CD      -146.5650 -113.1450  622.1980 C.3   310  ARG310      0.2205
     76  NE      -145.4520 -113.9420  621.6930 N.pl3 310  ARG310     -0.0865
     77  CZ      -145.2180 -114.1700  620.4020 C.cat 310  ARG310      0.5346
     78  NH1     -146.0230 -113.6590  619.4760 N.pl3 310  ARG310      0.1354
     79  NH2     -144.1730 -114.9030  620.0360 N.pl3 310  ARG310      0.1354
     80  N       -142.5440 -109.6870  624.1410 N.am  311  LEU311     -0.1980
     81  CA      -141.4790 -109.4420  625.1010 C.3   311  LEU311      0.1596
     82  C       -141.6150 -108.0400  625.6640 C.2   311  LEU311      0.2287
     83  O       -141.4580 -107.8270  626.8660 O.2   311  LEU311     -0.2864
     84  CB      -140.1100 -109.6280  624.4470 C.3   311  LEU311      0.0297
     85  CG      -138.9120 -109.8660  625.3630 C.3   311  LEU311      0.0022
     86  CD1     -139.2990 -110.7690  626.5080 C.3   311  LEU311      0.0001
     87  CD2     -137.7880 -110.5000  624.5620 C.3   311  LEU311      0.0001
     88  N       -144.4710 -107.7610  628.2100 N.3   314  ALA314     -0.1245
     89  CA      -143.9670 -108.2890  629.4740 C.3   314  ALA314      0.1562
     90  C       -143.0310 -107.2910  630.1630 C.2   314  ALA314      0.2260
     91  O       -143.1180 -107.0780  631.3740 O.2   314  ALA314     -0.2867
     92  CB      -143.2500 -109.6030  629.2420 C.3   314  ALA314      0.0290
     93  N       -143.7830 -105.5210  633.8390 N.3   318  THR318     -0.1218
     94  CA      -142.9340 -105.7880  634.9940 C.3   318  THR318      0.1862
     95  C       -142.1170 -104.5720  635.4170 C.2   318  THR318      0.2287
     96  O       -141.7780 -104.4260  636.5950 O.2   318  THR318     -0.2866
     97  CB      -141.9810 -106.9640  634.7430 C.3   318  THR318      0.1770
     98  OG1     -141.1220 -106.6650  633.6360 O.3   318  THR318     -0.2211
     99  CG2     -142.7610 -108.2110  634.4520 C.3   318  THR318      0.0375
@<TRIPOS>BOND
     1    63    64    1
     2    68    67    1
     3    67    64    1
     4    78    77    1
     5    64    65    1
     6    57    58    2
     7    57    56    1
     8    79    77    1
     9    55    56    1
    10    77    76    2
    11    56    59    1
    12    65    66    2
    13    76    75    1
    14    59    60    1
    15    69    70    1
    16    75    74    1
    17    74    73    1
    18    61    60    1
    19    60    62    1
    20    73    70    1
    21    70    71    1
    22    80    71   am
    23    80    81    1
    24    84    81    1
    25    84    85    1
    26    71    72    2
    27    87    85    1
    28    81    82    1
    29    85    86    1
    30    82    83    2
    31    50    49    2
    32    49    48    1
    33    54    52    1
    34    88    89    1
    35    48    51    1
    36    48    47    1
    37    51    52    1
    38    52    53    1
    39    92    89    1
    40    89    90    1
    41    43    42    2
    42    90    91    2
    43    45    44    1
    44    42    41    1
    45    41    44    1
    46    41    40    1
    47    44    46    1
    48    35    34    2
    49    40    34   am
    50    34    33    1
    51    98    97    1
    52    93    94    1
    53    38    36    1
    54    99    97    1
    55    33    36    1
    56    33    32    1
    57    97    94    1
    58    94    95    1
    59    36    37    1
    60    28    27    2
    61    95    96    2
    62    27    26    1
    63    37    39    1
    64    26    29    1
    65    26    25    1
    66    29    30    1
    67    23    22    2
    68    25    22   am
    69    25    31    1
    70    22    21    1
    71    30    31    1
    72    21    20    1
    73    21    24    1
    74    15    14    2
    75     4     3    2
    76    14    13    1
    77     3    12   am
    78     3     2    1
    79    13    12    1
    80    13    16    1
    81     2     5    1
    82     2     1    1
    83     7     9   ar
    84     7     6   ar
    85    16    17    1
    86    19    17    1
    87     5     6    1
    88     9    11   ar
    89     6     8   ar
    90    17    18    1
    91    11    10   ar
    92     8    10   ar
