@<TRIPOS>MOLECULE
tmp/5uj2C00.pdb
 148 138 0 0 0
SMALL
GASTEIGER

@<TRIPOS>ATOM
      1  N         40.0020  -31.3840    4.7970 N.3    49  ARG49      -0.1245
      2  CA        39.8760  -32.8130    4.4890 C.3    49  ARG49       0.1563
      3  C         38.6640  -33.0670    3.6000 C.2    49  ARG49       0.2260
      4  O         38.7360  -33.8410    2.6400 O.2    49  ARG49      -0.2867
      5  CB        39.7750  -33.6490    5.7600 C.3    49  ARG49       0.0307
      6  CG        39.5760  -35.1510    5.5250 C.3    49  ARG49       0.0489
      7  CD        40.8510  -35.8820    5.1290 C.3    49  ARG49       0.2205
      8  NE        40.5660  -37.2660    4.7420 N.pl3  49  ARG49      -0.0865
      9  CZ        41.4830  -38.1690    4.3870 C.cat  49  ARG49       0.5346
     10  NH1       42.7670  -37.8480    4.3780 N.pl3  49  ARG49       0.1354
     11  NH2       41.1180  -39.4050    4.0320 N.pl3  49  ARG49       0.1354
     12  N         39.0670  -37.2460   13.1320 N.3   142  LYS142     -0.1245
     13  CA        39.8950  -38.0570   14.0160 C.3   142  LYS142      0.1561
     14  C         41.1030  -37.2540   14.4900 C.2   142  LYS142      0.2260
     15  O         41.6720  -36.4620   13.7380 O.2   142  LYS142     -0.2867
     16  CB        40.3350  -39.3480   13.3210 C.3   142  LYS142      0.0271
     17  CG        40.9580  -40.3650   14.2650 C.3   142  LYS142      0.0035
     18  CD        41.1680  -41.7220   13.6020 C.3   142  LYS142      0.0206
     19  CE        41.7750  -42.7360   14.5770 C.3   142  LYS142      0.1093
     20  NZ        40.9770  -42.9300   15.8280 N.3   142  LYS142     -0.1314
     21  N         44.8050  -37.5360   15.3790 N.3   144  GLU144     -0.1245
     22  CA        45.9750  -38.4120   15.2420 C.3   144  GLU144      0.1567
     23  C         47.2580  -37.5980   15.2740 C.2   144  GLU144      0.2260
     24  O         47.2840  -36.4700   14.7780 O.2   144  GLU144     -0.2867
     25  CB        45.9200  -39.1620   13.9150 C.3   144  GLU144      0.0388
     26  CG        44.9940  -40.3590   13.9010 C.3   144  GLU144      0.1160
     27  CD        44.8090  -40.9670   12.5160 C.2   144  GLU144      0.3649
     28  OE1       44.3820  -40.2530   11.5680 O.co2 144  GLU144     -0.2457
     29  OE2       45.0640  -42.1760   12.3900 O.co2 144  GLU144     -0.2457
     30  N         41.5900  -36.9580    9.2960 N.3   159  ARG159     -0.1245
     31  CA        40.6960  -37.9460    8.6990 C.3   159  ARG159      0.1563
     32  C         39.2770  -37.7230    9.2050 C.2   159  ARG159      0.2260
     33  O         39.0810  -37.2870   10.3380 O.2   159  ARG159     -0.2867
     34  CB        41.1460  -39.3500    9.0790 C.3   159  ARG159      0.0307
     35  CG        40.3060  -40.4490    8.4730 C.3   159  ARG159      0.0489
     36  CD        40.8560  -41.8360    8.7710 C.3   159  ARG159      0.2205
     37  NE        42.0870  -42.1540    8.0510 N.pl3 159  ARG159     -0.0865
     38  CZ        42.1670  -42.4140    6.7450 C.cat 159  ARG159      0.5346
     39  NH1       41.0980  -42.3670    5.9560 N.pl3 159  ARG159      0.1354
     40  NH2       43.3390  -42.7200    6.2080 N.pl3 159  ARG159      0.1354
     41  N         35.7070  -39.2920   10.2160 N.3   161  ILE161     -0.1245
     42  CA        35.0920  -40.5100   10.6690 C.3   161  ILE161      0.1561
     43  C         33.6000  -40.2810   10.6440 C.2   161  ILE161      0.2260
     44  O         33.1290  -39.2640   11.1390 O.2   161  ILE161     -0.2867
     45  CB        35.5820  -40.8610   12.0840 C.3   161  ILE161      0.0252
     46  CG1       37.0980  -41.1190   12.0600 C.3   161  ILE161      0.0019
     47  CG2       34.8600  -42.0770   12.6460 C.3   161  ILE161      0.0019
     48  CD1       37.5310  -42.2660   11.1670 C.3   161  ILE161      0.0001
     49  N         48.0330  -48.4930   -3.5580 N.3   221  ASP221     -0.1225
     50  CA        47.1570  -47.9240   -2.5450 C.3   221  ASP221      0.1805
     51  C         46.2330  -46.9790   -3.2760 C.2   221  ASP221      0.2598
     52  O         46.5960  -46.4400   -4.3120 O.2   221  ASP221     -0.2718
     53  CB        47.9400  -47.1540   -1.4700 C.3   221  ASP221      0.1424
     54  CG        47.0420  -46.6740   -0.3140 C.2   221  ASP221      0.3668
     55  OD1       46.7220  -47.4990    0.5800 O.co2 221  ASP221     -0.2456
     56  OD2       46.6570  -45.4770   -0.3130 O.co2 221  ASP221     -0.2456
     57  N         45.0390  -46.7810   -2.7420 N.am  222  THR222     -0.1953
     58  CA        44.0690  -45.9270   -3.3860 C.3   222  THR222      0.1897
     59  C         43.9290  -44.6480   -2.5780 C.2   222  THR222      0.2313
     60  O         43.9610  -44.6650   -1.3500 O.2   222  THR222     -0.2863
     61  CB        42.7320  -46.6500   -3.5400 C.3   222  THR222      0.1794
     62  OG1       42.9270  -47.8460   -4.3120 O.3   222  THR222     -0.2208
     63  CG2       41.7420  -45.7750   -4.2350 C.3   222  THR222      0.0378
     64  N         42.2390  -41.8290   -0.8480 N.3   224  HIS224     -0.1226
     65  CA        40.9390  -41.6410   -0.2120 C.3   224  HIS224      0.1752
     66  C         39.9950  -42.7520   -0.6230 C.2   224  HIS224      0.2596
     67  O         38.9310  -42.4860   -1.1950 O.2   224  HIS224     -0.2718
     68  CB        40.3460  -40.2920   -0.6090 C.3   224  HIS224      0.0759
     69  CG        41.2870  -39.1490   -0.4230 C.ar  224  HIS224      0.0818
     70  ND1       42.0690  -39.0070    0.7030 N.ar  224  HIS224     -0.2268
     71  CD2       41.5640  -38.0840   -1.2120 C.ar  224  HIS224      0.1154
     72  CE1       42.7970  -37.9090    0.5930 C.ar  224  HIS224      0.1986
     73  NE2       42.5070  -37.3290   -0.5580 N.ar  224  HIS224     -0.2212
     74  N         40.3910  -43.9930   -0.3510 N.am  225  PHE225     -0.1962
     75  CA        39.6450  -45.1570   -0.8400 C.3   225  PHE225      0.1771
     76  C         38.1820  -45.1410   -0.4600 C.2   225  PHE225      0.2619
     77  O         37.3400  -45.5800   -1.2460 O.2   225  PHE225     -0.2715
     78  CB        40.2420  -46.4460   -0.3120 C.3   225  PHE225      0.0574
     79  CG        39.5030  -47.6910   -0.7460 C.ar  225  PHE225     -0.0200
     80  CD1       38.4070  -48.1430   -0.0450 C.ar  225  PHE225     -0.0042
     81  CD2       39.9430  -48.4260   -1.8390 C.ar  225  PHE225     -0.0042
     82  CE1       37.7550  -49.2980   -0.4370 C.ar  225  PHE225     -0.0003
     83  CE2       39.3000  -49.5810   -2.2360 C.ar  225  PHE225     -0.0003
     84  CZ        38.2010  -50.0220   -1.5340 C.ar  225  PHE225     -0.0000
     85  N         37.8800  -44.6640    0.7460 N.am  226  ASP226     -0.1971
     86  CA        36.4940  -44.6130    1.1830 C.3   226  ASP226      0.1709
     87  C         35.6080  -43.7230    0.2770 C.2   226  ASP226      0.2293
     88  O         34.4630  -44.0860    0.0180 O.2   226  ASP226     -0.2864
     89  CB        36.3680  -44.2900    2.6890 C.3   226  ASP226      0.1436
     90  CG        36.8060  -42.8800    3.0580 C.2   226  ASP226      0.3671
     91  OD1       37.0380  -42.0460    2.1700 O.co2 226  ASP226     -0.2456
     92  OD2       36.8990  -42.6040    4.2710 O.co2 226  ASP226     -0.2456
     93  N         31.5230  -45.1040    0.9550 N.3   281  ARG281     -0.1245
     94  CA        31.8520  -45.7620    2.2160 C.3   281  ARG281      0.1563
     95  C         31.7760  -44.8270    3.4420 C.2   281  ARG281      0.2260
     96  O         32.2770  -43.6890    3.4250 O.2   281  ARG281     -0.2867
     97  CB        33.2620  -46.3650    2.1360 C.3   281  ARG281      0.0307
     98  CG        33.6910  -47.1230    3.3830 C.3   281  ARG281      0.0489
     99  CD        32.9760  -48.4600    3.5040 C.3   281  ARG281      0.2205
    100  NE        33.6740  -49.4550    2.7090 N.pl3 281  ARG281     -0.0865
    101  CZ        33.0990  -50.3610    1.9350 C.cat 281  ARG281      0.5346
    102  NH1       33.8600  -51.2100    1.2580 N.pl3 281  ARG281      0.1354
    103  NH2       31.7810  -50.4210    1.8210 N.pl3 281  ARG281      0.1354
    104  N         33.3420  -44.7590    7.0350 N.3   283  SER283     -0.1202
    105  CA        34.4330  -45.3300    7.8030 C.3   283  SER283      0.2020
    106  C         33.9290  -46.1610    8.9810 C.2   283  SER283      0.2619
    107  O         34.4660  -47.2330    9.2710 O.2   283  SER283     -0.2717
    108  CB        35.2860  -44.2070    8.3680 C.3   283  SER283      0.2103
    109  OG        34.5500  -43.4840    9.3410 O.3   283  SER283     -0.2182
    110  N         32.8820  -45.6600    9.6400 N.am  284  GLY284     -0.1956
    111  CA        32.4230  -46.1950   10.9210 C.3   284  GLY284      0.1869
    112  C         31.6700  -47.5120   10.9800 C.2   284  GLY284      0.2309
    113  O         31.3560  -47.9790   12.0710 O.2   284  GLY284     -0.2863
    114  N         33.0780  -51.8560    6.8020 N.3   288  THR288     -0.1218
    115  CA        34.1790  -51.0270    6.3100 C.3   288  THR288      0.1862
    116  C         35.4060  -51.8500    5.9530 C.2   288  THR288      0.2287
    117  O         35.9220  -51.7420    4.8460 O.2   288  THR288     -0.2866
    118  CB        34.6290  -49.9800    7.3420 C.3   288  THR288      0.1770
    119  OG1       33.5350  -49.1250    7.6820 O.3   288  THR288     -0.2211
    120  CG2       35.7530  -49.1320    6.7720 C.3   288  THR288      0.0375
    121  N         36.0780  -53.0950    2.1860 N.3   292  ASN292     -0.1240
    122  CA        37.2500  -52.5270    1.5280 C.3   292  ASN292      0.1653
    123  C         38.1060  -53.6100    0.9180 C.2   292  ASN292      0.2266
    124  O         38.4950  -53.5280   -0.2420 O.2   292  ASN292     -0.2867
    125  CB        38.0970  -51.7230    2.5070 C.3   292  ASN292      0.1155
    126  CG        37.5070  -50.3690    2.7980 C.2   292  ASN292      0.2627
    127  OD1       36.4650  -50.0060    2.2600 O.2   292  ASN292     -0.2716
    128  ND2       38.1630  -49.6160    3.6610 N.am  292  ASN292     -0.0877
    129  N         42.7430  -54.3770    3.1680 N.3   318  GLY318     -0.1210
    130  CA        42.0060  -53.1300    2.9780 C.3   318  GLY318      0.1956
    131  C         42.2380  -52.6400    1.5680 C.2   318  GLY318      0.2612
    132  O         42.0420  -53.3990    0.6300 O.2   318  GLY318     -0.2717
    133  N         42.6770  -51.3920    1.4050 N.am  319  ASP319     -0.1959
    134  CA        42.9770  -50.8510    0.0710 C.3   319  ASP319      0.1840
    135  C         44.4550  -50.9350   -0.2540 C.2   319  ASP319      0.2622
    136  O         44.9170  -50.3040   -1.2040 O.2   319  ASP319     -0.2715
    137  CB        42.5340  -49.3990   -0.0470 C.3   319  ASP319      0.1450
    138  CG        43.5110  -48.4370    0.5780 C.2   319  ASP319      0.3671
    139  OD1       44.2050  -48.8530    1.5250 O.co2 319  ASP319     -0.2456
    140  OD2       43.5810  -47.2680    0.1280 O.co2 319  ASP319     -0.2456
    141  N         45.1910  -51.7020    0.5420 N.am  320  ASP320     -0.1971
    142  CA        46.6180  -51.8380    0.3870 C.3   320  ASP320      0.1709
    143  C         46.8970  -53.2210   -0.1560 C.2   320  ASP320      0.2293
    144  O         46.4820  -54.2150    0.4570 O.2   320  ASP320     -0.2864
    145  CB        47.3290  -51.6660    1.7460 C.3   320  ASP320      0.1436
    146  CG        47.4060  -50.2070    2.2000 C.2   320  ASP320      0.3671
    147  OD1       46.3680  -49.6540    2.6210 O.co2 320  ASP320     -0.2456
    148  OD2       48.5160  -49.6240    2.1550 O.co2 320  ASP320     -0.2456
@<TRIPOS>BOND
     1    62    61    1
     2    52    51    2
     3    63    61    1
     4    49    50    1
     5    61    58    1
     6    58    57    1
     7    58    59    1
     8    51    57   am
     9    51    50    1
    10    59    60    2
    11    50    53    1
    12    83    81   ar
    13    83    84   ar
    14    81    79   ar
    15    84    82   ar
    16    53    54    1
    17    77    76    2
    18    71    73   ar
    19    71    69   ar
    20   136   135    2
    21    67    66    2
    22    64    65    1
    23    75    76    1
    24    75    74    1
    25    75    78    1
    26    79    78    1
    27    79    80   ar
    28    66    74   am
    29    66    65    1
    30    68    69    1
    31    68    65    1
    32    73    72   ar
    33    76    85   am
    34    82    80   ar
    35    69    70   ar
    36    54    56   ar
    37    54    55   ar
    38   135   134    1
    39   135   141   am
    40   124   123    2
    41   143   142    1
    42   143   144    2
    43   137   134    1
    44   137   138    1
    45    88    87    2
    46   134   133    1
    47   140   138   ar
    48    87    86    1
    49   142   141    1
    50   142   145    1
    51   138   139   ar
    52    72    70   ar
    53   132   131    2
    54    85    86    1
    55   123   122    1
    56    93    94    1
    57    86    89    1
    58   102   101    1
    59   133   131   am
    60   122   121    1
    61   122   125    1
    62   131   130    1
    63   145   146    1
    64   103   101    1
    65   101   100    2
    66    97    94    1
    67    97    98    1
    68   148   146   ar
    69    91    90   ar
    70   146   147   ar
    71    94    95    1
    72   127   126    2
    73   125   126    1
    74     4     3    2
    75    89    90    1
    76   100    99    1
    77   126   128   am
    78   130   129    1
    79    90    92   ar
    80    98    99    1
    81    96    95    2
    82     3     2    1
    83    11     9    1
    84    10     9    1
    85     9     8    2
    86     2     1    1
    87     2     5    1
    88     8     7    1
    89   117   116    2
    90     7     6    1
    91     6     5    1
    92   116   115    1
    93    39    38    1
    94    40    38    1
    95   115   114    1
    96   115   118    1
    97    38    37    2
    98   120   118    1
    99   104   105    1
   100   118   119    1
   101   105   108    1
   102   105   106    1
   103    37    36    1
   104   108   109    1
   105    35    36    1
   106    35    34    1
   107    31    34    1
   108    31    32    1
   109    31    30    1
   110   106   107    2
   111   106   110   am
   112    32    33    2
   113   110   111    1
   114    41    42    1
   115    43    42    1
   116    43    44    2
   117    42    45    1
   118   111   112    1
   119   112   113    2
   120    48    46    1
   121    28    27   ar
   122    46    45    1
   123    45    47    1
   124    29    27   ar
   125    27    26    1
   126    12    13    1
   127    16    13    1
   128    16    17    1
   129    18    17    1
   130    18    19    1
   131    15    14    2
   132    26    25    1
   133    25    22    1
   134    13    14    1
   135    19    20    1
   136    24    23    2
   137    22    23    1
   138    22    21    1
