@<TRIPOS>MOLECULE
tmp/5uj3A00.pdb
 149 140 0 0 0
SMALL
GASTEIGER

@<TRIPOS>ATOM
      1  N         19.2350   11.7580   12.3320 N.3    47  SER47      -0.1217
      2  CA        19.9550   12.6980   13.1840 C.3    47  SER47       0.1889
      3  C         19.3420   12.8400   14.5710 C.2    47  SER47       0.2288
      4  O         20.0000   13.3800   15.4680 O.2    47  SER47      -0.2866
      5  CB        19.9180   14.0850   12.5360 C.3    47  SER47       0.2089
      6  OG        20.0140   14.0170   11.1210 O.3    47  SER47      -0.2183
      7  N         20.8300   12.2240   18.1660 N.3    50  LYS50      -0.1245
      8  CA        21.8360   13.0970   18.7660 C.3    50  LYS50       0.1561
      9  C         21.3110   13.8240   19.9940 C.2    50  LYS50       0.2260
     10  O         22.0920   14.1680   20.8840 O.2    50  LYS50      -0.2867
     11  CB        22.3710   14.0940   17.7310 C.3    50  LYS50       0.0271
     12  CG        23.2470   13.4360   16.6660 C.3    50  LYS50       0.0035
     13  CD        23.4420   14.3350   15.4520 C.3    50  LYS50       0.0206
     14  CE        24.0060   13.5320   14.2870 C.3    50  LYS50       0.1093
     15  NZ        23.9600   14.2130   12.9620 N.3    50  LYS50      -0.1314
     16  N         28.8790   16.8100    6.8230 N.3    82  TRP82      -0.1241
     17  CA        28.0280   17.6230    7.7000 C.3    82  TRP82       0.1605
     18  C         28.5810   17.6880    9.1270 C.2    82  TRP82       0.2264
     19  O         28.0070   17.1650   10.0860 O.2    82  TRP82      -0.2867
     20  CB        26.5440   17.2370    7.6720 C.3    82  TRP82       0.0550
     21  CG        25.7490   18.3040    8.3530 C.ar   82  TRP82       0.0003
     22  CD1       25.2080   18.2590    9.6060 C.ar   82  TRP82       0.0946
     23  CD2       25.4650   19.6140    7.8400 C.ar   82  TRP82       0.0152
     24  NE1       24.5840   19.4480    9.8930 N.ar   82  TRP82      -0.2442
     25  CE2       24.7220   20.2960    8.8270 C.ar   82  TRP82       0.0810
     26  CE3       25.7520   20.2670    6.6390 C.ar   82  TRP82       0.0012
     27  CZ2       24.2650   21.5980    8.6500 C.ar   82  TRP82       0.0191
     28  CZ3       25.2990   21.5630    6.4650 C.ar   82  TRP82       0.0001
     29  CH2       24.5610   22.2140    7.4650 C.ar   82  TRP82       0.0015
     30  N         23.3240   19.3450   14.4330 N.3   107  SER107     -0.1217
     31  CA        23.3960   17.9730   13.9320 C.3   107  SER107      0.1889
     32  C         24.8110   17.5950   13.4980 C.2   107  SER107      0.2288
     33  O         24.9960   16.8160   12.5600 O.2   107  SER107     -0.2866
     34  CB        22.3890   17.7310   12.8040 C.3   107  SER107      0.2089
     35  OG        21.7790   16.4690   12.9500 O.3   107  SER107     -0.2183
     36  N         28.0610   15.9250   12.7380 N.3   109  ASN109     -0.1240
     37  CA        28.3030   14.4860   12.6740 C.3   109  ASN109      0.1653
     38  C         29.6340   14.0810   13.2970 C.2   109  ASN109      0.2266
     39  O         29.6970   13.0720   14.0060 O.2   109  ASN109     -0.2867
     40  CB        28.1900   13.9890   11.2370 C.3   109  ASN109      0.1155
     41  CG        26.7620   13.7290   10.8450 C.2   109  ASN109      0.2627
     42  OD1       25.9920   13.1780   11.6310 O.2   109  ASN109     -0.2716
     43  ND2       26.3910   14.1350    9.6410 N.am  109  ASN109     -0.0877
     44  N         27.6210    7.4950   12.5280 N.3   143  GLU143     -0.1231
     45  CA        27.4440    8.3870   11.3910 C.3   143  GLU143      0.1699
     46  C         28.5230    8.0910   10.3550 C.2   143  GLU143      0.2592
     47  O         29.6890    7.8940   10.7060 O.2   143  GLU143     -0.2718
     48  CB        27.5410    9.8400   11.8610 C.3   143  GLU143      0.0402
     49  CG        26.3790   10.2560   12.7480 C.3   143  GLU143      0.1161
     50  CD        25.1060   10.4850   11.9500 C.2   143  GLU143      0.3649
     51  OE1       25.1100   10.2380   10.7280 O.co2 143  GLU143     -0.2457
     52  OE2       24.1050   10.9440   12.5390 O.co2 143  GLU143     -0.2457
     53  N         28.1510    8.0540    9.0730 N.am  144  LEU144     -0.1980
     54  CA        26.8320    8.3880    8.5460 C.3   144  LEU144      0.1596
     55  C         26.0140    7.1340    8.2090 C.2   144  LEU144      0.2287
     56  O         24.9070    7.2480    7.6870 O.2   144  LEU144     -0.2864
     57  CB        27.0020    9.1830    7.2430 C.3   144  LEU144      0.0297
     58  CG        27.3770   10.6810    7.2090 C.3   144  LEU144      0.0022
     59  CD1       26.1990   11.5600    7.5930 C.3   144  LEU144      0.0001
     60  CD2       28.5810   11.0200    8.0710 C.3   144  LEU144      0.0001
     61  N         22.0600    6.2830    8.7120 N.3   147  ASN147     -0.1240
     62  CA        20.9840    6.9750    8.0010 C.3   147  ASN147      0.1653
     63  C         20.4040    6.1870    6.8320 C.2   147  ASN147      0.2266
     64  O         19.6060    6.7510    6.0710 O.2   147  ASN147     -0.2867
     65  CB        21.4760    8.3330    7.4890 C.3   147  ASN147      0.1155
     66  CG        21.8970    9.2540    8.6100 C.2   147  ASN147      0.2627
     67  OD1       21.0710    9.7250    9.3760 O.2   147  ASN147     -0.2716
     68  ND2       23.1980    9.5030    8.7190 N.am  147  ASN147     -0.0877
     69  N         18.1240   23.8840   13.5410 N.3   193  THR193     -0.1218
     70  CA        17.7680   23.1340   12.3410 C.3   193  THR193      0.1862
     71  C         16.2740   22.8890   12.1890 C.2   193  THR193      0.2287
     72  O         15.8640   22.2890   11.1870 O.2   193  THR193     -0.2866
     73  CB        18.4600   21.7610   12.3360 C.3   193  THR193      0.1770
     74  OG1       17.9080   20.9620   13.3890 O.3   193  THR193     -0.2211
     75  CG2       19.9860   21.8740   12.5140 C.3   193  THR193      0.0375
     76  N          9.8010   22.7670   11.0820 N.3   197  ARG197     -0.1245
     77  CA         9.1270   21.5460   11.4970 C.3   197  ARG197      0.1563
     78  C          8.1620   21.8320   12.6410 C.2   197  ARG197      0.2260
     79  O          7.2250   22.6180   12.4560 O.2   197  ARG197     -0.2867
     80  CB        10.1540   20.4400   11.7640 C.3   197  ARG197      0.0307
     81  CG        10.9380   20.1310   10.4740 C.3   197  ARG197      0.0489
     82  CD        11.9910   19.0380   10.5980 C.3   197  ARG197      0.2205
     83  NE        12.7840   18.9920    9.3760 N.pl3 197  ARG197     -0.0865
     84  CZ        13.6600   18.0320    9.0800 C.cat 197  ARG197      0.5346
     85  NH1       13.8480   17.0100    9.9080 N.pl3 197  ARG197      0.1354
     86  NH2       14.3450   18.0900    7.9470 N.pl3 197  ARG197      0.1354
     87  N         14.6840   18.5180   18.5130 N.3   211  LYS211     -0.1231
     88  CA        15.7870   17.9130   17.7720 C.3   211  LYS211      0.1693
     89  C         15.2380   17.2750   16.5050 C.2   211  LYS211      0.2593
     90  O         14.2970   16.4750   16.5620 O.2   211  LYS211     -0.2718
     91  CB        16.5420   16.8730   18.6150 C.3   211  LYS211      0.0285
     92  CG        17.7070   16.1880   17.8640 C.3   211  LYS211      0.0035
     93  CD        18.9500   17.0960   17.7380 C.3   211  LYS211      0.0206
     94  CE        19.8990   16.5870   16.6410 C.3   211  LYS211      0.1093
     95  NZ        19.4520   17.0230   15.2740 N.3   211  LYS211     -0.1314
     96  N         15.8380   17.6190   15.3700 N.am  212  THR212     -0.1939
     97  CA        15.4220   17.1080   14.0730 C.3   212  THR212      0.2028
     98  C         16.2380   15.8750   13.6820 C.2   212  THR212      0.2643
     99  O         17.2920   15.5660   14.2590 O.2   212  THR212     -0.2714
    100  CB        15.6540   18.1710   13.0080 C.3   212  THR212      0.1808
    101  OG1       17.0260   18.5690   13.0580 O.3   212  THR212     -0.2208
    102  CG2       14.7940   19.3990   13.2550 C.3   212  THR212      0.0379
    103  N         15.7450   15.1840   12.6580 N.am  213  GLY213     -0.1939
    104  CA        16.4910   14.1310   11.9960 C.3   213  GLY213      0.2014
    105  C         16.1960   14.1460   10.5120 C.2   213  GLY213      0.2640
    106  O         15.0480   14.3720   10.1220 O.2   213  GLY213     -0.2714
    107  N         17.2150   13.9540    9.6720 N.am  214  THR214     -0.1936
    108  CA        17.0310   13.9220    8.2230 C.3   214  THR214      0.2028
    109  C         17.9720   12.8610    7.6710 C.2   214  THR214      0.2642
    110  O         19.1900   13.0650    7.6680 O.2   214  THR214     -0.2714
    111  CB        17.3180   15.2880    7.5980 C.3   214  THR214      0.1808
    112  OG1       16.5160   16.2810    8.2470 O.3   214  THR214     -0.2208
    113  CG2       16.9650   15.2820    6.1230 C.3   214  THR214      0.0379
    114  N         17.4150   11.7170    7.2410 N.am  215  CYS215     -0.1953
    115  CA        18.2470   10.6300    6.7290 C.3   215  CYS215      0.1843
    116  C         18.7190   10.8850    5.3050 C.2   215  CYS215      0.2626
    117  O         19.7460   10.3300    4.8920 O.2   215  CYS215     -0.2714
    118  CB        17.5030    9.2940    6.7720 C.3   215  CYS215      0.0997
    119  SG        17.5770    8.4240    8.3530 S.3   215  CYS215     -0.0797
    120  N         17.9830   11.6780    4.5300 N.am  216  GLY216     -0.1940
    121  CA        18.3790   11.9750    3.1660 C.3   216  GLY216      0.2014
    122  C         17.8950   10.9900    2.1220 C.2   216  GLY216      0.2638
    123  O         18.1930   11.1720    0.9310 O.2   216  GLY216     -0.2714
    124  N         17.1650    9.9510    2.5240 N.am  217  VAL217     -0.1977
    125  CA        16.7020    8.9110    1.6140 C.3   217  VAL217      0.1596
    126  C         15.3580    8.4320    2.1340 C.2   217  VAL217      0.2287
    127  O         15.0150    8.6380    3.2990 O.2   217  VAL217     -0.2864
    128  CB        17.6860    7.7140    1.5580 C.3   217  VAL217      0.0276
    129  CG1       18.9450    8.0720    0.7630 C.3   217  VAL217      0.0022
    130  CG2       18.0280    7.2220    2.9690 C.3   217  VAL217      0.0022
    131  N         11.8190   13.7430    1.6030 N.3   250  HIS250     -0.1241
    132  CA        11.1240   14.0770    2.8330 C.3   250  HIS250      0.1621
    133  C         10.4320   15.4310    2.6730 C.2   250  HIS250      0.2264
    134  O         10.6760   16.1750    1.7190 O.2   250  HIS250     -0.2867
    135  CB        12.1060   14.0860    4.0030 C.3   250  HIS250      0.0745
    136  CG        13.0300   15.2630    4.0050 C.ar  250  HIS250      0.0817
    137  ND1       14.2800   15.2340    3.4210 N.ar  250  HIS250     -0.2268
    138  CD2       12.8840   16.5070    4.5210 C.ar  250  HIS250      0.1154
    139  CE1       14.8600   16.4110    3.5730 C.ar  250  HIS250      0.1986
    140  NE2       14.0340   17.2010    4.2380 N.ar  250  HIS250     -0.2212
    141  N          9.3860   18.8210    5.0790 N.3   252  GLU252     -0.1245
    142  CA         9.2590   19.5630    6.3280 C.3   252  GLU252      0.1567
    143  C          7.8260   20.0320    6.5420 C.2   252  GLU252      0.2260
    144  O          7.3250   20.0110    7.6700 O.2   252  GLU252     -0.2867
    145  CB        10.2350   20.7410    6.3460 C.3   252  GLU252      0.0388
    146  CG        11.6950   20.3110    6.2240 C.3   252  GLU252      0.1160
    147  CD        12.6530   21.3920    6.6970 C.2   252  GLU252      0.3649
    148  OE1       12.8490   22.3830    5.9610 O.co2 252  GLU252     -0.2457
    149  OE2       13.2000   21.2590    7.8070 O.co2 252  GLU252     -0.2457
@<TRIPOS>BOND
     1   129   128    1
     2   123   122    2
     3   128   125    1
     4   128   130    1
     5   131   132    1
     6   125   126    1
     7   125   124    1
     8   134   133    2
     9   122   124   am
    10   122   121    1
    11   126   127    2
    12   133   132    1
    13   132   135    1
    14   121   120    1
    15   137   139   ar
    16   137   136   ar
    17   139   140   ar
    18   135   136    1
    19   136   138   ar
    20   140   138   ar
    21   120   116   am
    22   117   116    2
    23   141   142    1
    24   116   115    1
    25   148   147   ar
    26    64    63    2
    27   113   111    1
    28   146   145    1
    29   146   147    1
    30   142   145    1
    31   142   143    1
    32    28    26   ar
    33    28    29   ar
    34   143   144    2
    35    26    23   ar
    36   147   149   ar
    37   115   118    1
    38   115   114    1
    39   118   119    1
    40    16    17    1
    41    63    62    1
    42    58    57    1
    43    58    59    1
    44    58    60    1
    45   114   109   am
    46    57    54    1
    47    29    27   ar
    48    65    62    1
    49    65    66    1
    50   111   108    1
    51   111   112    1
    52   110   109    2
    53   109   108    1
    54    20    17    1
    55    20    21    1
    56    56    55    2
    57    17    18    1
    58    23    21   ar
    59    23    25   ar
    60    86    84    1
    61    62    61    1
    62    55    54    1
    63   108   107    1
    64    21    22   ar
    65    54    53    1
    66    66    68   am
    67    66    67    2
    68    27    25   ar
    69    25    24   ar
    70    53    46   am
    71    84    83    2
    72    84    85    1
    73    18    19    2
    74    83    82    1
    75    22    24   ar
    76    43    41   am
    77   107   105   am
    78   106   105    2
    79    46    47    2
    80    46    45    1
    81    81    82    1
    82    81    80    1
    83   105   104    1
    84    51    50   ar
    85    41    40    1
    86    41    42    2
    87    76    77    1
    88     6     5    1
    89    72    71    2
    90    40    37    1
    91    45    48    1
    92    45    44    1
    93    77    80    1
    94    77    78    1
    95    48    49    1
    96    50    52   ar
    97    50    49    1
    98   104   103    1
    99    71    70    1
   100     1     2    1
   101    73    70    1
   102    73    75    1
   103    73    74    1
   104    70    69    1
   105    79    78    2
   106     5     2    1
   107    33    32    2
   108   103    98   am
   109    37    36    1
   110    37    38    1
   111    34    35    1
   112    34    31    1
   113    15    14    1
   114   100   101    1
   115   100   102    1
   116   100    97    1
   117     2     3    1
   118    38    39    2
   119    32    31    1
   120    98    97    1
   121    98    99    2
   122    31    30    1
   123    97    96    1
   124    14    13    1
   125     3     4    2
   126    95    94    1
   127    96    89   am
   128    13    12    1
   129    89    90    2
   130    89    88    1
   131    94    93    1
   132    12    11    1
   133    11     8    1
   134    93    92    1
   135    88    87    1
   136    88    91    1
   137    92    91    1
   138     7     8    1
   139     8     9    1
   140     9    10    2
