@<TRIPOS>MOLECULE
tmp/5uj4A00.pdb
 123 115 0 0 0
SMALL
GASTEIGER

@<TRIPOS>ATOM
      1  N         19.2920   11.7390   12.4190 N.3    47  SER47      -0.1217
      2  CA        20.0510   12.6140   13.3060 C.3    47  SER47       0.1889
      3  C         19.3930   12.8170   14.6640 C.2    47  SER47       0.2288
      4  O         20.0290   13.3820   15.5630 O.2    47  SER47      -0.2866
      5  CB        20.2620   13.9750   12.6400 C.3    47  SER47       0.2089
      6  OG        19.7390   14.0000   11.3160 O.3    47  SER47      -0.2183
      7  N         20.9040   12.2720   18.2260 N.3    50  LYS50      -0.1245
      8  CA        21.9100   13.1520   18.8140 C.3    50  LYS50       0.1561
      9  C         21.3820   13.8790   20.0430 C.2    50  LYS50       0.2260
     10  O         22.1680   14.2430   20.9230 O.2    50  LYS50      -0.2867
     11  CB        22.4220   14.1390   17.7630 C.3    50  LYS50       0.0271
     12  CG        23.2620   13.4650   16.6720 C.3    50  LYS50       0.0035
     13  CD        23.4830   14.3790   15.4680 C.3    50  LYS50       0.0206
     14  CE        24.0960   13.6060   14.3170 C.3    50  LYS50       0.1093
     15  NZ        24.0050   14.3110   13.0050 N.3    50  LYS50      -0.1314
     16  N         29.2050   17.0840    6.8910 N.3    82  TRP82      -0.1241
     17  CA        28.3220   17.8680    7.7590 C.3    82  TRP82       0.1605
     18  C         28.8200   17.8790    9.2100 C.2    82  TRP82       0.2264
     19  O         28.2540   17.2620   10.1130 O.2    82  TRP82      -0.2867
     20  CB        26.8360   17.4980    7.6560 C.3    82  TRP82       0.0550
     21  CG        26.0240   18.5350    8.3770 C.ar   82  TRP82       0.0003
     22  CD1       25.3830   18.3940    9.5740 C.ar   82  TRP82       0.0946
     23  CD2       25.8340   19.9000    7.9800 C.ar   82  TRP82       0.0152
     24  NE1       24.7810   19.5780    9.9300 N.ar   82  TRP82      -0.2442
     25  CE2       25.0410   20.5160    8.9670 C.ar   82  TRP82       0.0810
     26  CE3       26.2440   20.6540    6.8760 C.ar   82  TRP82       0.0012
     27  CZ2       24.6520   21.8510    8.8860 C.ar   82  TRP82       0.0191
     28  CZ3       25.8590   21.9810    6.7980 C.ar   82  TRP82       0.0001
     29  CH2       25.0700   22.5640    7.7960 C.ar   82  TRP82       0.0015
     30  N         23.4300   19.4190   14.4780 N.3   107  SER107     -0.1217
     31  CA        23.4970   18.0520   13.9550 C.3   107  SER107      0.1889
     32  C         24.9200   17.6550   13.5560 C.2   107  SER107      0.2288
     33  O         25.1180   16.8360   12.6560 O.2   107  SER107     -0.2866
     34  CB        22.5210   17.8380   12.7960 C.3   107  SER107      0.2089
     35  OG        21.8250   16.6280   12.9580 O.3   107  SER107     -0.2183
     36  N         28.1680   15.9940   12.8360 N.3   109  ASN109     -0.1240
     37  CA        28.4020   14.5510   12.7880 C.3   109  ASN109      0.1653
     38  C         29.7330   14.1540   13.4170 C.2   109  ASN109      0.2266
     39  O         29.8110   13.1170   14.0840 O.2   109  ASN109     -0.2867
     40  CB        28.3310   14.0510   11.3480 C.3   109  ASN109      0.1155
     41  CG        26.9220   13.9270   10.8720 C.2   109  ASN109      0.2627
     42  OD1       26.0840   13.3710   11.5710 O.2   109  ASN109     -0.2716
     43  ND2       26.6370   14.4580    9.6940 N.am  109  ASN109     -0.0877
     44  N         27.6860    7.5760   12.5750 N.3   143  GLU143     -0.1231
     45  CA        27.5250    8.4540   11.4200 C.3   143  GLU143      0.1699
     46  C         28.6210    8.1380   10.4090 C.2   143  GLU143      0.2592
     47  O         29.7830    7.9640   10.7850 O.2   143  GLU143     -0.2718
     48  CB        27.6170    9.9200   11.8460 C.3   143  GLU143      0.0402
     49  CG        26.4590   10.3870   12.7110 C.3   143  GLU143      0.1161
     50  CD        25.1690   10.5780   11.9180 C.2   143  GLU143      0.3649
     51  OE1       25.1630   10.2820   10.7030 O.co2 143  GLU143     -0.2457
     52  OE2       24.1560   11.0240   12.5130 O.co2 143  GLU143     -0.2457
     53  N         28.2720    8.0520    9.1210 N.am  144  LEU144     -0.1980
     54  CA        26.9640    8.3450    8.5310 C.3   144  LEU144      0.1596
     55  C         26.1440    7.1030    8.1900 C.2   144  LEU144      0.2287
     56  O         25.0410    7.2240    7.6460 O.2   144  LEU144     -0.2864
     57  CB        27.1710    9.1020    7.2160 C.3   144  LEU144      0.0297
     58  CG        27.8540   10.4630    7.2640 C.3   144  LEU144      0.0022
     59  CD1       28.3890   10.8740    5.8940 C.3   144  LEU144      0.0001
     60  CD2       26.8580   11.4590    7.7760 C.3   144  LEU144      0.0001
     61  N         22.1820    6.3260    8.6590 N.3   147  ASN147     -0.1240
     62  CA        21.1410    7.0330    7.9160 C.3   147  ASN147      0.1653
     63  C         20.5620    6.2450    6.7390 C.2   147  ASN147      0.2266
     64  O         19.8330    6.8280    5.9280 O.2   147  ASN147     -0.2867
     65  CB        21.6760    8.3680    7.4040 C.3   147  ASN147      0.1155
     66  CG        22.0460    9.3020    8.5230 C.2   147  ASN147      0.2627
     67  OD1       21.1850    9.7570    9.2700 O.2   147  ASN147     -0.2716
     68  ND2       23.3420    9.5830    8.6610 N.am  147  ASN147     -0.0877
     69  N         18.1440   23.9060   13.6000 N.3   193  THR193     -0.1218
     70  CA        17.7870   23.1490   12.4070 C.3   193  THR193      0.1862
     71  C         16.2940   22.8720   12.2760 C.2   193  THR193      0.2287
     72  O         15.8850   22.2450   11.2890 O.2   193  THR193     -0.2866
     73  CB        18.5200   21.8040   12.4140 C.3   193  THR193      0.1770
     74  OG1       18.0230   21.0210   13.5060 O.3   193  THR193     -0.2211
     75  CG2       20.0380   21.9960   12.5650 C.3   193  THR193      0.0375
     76  N          9.7950   22.7710   11.1360 N.3   197  ARG197     -0.1245
     77  CA         9.1180   21.5490   11.5470 C.3   197  ARG197      0.1563
     78  C          8.1570   21.8340   12.6970 C.2   197  ARG197      0.2260
     79  O          7.2220   22.6280   12.5160 O.2   197  ARG197     -0.2867
     80  CB        10.1450   20.4410   11.8070 C.3   197  ARG197      0.0307
     81  CG        10.9170   20.1330   10.5200 C.3   197  ARG197      0.0489
     82  CD        11.9490   19.0110   10.6390 C.3   197  ARG197      0.2205
     83  NE        12.7830   18.9760    9.4380 N.pl3 197  ARG197     -0.0865
     84  CZ        13.6560   18.0150    9.1460 C.cat 197  ARG197      0.5346
     85  NH1       13.8070   16.9780    9.9620 N.pl3 197  ARG197      0.1354
     86  NH2       14.3770   18.0960    8.0300 N.pl3 197  ARG197      0.1354
     87  N         14.7400   18.5190   18.5380 N.3   211  LYS211     -0.1231
     88  CA        15.8430   17.9290   17.7870 C.3   211  LYS211      0.1693
     89  C         15.2840   17.2880   16.5280 C.2   211  LYS211      0.2593
     90  O         14.3370   16.4930   16.5970 O.2   211  LYS211     -0.2718
     91  CB        16.6000   16.8700   18.6050 C.3   211  LYS211      0.0285
     92  CG        17.7310   16.1720   17.8350 C.3   211  LYS211      0.0035
     93  CD        18.9140   17.1190   17.6550 C.3   211  LYS211      0.0206
     94  CE        19.9320   16.6090   16.6410 C.3   211  LYS211      0.1093
     95  NZ        19.5580   17.0110   15.2520 N.3   211  LYS211     -0.1314
     96  N         15.8740   17.6330   15.3890 N.am  212  THR212     -0.1939
     97  CA        15.4610   17.1160   14.0960 C.3   212  THR212      0.2028
     98  C         16.2890   15.9000   13.6860 C.2   212  THR212      0.2643
     99  O         17.3760   15.6240   14.2110 O.2   212  THR212     -0.2714
    100  CB        15.6490   18.1860   13.0270 C.3   212  THR212      0.1808
    101  OG1       17.0210   18.5940   13.0300 O.3   212  THR212     -0.2208
    102  CG2       14.7690   19.3860   13.3220 C.3   212  THR212      0.0379
    103  N         15.7730   15.1980   12.6850 N.am  213  GLY213     -0.1939
    104  CA        16.5280   14.1480   12.0310 C.3   213  GLY213      0.2014
    105  C         16.2150   14.1480   10.5530 C.2   213  GLY213      0.2640
    106  O         15.0510   14.3240   10.1710 O.2   213  GLY213     -0.2714
    107  N         17.2260   13.9650    9.7060 N.am  214  THR214     -0.1936
    108  CA        17.0140   13.9090    8.2610 C.3   214  THR214      0.2028
    109  C         17.9760   12.8730    7.6950 C.2   214  THR214      0.2642
    110  O         19.1930   13.0830    7.7090 O.2   214  THR214     -0.2714
    111  CB        17.2360   15.2800    7.6180 C.3   214  THR214      0.1808
    112  OG1       16.5280   16.2780    8.3610 O.3   214  THR214     -0.2208
    113  CG2       16.7350   15.2820    6.1830 C.3   214  THR214      0.0379
    114  N         17.4380   11.7520    7.2150 N.am  215  CYS215     -0.1953
    115  CA        18.2870   10.6740    6.7090 C.3   215  CYS215      0.1843
    116  C         18.7950   10.9490    5.2990 C.2   215  CYS215      0.2626
    117  O         19.8740   10.4680    4.9300 O.2   215  CYS215     -0.2714
    118  CB        17.5430    9.3320    6.7500 C.3   215  CYS215      0.0997
    119  SG        17.6380    8.4360    8.3440 S.3   215  CYS215     -0.0797
    120  N         18.0450   11.7070    4.5020 N.am  216  GLY216     -0.1954
    121  CA        18.4430   12.0320    3.1460 C.3   216  GLY216      0.1869
    122  C         17.9930   11.0390    2.0960 C.2   216  GLY216      0.2309
    123  O         18.3180   11.2180    0.9110 O.2   216  GLY216     -0.2863
@<TRIPOS>BOND
     1   123   122    2
     2   122   121    1
     3   121   120    1
     4   120   116   am
     5   117   116    2
     6   116   115    1
     7    59    58    1
     8    64    63    2
     9   113   111    1
    10   115   118    1
    11   115   114    1
    12    63    62    1
    13   118   119    1
    14    28    26   ar
    15    28    29   ar
    16    26    23   ar
    17    16    17    1
    18   114   109   am
    19    57    58    1
    20    57    54    1
    21    58    60    1
    22    65    62    1
    23    65    66    1
    24   111   108    1
    25   111   112    1
    26    56    55    2
    27    20    17    1
    28    20    21    1
    29   109   110    2
    30   109   108    1
    31    17    18    1
    32    29    27   ar
    33    62    61    1
    34    23    21   ar
    35    23    25   ar
    36    86    84    1
    37    55    54    1
    38   108   107    1
    39    21    22   ar
    40    66    68   am
    41    66    67    2
    42    54    53    1
    43    27    25   ar
    44    25    24   ar
    45    53    46   am
    46    84    83    2
    47    84    85    1
    48    18    19    2
    49    83    82    1
    50    22    24   ar
    51    43    41   am
    52   107   105   am
    53   106   105    2
    54    46    47    2
    55    46    45    1
    56    81    82    1
    57    81    80    1
    58   105   104    1
    59    51    50   ar
    60    41    40    1
    61    41    42    2
    62    76    77    1
    63    72    71    2
    64     6     5    1
    65    40    37    1
    66    45    48    1
    67    45    44    1
    68    77    80    1
    69    77    78    1
    70    48    49    1
    71    50    52   ar
    72    50    49    1
    73   104   103    1
    74    71    70    1
    75    70    73    1
    76    70    69    1
    77    73    75    1
    78    73    74    1
    79     1     2    1
    80    79    78    2
    81     5     2    1
    82    33    32    2
    83   103    98   am
    84    37    36    1
    85    37    38    1
    86    34    35    1
    87    34    31    1
    88    15    14    1
    89   100   101    1
    90   100   102    1
    91   100    97    1
    92     2     3    1
    93    38    39    2
    94    32    31    1
    95    98    97    1
    96    98    99    2
    97    31    30    1
    98    97    96    1
    99    14    13    1
   100     3     4    2
   101    95    94    1
   102    96    89   am
   103    13    12    1
   104    89    90    2
   105    89    88    1
   106    94    93    1
   107    12    11    1
   108    93    92    1
   109    11     8    1
   110    88    87    1
   111    88    91    1
   112    92    91    1
   113     7     8    1
   114     8     9    1
   115     9    10    2
