@<TRIPOS>MOLECULE
tmp/5ujbA00.pdb
 234 224 0 0 0
SMALL
GASTEIGER

@<TRIPOS>ATOM
      1  N         29.8040    6.5940   16.2440 N.3   112  LEU112     -0.1231
      2  CA        29.3630    7.0220   14.9360 C.3   112  LEU112      0.1693
      3  C         30.0020    8.3860   14.7300 C.2   112  LEU112      0.2592
      4  O         29.6160    9.3590   15.3860 O.2   112  LEU112     -0.2718
      5  CB        27.8330    7.0180   14.9240 C.3   112  LEU112      0.0284
      6  CG        27.0550    6.4200   13.7420 C.3   112  LEU112      0.0019
      7  CD1       27.4900    5.0010   13.4010 C.3   112  LEU112      0.0001
      8  CD2       25.5440    6.4420   13.9990 C.3   112  LEU112      0.0001
      9  N         31.0180    8.4440   13.8660 N.am  113  VAL113     -0.1966
     10  CA        31.7170    9.7040   13.6400 C.3   113  VAL113      0.1727
     11  C         30.7430   10.6960   13.0250 C.2   113  VAL113      0.2616
     12  O         29.9510   10.3610   12.1360 O.2   113  VAL113     -0.2715
     13  CB        32.9680    9.5070   12.7590 C.3   113  VAL113      0.0290
     14  CG1       33.8460    8.4020   13.3150 C.3   113  VAL113      0.0023
     15  CG2       32.6290    9.2410   11.2980 C.3   113  VAL113      0.0023
     16  N         30.7550   11.9110   13.5250 N.am  114  ARG114     -0.1964
     17  CA        29.8310   12.8910   12.9770 C.3   114  ARG114      0.1714
     18  C         30.6100   13.9790   12.2850 C.2   114  ARG114      0.2458
     19  O         31.1200   14.8980   12.9460 O.2   114  ARG114     -0.2730
     20  CB        28.9690   13.4760   14.0790 C.3   114  ARG114      0.0347
     21  CG        28.8900   12.5390   15.2160 C.3   114  ARG114      0.0492
     22  CD        28.7740   13.2640   16.4490 C.3   114  ARG114      0.2205
     23  NE        28.4410   12.3700   17.5370 N.pl3 114  ARG114     -0.0865
     24  CZ        28.1710   12.7910   18.7710 C.cat 114  ARG114      0.5346
     25  NH1       28.2100   14.0960   19.0600 N.pl3 114  ARG114      0.1354
     26  NH2       27.8680   11.9100   19.7290 N.pl3 114  ARG114      0.1354
     27  N         30.7450   13.9140   10.9760 N.am  115  PRO115     -0.2727
     28  CA        31.4730   14.9440   10.2480 C.3   115  PRO115      0.1402
     29  C         30.7330   16.2620   10.3180 C.2   115  PRO115      0.2269
     30  O         29.5740   16.3510   10.7340 O.2   115  PRO115     -0.2865
     31  CB        31.5180   14.3990    8.8230 C.3   115  PRO115      0.0296
     32  CG        31.3350   12.9830    8.9830 C.3   115  PRO115      0.0237
     33  CD        30.3570   12.8170   10.1040 C.3   115  PRO115      0.0939
     34  N         31.0130   18.3840    4.9890 N.3   119  VAL119     -0.1231
     35  CA        31.4530   17.0240    4.6730 C.3   119  VAL119      0.1693
     36  C         30.2610   16.1400    4.3200 C.2   119  VAL119      0.2594
     37  O         30.2200   15.5130    3.2480 O.2   119  VAL119     -0.2718
     38  CB        32.2620   16.4300    5.8430 C.3   119  VAL119      0.0266
     39  CG1       32.7070   15.0100    5.5070 C.3   119  VAL119      0.0020
     40  CG2       33.4740   17.3070    6.1580 C.3   119  VAL119      0.0020
     41  N         29.2600   16.1010    5.2120 N.am  120  MET120     -0.1934
     42  CA        28.1050   15.2290    5.0100 C.3   120  MET120      0.1821
     43  C         27.3210   15.6160    3.7520 C.2   120  MET120      0.2332
     44  O         26.8660   14.7380    3.0140 O.2   120  MET120     -0.2860
     45  CB        27.1920   15.2390    6.2510 C.2   120  MET120      0.0096
     46  CG        27.7690   14.5750    7.5420 C.2   120  MET120      0.0285
     47  SD        26.8830   14.8120    9.1520 S.3   120  MET120     -0.1125
     48  CE        25.1630   14.7630    8.6990 C.3   120  MET120      0.0742
     49  N         29.2850   14.3700    0.6900 N.3   123  ALA123     -0.1245
     50  CA        29.1520   12.9240    0.5270 C.3   123  ALA123      0.1562
     51  C         27.7470   12.5360    0.0660 C.2   123  ALA123      0.2260
     52  O         27.5790   11.6270   -0.7570 O.2   123  ALA123     -0.2867
     53  CB        29.5340   12.2220    1.8260 C.3   123  ALA123      0.0290
     54  N         24.7620    6.7880    0.4560 N.3   131  PHE131     -0.1241
     55  CA        24.5070    7.5010    1.7010 C.3   131  PHE131      0.1605
     56  C         23.3270    6.9030    2.4780 C.2   131  PHE131      0.2264
     57  O         23.4560    6.4780    3.6390 O.2   131  PHE131     -0.2867
     58  CB        24.2580    8.9630    1.3310 C.3   131  PHE131      0.0534
     59  CG        24.5600    9.9380    2.4160 C.ar  131  PHE131     -0.0203
     60  CD1       25.8680   10.2970    2.6940 C.ar  131  PHE131     -0.0042
     61  CD2       23.5370   10.5150    3.1510 C.ar  131  PHE131     -0.0042
     62  CE1       26.1480   11.2030    3.6990 C.ar  131  PHE131     -0.0003
     63  CE2       23.8160   11.4200    4.1470 C.ar  131  PHE131     -0.0003
     64  CZ        25.1210   11.7600    4.4220 C.ar  131  PHE131     -0.0000
     65  N         23.7750    3.5310    3.7910 N.3   134  LYS134     -0.1231
     66  CA        24.5940    3.6280    4.9980 C.3   134  LYS134      0.1693
     67  C         23.7180    3.8050    6.2140 C.2   134  LYS134      0.2592
     68  O         23.7970    3.0500    7.1930 O.2   134  LYS134     -0.2718
     69  CB        25.5260    4.8410    4.9160 C.3   134  LYS134      0.0285
     70  CG        26.4020    4.9510    3.6840 C.3   134  LYS134      0.0035
     71  CD        27.7080    4.2230    3.8180 C.3   134  LYS134      0.0206
     72  CE        28.8540    5.1740    4.0430 C.3   134  LYS134      0.1093
     73  NZ        29.7750    4.5660    5.0220 N.3   134  LYS134     -0.1314
     74  N         22.8210    4.7770    6.1230 N.am  135  TYR135     -0.1976
     75  CA        21.9580    5.1290    7.2370 C.3   135  TYR135      0.1639
     76  C         21.1190    3.9490    7.7270 C.2   135  TYR135      0.2290
     77  O         21.0970    3.6310    8.9340 O.2   135  TYR135     -0.2864
     78  CB        21.0790    6.2540    6.7490 C.3   135  TYR135      0.0560
     79  CG        19.9800    6.6230    7.6540 C.ar  135  TYR135     -0.0198
     80  CD1       20.2420    7.3510    8.8030 C.ar  135  TYR135     -0.0009
     81  CD2       18.6620    6.3460    7.3230 C.ar  135  TYR135     -0.0009
     82  CE1       19.2390    7.7350    9.6350 C.ar  135  TYR135      0.0417
     83  CE2       17.6370    6.7360    8.1580 C.ar  135  TYR135      0.0417
     84  CZ        17.9430    7.4330    9.3120 C.ar  135  TYR135      0.1957
     85  OH        16.9540    7.8420   10.1670 O.3   135  TYR135     -0.2866
     86  N         23.4270    1.3020    9.5520 N.3   138  GLU138     -0.1231
     87  CA        23.8900    1.5980   10.9070 C.3   138  GLU138      0.1699
     88  C         22.7770    1.5940   11.9390 C.2   138  GLU138      0.2592
     89  O         22.9590    1.0550   13.0500 O.2   138  GLU138     -0.2718
     90  CB        24.5950    2.9470   10.9380 C.3   138  GLU138      0.0402
     91  CG        25.8470    3.0140   10.0840 C.3   138  GLU138      0.1161
     92  CD        27.0080    2.2370   10.7260 C.2   138  GLU138      0.3649
     93  OE1       26.8430    1.7550   11.8820 O.co2 138  GLU138     -0.2457
     94  OE2       28.0810    2.1120   10.0750 O.co2 138  GLU138     -0.2457
     95  N         21.6190    2.1620   11.6010 N.am  139  ILE139     -0.1980
     96  CA        20.5360    2.1590   12.5720 C.3   139  ILE139      0.1595
     97  C         20.0190    0.7400   12.7840 C.2   139  ILE139      0.2287
     98  O         19.8920    0.2600   13.9190 O.2   139  ILE139     -0.2864
     99  CB        19.4340    3.1210   12.1350 C.3   139  ILE139      0.0276
    100  CG1       20.0340    4.5250   12.0960 C.3   139  ILE139      0.0022
    101  CG2       18.2840    2.9870   13.0820 C.3   139  ILE139      0.0022
    102  CD1       20.9550    4.8350   13.2870 C.3   139  ILE139      0.0001
    103  N         19.6920   -1.4540   16.3200 N.3   143  HIS143     -0.1241
    104  CA        18.3180   -1.6310   16.7640 C.3   143  HIS143      0.1621
    105  C         17.7790   -2.8690   16.0620 C.2   143  HIS143      0.2264
    106  O         16.8850   -2.7790   15.2100 O.2   143  HIS143     -0.2867
    107  CB        17.5190   -0.3760   16.4140 C.3   143  HIS143      0.0745
    108  CG        18.0010    0.8800   17.0920 C.ar  143  HIS143      0.0817
    109  ND1       18.0860    1.0230   18.4630 N.ar  143  HIS143     -0.2268
    110  CD2       18.4600    2.0430   16.5700 C.ar  143  HIS143      0.1154
    111  CE1       18.5330    2.2340   18.7510 C.ar  143  HIS143      0.1986
    112  NE2       18.7790    2.8680   17.6200 N.ar  143  HIS143     -0.2212
    113  N         14.1460   -2.9600   15.2510 N.3   146  PHE146     -0.1241
    114  CA        13.4450   -1.7340   14.9290 C.3   146  PHE146      0.1605
    115  C         12.3820   -1.9950   13.8650 C.2   146  PHE146      0.2264
    116  O         12.6550   -2.5790   12.8170 O.2   146  PHE146     -0.2867
    117  CB        14.4550   -0.6780   14.4920 C.3   146  PHE146      0.0534
    118  CG        13.8530    0.6880   14.2180 C.ar  146  PHE146     -0.0203
    119  CD1       12.9890    0.8730   13.1540 C.ar  146  PHE146     -0.0042
    120  CD2       14.1770    1.7840   15.0080 C.ar  146  PHE146     -0.0042
    121  CE1       12.4540    2.1000   12.8910 C.ar  146  PHE146     -0.0003
    122  CE2       13.6430    3.0000   14.7630 C.ar  146  PHE146     -0.0003
    123  CZ        12.7750    3.1680   13.7070 C.ar  146  PHE146     -0.0000
    124  N         11.0150    2.2690    9.5110 N.3   151  LEU151     -0.1245
    125  CA        12.3730    2.7050    9.2000 C.3   151  LEU151      0.1561
    126  C         12.4720    3.2340    7.7850 C.2   151  LEU151      0.2260
    127  O         13.2470    4.1510    7.5310 O.2   151  LEU151     -0.2867
    128  CB        13.3810    1.5800    9.4390 C.3   151  LEU151      0.0270
    129  CG        14.8370    1.8050    9.0170 C.3   151  LEU151      0.0019
    130  CD1       15.4190    2.9870    9.7510 C.3   151  LEU151      0.0001
    131  CD2       15.6370    0.5750    9.4260 C.3   151  LEU151      0.0001
    132  N         11.3730    6.7980    8.2980 N.3   154  PHE154     -0.1241
    133  CA        12.4730    7.6400    8.7530 C.3   154  PHE154      0.1605
    134  C         13.5090    7.8640    7.6690 C.2   154  PHE154      0.2264
    135  O         14.0280    8.9720    7.5300 O.2   154  PHE154     -0.2867
    136  CB        13.1070    7.0530   10.0020 C.3   154  PHE154      0.0534
    137  CG        12.1810    7.0350   11.1850 C.ar  154  PHE154     -0.0203
    138  CD1       11.8540    8.2080   11.8520 C.ar  154  PHE154     -0.0042
    139  CD2       11.6240    5.8420   11.6190 C.ar  154  PHE154     -0.0042
    140  CE1       10.9970    8.1840   12.9300 C.ar  154  PHE154     -0.0003
    141  CE2       10.7670    5.8090   12.6990 C.ar  154  PHE154     -0.0003
    142  CZ        10.4500    6.9810   13.3570 C.ar  154  PHE154     -0.0000
    143  N         14.7500   11.5310    6.6890 N.3   158  TYR158     -0.1241
    144  CA        16.1750   11.8520    6.8130 C.3   158  TYR158      0.1605
    145  C         16.7700   12.3600    5.5070 C.2   158  TYR158      0.2264
    146  O         17.5650   13.3190    5.4880 O.2   158  TYR158     -0.2867
    147  CB        16.9010   10.6050    7.3280 C.3   158  TYR158      0.0534
    148  CG        18.4260   10.6230    7.4230 C.ar  158  TYR158     -0.0201
    149  CD1       19.2450   10.2290    6.3650 C.ar  158  TYR158     -0.0009
    150  CD2       19.0350   10.9810    8.6140 C.ar  158  TYR158     -0.0009
    151  CE1       20.6230   10.2030    6.5060 C.ar  158  TYR158      0.0417
    152  CE2       20.3860   10.9960    8.7460 C.ar  158  TYR158      0.0417
    153  CZ        21.1880   10.6070    7.6970 C.ar  158  TYR158      0.1957
    154  OH        22.5710   10.6260    7.8440 O.3   158  TYR158     -0.2866
    155  N         21.0470   20.4120   11.8760 N.3   176  LEU176     -0.1245
    156  CA        21.2170   19.7450   13.1690 C.3   176  LEU176      0.1561
    157  C         19.9550   19.7110   14.0240 C.2   176  LEU176      0.2260
    158  O         19.6790   18.6510   14.6160 O.2   176  LEU176     -0.2867
    159  CB        22.3750   20.3440   13.9830 C.3   176  LEU176      0.0270
    160  CG        23.7920   20.5000   13.4470 C.3   176  LEU176      0.0019
    161  CD1       23.9130   21.7330   12.6670 C.3   176  LEU176      0.0001
    162  CD2       24.7540   20.5530   14.6030 C.3   176  LEU176      0.0001
    163  N         18.0620   16.7780   12.5270 N.3   179  LEU179     -0.1231
    164  CA        18.6170   15.4770   12.8730 C.3   179  LEU179      0.1693
    165  C         18.3820   15.1290   14.3210 C.2   179  LEU179      0.2592
    166  O         18.1290   13.9660   14.6320 O.2   179  LEU179     -0.2718
    167  CB        20.1140   15.4120   12.5940 C.3   179  LEU179      0.0284
    168  CG        20.6540   15.5350   11.1740 C.3   179  LEU179      0.0019
    169  CD1       22.1660   15.2460   11.1940 C.3   179  LEU179      0.0001
    170  CD2       19.9430   14.5230   10.2890 C.3   179  LEU179      0.0001
    171  N         18.4130   16.1110   15.2170 N.am  180  ASP180     -0.1974
    172  CA        18.2390   15.7440   16.6120 C.3   180  ASP180      0.1709
    173  C         16.7860   15.4920   16.9440 C.2   180  ASP180      0.2293
    174  O         16.4840   14.5910   17.7390 O.2   180  ASP180     -0.2864
    175  CB        18.9050   16.7870   17.4910 C.3   180  ASP180      0.1436
    176  CG        20.3820   16.9590   17.1140 C.2   180  ASP180      0.3671
    177  OD1       20.7970   16.3950   16.0620 O.co2 180  ASP180     -0.2456
    178  OD2       21.1540   17.5570   17.9020 O.co2 180  ASP180     -0.2456
    179  N         14.8470   14.0740   14.7310 N.3   182  LEU182     -0.1231
    180  CA        14.6860   12.7930   14.0970 C.3   182  LEU182      0.1693
    181  C         15.3690   11.6980   14.9000 C.2   182  LEU182      0.2591
    182  O         14.9190   10.5510   14.8930 O.2   182  LEU182     -0.2718
    183  CB        15.2680   12.9160   12.7020 C.3   182  LEU182      0.0284
    184  CG        14.9990   11.8090   11.7310 C.3   182  LEU182      0.0019
    185  CD1       13.8420   12.2360   10.8680 C.3   182  LEU182      0.0001
    186  CD2       16.2490   11.6000   10.9120 C.3   182  LEU182      0.0001
    187  N         16.4570   12.0200   15.5980 N.am  183  ARG183     -0.1980
    188  CA        17.1150   11.0080   16.4100 C.3   183  ARG183      0.1597
    189  C         16.2550   10.6810   17.6130 C.2   183  ARG183      0.2287
    190  O         15.9630    9.5130   17.8840 O.2   183  ARG183     -0.2864
    191  CB        18.5140   11.4700   16.8510 C.3   183  ARG183      0.0334
    192  CG        19.4070   10.3510   17.4680 C.3   183  ARG183      0.0492
    193  CD        20.3340   10.7770   18.5930 C.3   183  ARG183      0.2205
    194  NE        21.2140   11.8520   18.1800 N.pl3 183  ARG183     -0.0865
    195  CZ        20.9290   13.1390   18.3560 C.cat 183  ARG183      0.5346
    196  NH1       19.7840   13.4940   18.9440 N.pl3 183  ARG183      0.1354
    197  NH2       21.7810   14.0760   17.9410 N.pl3 183  ARG183      0.1354
    198  N         13.3830    8.7170   16.5320 N.3   186  GLY186     -0.1210
    199  CA        13.7850    7.3700   16.1670 C.3   186  GLY186      0.1956
    200  C         14.0320    6.4680   17.3630 C.2   186  GLY186      0.2611
    201  O         13.7420    5.2650   17.3090 O.2   186  GLY186     -0.2717
    202  N         14.6160    7.0110   18.4400 N.am  187  LYS187     -0.1979
    203  CA        14.8130    6.1800   19.6270 C.3   187  LYS187      0.1596
    204  C         13.4780    5.8170   20.2600 C.2   187  LYS187      0.2287
    205  O         13.3120    4.7030   20.7870 O.2   187  LYS187     -0.2864
    206  CB        15.6720    6.8890   20.6850 C.3   187  LYS187      0.0298
    207  CG        17.1420    7.0020   20.3090 C.3   187  LYS187      0.0038
    208  CD        17.9770    7.4420   21.5090 C.3   187  LYS187      0.0206
    209  CE        18.5250    8.8640   21.3550 C.3   187  LYS187      0.1093
    210  NZ        17.4670    9.9250   21.3100 N.3   187  LYS187     -0.1314
    211  N         29.4750   17.7440   24.6260 N.3   514  SER514     -0.1217
    212  CA        28.2580   18.5370   24.6820 C.3   514  SER514      0.1889
    213  C         27.6810   18.5350   26.0980 C.2   514  SER514      0.2288
    214  O         27.9540   17.6420   26.9120 O.2   514  SER514     -0.2866
    215  CB        27.2390   18.0060   23.6670 C.3   514  SER514      0.2089
    216  OG        26.7050   16.7450   24.0440 O.3   514  SER514     -0.2183
    217  N         24.8020   17.8560   27.1820 N.3   516  LYS516     -0.1231
    218  CA        24.1040   16.6190   27.4840 C.3   516  LYS516      0.1693
    219  C         25.1000   15.5220   27.8270 C.2   516  LYS516      0.2591
    220  O         24.8850   14.7600   28.7800 O.2   516  LYS516     -0.2718
    221  CB        23.2420   16.2010   26.2850 C.3   516  LYS516      0.0285
    222  CG        22.7920   14.7460   26.2980 C.3   516  LYS516      0.0035
    223  CD        22.3970   14.2740   24.8990 C.3   516  LYS516      0.0206
    224  CE        23.4570   14.5690   23.8250 C.3   516  LYS516      0.1093
    225  NZ        24.7840   13.9780   24.1310 N.3   516  LYS516     -0.1314
    226  N         26.1880   15.4600   27.0640 N.am  517  GLU517     -0.1979
    227  CA        27.2340   14.4710   27.2840 C.3   517  GLU517      0.1602
    228  C         27.8280   14.6240   28.6780 C.2   517  GLU517      0.2287
    229  O         27.9930   13.6410   29.3980 O.2   517  GLU517     -0.2864
    230  CB        28.3310   14.6080   26.2290 C.3   517  GLU517      0.0415
    231  CG        28.6870   13.3060   25.5330 C.3   517  GLU517      0.1163
    232  CD        28.2830   13.3010   24.0730 C.2   517  GLU517      0.3649
    233  OE1       28.7530   14.1810   23.3240 O.co2 517  GLU517     -0.2457
    234  OE2       27.4950   12.4170   23.6760 O.co2 517  GLU517     -0.2457
@<TRIPOS>BOND
     1    52    51    2
     2    51    50    1
     3    54    55    1
     4    50    49    1
     5    50    53    1
     6    58    55    1
     7    58    59    1
     8    55    56    1
     9    59    60   ar
    10    59    61   ar
    11    56    57    2
    12    60    62   ar
    13    44    43    2
    14    61    63   ar
    15    37    36    2
    16    70    71    1
    17    70    69    1
    18    62    64   ar
    19    43    42    1
    20    65    66    1
    21    71    72    1
    22    72    73    1
    23    63    64   ar
    24    36    35    1
    25    36    41   am
    26    35    34    1
    27    35    38    1
    28    69    66    1
    29    66    67    1
    30    42    41    1
    31    42    45    1
    32   146   145    2
    33   145   144    1
    34    39    38    1
    35    38    40    1
    36    74    67   am
    37    74    75    1
    38    67    68    2
    39    45    46    2
    40   149   151   ar
    41   149   148   ar
    42   151   153   ar
    43   143   144    1
    44    78    75    1
    45    78    79    1
    46   144   147    1
    47    75    76    1
    48    81    79   ar
    49    81    83   ar
    50   147   148    1
    51   148   150   ar
    52   135   134    2
    53   127   126    2
    54    46    47    1
    55    79    80   ar
    56   134   133    1
    57   153   154    1
    58   153   152   ar
    59    76    77    2
    60   126   125    1
    61    83    84   ar
    62   132   133    1
    63   150   152   ar
    64    48    47    1
    65   133   136    1
    66    80    82   ar
    67    31    32    1
    68    31    28    1
    69    32    33    1
    70   129   131    1
    71   129   128    1
    72   129   130    1
    73   125   128    1
    74   125   124    1
    75    84    82   ar
    76    84    85    1
    77    86    87    1
    78   136   137    1
    79    94    92   ar
    80    91    92    1
    81    91    90    1
    82    33    27    1
    83    28    29    1
    84    28    27    1
    85   170   168    1
    86    29    30    2
    87    92    93   ar
    88   185   184    1
    89    87    90    1
    90    87    88    1
    91   186   184    1
    92    27    18   am
    93   168   169    1
    94   168   167    1
    95   137   139   ar
    96   137   138   ar
    97    15    13    1
    98    95    88   am
    99    95    96    1
   100   139   141   ar
   101   184   183    1
   102   138   140   ar
   103   155   156    1
   104    88    89    2
   105   100    99    1
   106   100   102    1
   107    99    96    1
   108    99   101    1
   109    12    11    2
   110    18    19    2
   111    18    17    1
   112   163   164    1
   113    96    97    1
   114   167   164    1
   115   161   160    1
   116   141   142   ar
   117   183   180    1
   118    13    14    1
   119    13    10    1
   120    97    98    2
   121   116   115    2
   122   164   165    1
   123   121   119   ar
   124   121   123   ar
   125   140   142   ar
   126    17    16    1
   127    17    20    1
   128    11    16   am
   129    11    10    1
   130   119   118   ar
   131   156   159    1
   132   156   157    1
   133     7     6    1
   134   160   159    1
   135   160   162    1
   136    10     9    1
   137   123   122   ar
   138     6     8    1
   139     6     5    1
   140   115   114    1
   141     9     3   am
   142   157   158    2
   143    20    21    1
   144   180   179    1
   145   180   181    1
   146   118   117    1
   147   118   120   ar
   148   165   166    2
   149   165   171   am
   150   117   114    1
   151     3     2    1
   152     3     4    2
   153   122   120   ar
   154   182   181    2
   155   181   187   am
   156     5     2    1
   157   114   113    1
   158     2     1    1
   159   106   105    2
   160    21    22    1
   161   171   172    1
   162   187   188    1
   163   105   104    1
   164   177   176   ar
   165   199   198    1
   166   199   200    1
   167   103   104    1
   168   188   191    1
   169   188   189    1
   170   107   104    1
   171   107   108    1
   172    22    23    1
   173   110   108   ar
   174   110   112   ar
   175   172   173    1
   176   172   175    1
   177   191   192    1
   178   173   174    2
   179   108   109   ar
   180   176   175    1
   181   176   178   ar
   182   201   200    2
   183   200   202   am
   184   192   193    1
   185    23    24    2
   186   189   190    2
   187   112   111   ar
   188   197   195    1
   189   194   195    2
   190   194   193    1
   191   195   196    1
   192   202   203    1
   193   109   111   ar
   194    24    25    1
   195    24    26    1
   196   203   204    1
   197   203   206    1
   198   204   205    2
   199   207   206    1
   200   207   208    1
   201   210   209    1
   202   209   208    1
   203   233   232   ar
   204   215   216    1
   205   215   212    1
   206   234   232   ar
   207   224   225    1
   208   224   223    1
   209   232   231    1
   210   211   212    1
   211   212   213    1
   212   223   222    1
   213   231   230    1
   214   213   214    2
   215   230   227    1
   216   221   222    1
   217   221   218    1
   218   226   227    1
   219   226   219   am
   220   217   218    1
   221   227   228    1
   222   218   219    1
   223   219   220    2
   224   228   229    2
