@<TRIPOS>MOLECULE
tmp/5ujcA01.pdb
 113 110 0 0 0
SMALL
GASTEIGER

@<TRIPOS>ATOM
      1  N          9.3580  -14.9690   -2.7320 N.3    91  ILE91      -0.1245
      2  CA         9.1830  -14.5070   -4.1050 C.3    91  ILE91       0.1561
      3  C         10.5370  -14.5810   -4.8400 C.2    91  ILE91       0.2260
      4  O         10.6220  -15.0760   -5.9510 O.2    91  ILE91      -0.2867
      5  CB         8.6320  -13.0850   -4.1670 C.3    91  ILE91       0.0252
      6  CG1        7.2120  -13.0290   -3.6240 C.3    91  ILE91       0.0019
      7  CG2        8.7050  -12.5130   -5.5770 C.3    91  ILE91       0.0019
      8  CD1        6.1630  -13.7310   -4.4790 C.3    91  ILE91       0.0001
      9  N         15.0790   -6.2240  -10.8990 N.3   118  ASP118     -0.1239
     10  CA        14.5190   -4.9400  -10.4350 C.3   118  ASP118      0.1674
     11  C         15.1380   -4.4760   -9.0980 C.2   118  ASP118      0.2266
     12  O         15.3130   -3.2870   -8.8730 O.2   118  ASP118     -0.2867
     13  CB        12.9780   -5.0190  -10.3340 C.3   118  ASP118      0.1410
     14  CG        12.5050   -5.9630   -9.2800 C.2   118  ASP118      0.3668
     15  OD1       12.8770   -7.1460   -9.3360 O.co2 118  ASP118     -0.2456
     16  OD2       11.7490   -5.5200   -8.3970 O.co2 118  ASP118     -0.2456
     17  N          0.9900   -5.9520  -12.7190 N.3   181  PHE181     -0.1227
     18  CA         2.1630   -6.6060  -13.2740 C.3   181  PHE181      0.1736
     19  C          3.3850   -6.0470  -12.5360 C.2   181  PHE181      0.2595
     20  O          3.2620   -5.0640  -11.7900 O.2   181  PHE181     -0.2718
     21  CB         2.2920   -6.3210  -14.8010 C.3   181  PHE181      0.0547
     22  CG         2.9260   -4.9850  -15.1230 C.ar  181  PHE181     -0.0202
     23  CD1        2.1980   -3.7980  -15.0420 C.ar  181  PHE181     -0.0042
     24  CD2        4.2490   -4.9130  -15.4990 C.ar  181  PHE181     -0.0042
     25  CE1        2.8100   -2.5710  -15.2990 C.ar  181  PHE181     -0.0003
     26  CE2        4.8690   -3.6850  -15.7450 C.ar  181  PHE181     -0.0003
     27  CZ         4.1400   -2.5150  -15.6550 C.ar  181  PHE181     -0.0000
     28  N          4.5580   -6.6450  -12.7680 N.am  182  ALA182     -0.1980
     29  CA         5.7980   -6.0880  -12.2700 C.3   182  ALA182      0.1597
     30  C          6.9240   -6.3530  -13.2230 C.2   182  ALA182      0.2287
     31  O          6.9370   -7.3660  -13.9120 O.2   182  ALA182     -0.2864
     32  CB         6.1260   -6.6750  -10.9060 C.3   182  ALA182      0.0319
     33  N         10.6950   -7.6120  -13.6960 N.3   184  ARG184     -0.1245
     34  CA        11.4650   -8.6000  -12.9270 C.3   184  ARG184      0.1563
     35  C         12.9540   -8.5810  -13.2480 C.2   184  ARG184      0.2260
     36  O         13.7790   -8.4800  -12.3310 O.2   184  ARG184     -0.2867
     37  CB        10.8790  -10.0240  -13.0890 C.3   184  ARG184      0.0307
     38  CG         9.4700  -10.1470  -12.5040 C.3   184  ARG184      0.0489
     39  CD         9.4540   -9.9230  -11.0000 C.3   184  ARG184      0.2205
     40  NE         8.1150  -10.0110  -10.4270 N.pl3 184  ARG184     -0.0865
     41  CZ         7.8270   -9.6510   -9.1900 C.cat 184  ARG184      0.5346
     42  NH1        8.8090   -9.3360   -8.3330 N.pl3 184  ARG184      0.1354
     43  NH2        6.5610   -9.6270   -8.7820 N.pl3 184  ARG184      0.1354
     44  N         -0.7670    3.1210   -2.3190 N.3   223  TRP223     -0.1241
     45  CA        -0.4850    1.8910   -3.0320 C.3   223  TRP223      0.1605
     46  C         -0.9600    0.6220   -2.3500 C.2   223  TRP223      0.2264
     47  O         -1.2450   -0.3930   -3.0340 O.2   223  TRP223     -0.2867
     48  CB         1.0210    1.7560   -3.3750 C.3   223  TRP223      0.0550
     49  CG         1.9370    1.8640   -2.2240 C.ar  223  TRP223      0.0003
     50  CD1        2.5940    2.9930   -1.7940 C.ar  223  TRP223      0.0946
     51  CD2        2.3650    0.8120   -1.3740 C.ar  223  TRP223      0.0152
     52  NE1        3.3640    2.7070   -0.7260 N.ar  223  TRP223     -0.2442
     53  CE2        3.2500    1.3680   -0.4460 C.ar  223  TRP223      0.0810
     54  CE3        2.0990   -0.5670   -1.3130 C.ar  223  TRP223      0.0012
     55  CZ2        3.8670    0.6080    0.5350 C.ar  223  TRP223      0.0191
     56  CZ3        2.7010   -1.3050   -0.3320 C.ar  223  TRP223      0.0001
     57  CH2        3.5950   -0.7280    0.5570 C.ar  223  TRP223      0.0015
     58  N         -4.3260    2.1230   -7.7630 N.3   228  PHE228     -0.1227
     59  CA        -3.5260    2.6030   -8.8760 C.3   228  PHE228      0.1736
     60  C         -3.4530    1.5750  -10.0070 C.2   228  PHE228      0.2595
     61  O         -3.2160    1.9270  -11.1630 O.2   228  PHE228     -0.2718
     62  CB        -2.1030    2.9980   -8.4290 C.3   228  PHE228      0.0547
     63  CG        -1.1920    1.8050   -8.1020 C.ar  228  PHE228     -0.0202
     64  CD1       -1.1880    1.2120   -6.8400 C.ar  228  PHE228     -0.0042
     65  CD2       -0.3570    1.2850   -9.0720 C.ar  228  PHE228     -0.0042
     66  CE1       -0.3580    0.1510   -6.5690 C.ar  228  PHE228     -0.0003
     67  CE2        0.4800    0.2310   -8.8040 C.ar  228  PHE228     -0.0003
     68  CZ         0.4950   -0.3330   -7.5490 C.ar  228  PHE228     -0.0000
     69  N         -3.6060    0.2970   -9.6550 N.am  229  ARG229     -0.1980
     70  CA        -3.4360   -0.7530  -10.6520 C.3   229  ARG229      0.1597
     71  C         -4.5450   -0.7790  -11.6880 C.2   229  ARG229      0.2287
     72  O         -4.3690   -1.3590  -12.7800 O.2   229  ARG229     -0.2864
     73  CB        -3.3090   -2.1270   -9.9850 C.3   229  ARG229      0.0334
     74  CG        -2.1910   -2.2290   -8.9500 C.3   229  ARG229      0.0492
     75  CD        -2.0840   -3.6350   -8.3860 C.3   229  ARG229      0.2205
     76  NE        -1.2660   -3.7180   -7.1910 N.pl3 229  ARG229     -0.0865
     77  CZ         0.0510   -3.9140   -7.1850 C.cat 229  ARG229      0.5346
     78  NH1        0.7310   -4.0150   -8.3260 N.pl3 229  ARG229      0.1354
     79  NH2        0.6900   -4.0000   -6.0290 N.pl3 229  ARG229      0.1354
     80  N         -4.5200   -8.7990  -10.7190 N.3   238  TYR238     -0.1241
     81  CA        -4.1010   -9.5620   -9.5530 C.3   238  TYR238      0.1605
     82  C         -5.3450  -10.0810   -8.8040 C.2   238  TYR238      0.2264
     83  O         -6.3420   -9.3690   -8.6800 O.2   238  TYR238     -0.2867
     84  CB        -3.3240   -8.6930   -8.5830 C.3   238  TYR238      0.0534
     85  CG        -1.8550   -8.3370   -8.9240 C.ar  238  TYR238     -0.0201
     86  CD1       -1.2450   -8.7280  -10.1030 C.ar  238  TYR238     -0.0009
     87  CD2       -1.1010   -7.6230   -8.0150 C.ar  238  TYR238     -0.0009
     88  CE1        0.1010   -8.4290  -10.3460 C.ar  238  TYR238      0.0417
     89  CE2        0.2430   -7.3490   -8.2290 C.ar  238  TYR238      0.0417
     90  CZ         0.8390   -7.7560   -9.3900 C.ar  238  TYR238      0.1957
     91  OH         2.1890   -7.4870   -9.6040 O.3   238  TYR238     -0.2866
     92  N          0.9390   -8.3530   -1.5180 N.3   246  PHE246     -0.1241
     93  CA         1.8700   -7.2690   -1.8450 C.3   246  PHE246      0.1605
     94  C          1.5580   -5.9710   -1.1280 C.2   246  PHE246      0.2264
     95  O          2.4110   -5.0990   -1.0300 O.2   246  PHE246     -0.2867
     96  CB         1.9600   -7.0540   -3.3560 C.3   246  PHE246      0.0534
     97  CG         2.7060   -8.1560   -4.0800 C.ar  246  PHE246     -0.0203
     98  CD1        3.9970   -8.4830   -3.7260 C.ar  246  PHE246     -0.0042
     99  CD2        2.1200   -8.8260   -5.1560 C.ar  246  PHE246     -0.0042
    100  CE1        4.6880   -9.4760   -4.4120 C.ar  246  PHE246     -0.0003
    101  CE2        2.7930   -9.8050   -5.8360 C.ar  246  PHE246     -0.0003
    102  CZ         4.1000  -10.1270   -5.4690 C.ar  246  PHE246     -0.0000
    103  N          3.4440  -11.4790    5.4710 N.3   253  ARG253     -0.1245
    104  CA         2.8750  -12.0340    4.2330 C.3   253  ARG253      0.1563
    105  C          2.6210  -13.5200    4.2610 C.2   253  ARG253      0.2260
    106  O          1.7330  -13.9870    3.5800 O.2   253  ARG253     -0.2867
    107  CB         3.7660  -11.7330    3.0650 C.3   253  ARG253      0.0307
    108  CG         3.8030  -10.2730    2.6750 C.3   253  ARG253      0.0489
    109  CD         4.7150  -10.1000    1.5240 C.3   253  ARG253      0.2205
    110  NE         4.8400   -8.7180    1.1340 N.pl3 253  ARG253     -0.0865
    111  CZ         5.5840   -8.3070    0.1220 C.cat 253  ARG253      0.5346
    112  NH1        6.3350   -9.1840   -0.5480 N.pl3 253  ARG253      0.1354
    113  NH2        5.5760   -7.0290   -0.2490 N.pl3 253  ARG253      0.1354
@<TRIPOS>BOND
     1    26    27   ar
     2    26    24   ar
     3    27    25   ar
     4    24    22   ar
     5    25    23   ar
     6    22    23   ar
     7    22    21    1
     8    21    18    1
     9    31    30    2
    10    33    34    1
    11    18    17    1
    12    18    19    1
    13    35    34    1
    14    35    36    2
    15    30    29    1
    16    37    34    1
    17    37    38    1
    18    72    71    2
    19    28    19   am
    20    28    29    1
    21    19    20    2
    22    38    39    1
    23    29    32    1
    24    71    70    1
    25    61    60    2
    26    39    40    1
    27     9    10    1
    28    80    81    1
    29    70    73    1
    30    70    69    1
    31    10    13    1
    32    10    11    1
    33    40    41    2
    34    88    86   ar
    35    88    90   ar
    36    13    14    1
    37    86    85   ar
    38    60    69   am
    39    60    59    1
    40    73    74    1
    41    91    90    1
    42    81    82    1
    43    81    84    1
    44    90    89   ar
    45    15    14   ar
    46    14    16   ar
    47    41    43    1
    48    41    42    1
    49    11    12    2
    50    65    67   ar
    51    65    63   ar
    52    74    75    1
    53    85    84    1
    54    85    87   ar
    55    59    62    1
    56    59    58    1
    57    82    83    2
    58    67    68   ar
    59    62    63    1
    60    75    76    1
    61    78    77    1
    62    89    87   ar
    63    63    64   ar
    64    68    66   ar
    65    76    77    2
    66    77    79    1
    67    64    66   ar
    68     4     3    2
    69   101   102   ar
    70   101    99   ar
    71     7     5    1
    72   102   100   ar
    73    99    97   ar
    74     3     2    1
    75     8     6    1
    76   100    98   ar
    77     5     2    1
    78     5     6    1
    79     2     1    1
    80    97    98   ar
    81    97    96    1
    82    48    45    1
    83    48    49    1
    84    96    93    1
    85    47    46    2
    86    45    46    1
    87    45    44    1
    88    49    50   ar
    89    49    51   ar
    90    93    92    1
    91    93    94    1
    92    50    52   ar
    93    51    54   ar
    94    51    53   ar
    95    54    56   ar
    96    94    95    2
    97    52    53   ar
    98   112   111    1
    99    53    55   ar
   100    56    57   ar
   101   113   111    1
   102   111   110    2
   103    55    57   ar
   104   110   109    1
   105   109   108    1
   106   108   107    1
   107   107   104    1
   108   106   105    2
   109   104   105    1
   110   104   103    1
