@<TRIPOS>MOLECULE
tmp/5ujcA02.pdb
 86 87 0 0 0
SMALL
GASTEIGER

@<TRIPOS>ATOM
      1  N          4.1440   17.5190   -8.0060 N.3   157  PRO157     -0.2103
      2  CA         3.3950   17.0050   -6.8550 C.3   157  PRO157      0.1489
      3  C          3.6330   17.8110   -5.5970 C.2   157  PRO157      0.2418
      4  O          4.5770   18.5960   -5.5480 O.2   157  PRO157     -0.2734
      5  CB         3.9640   15.5870   -6.6740 C.3   157  PRO157      0.0282
      6  CG         5.3030   15.6370   -7.3020 C.3   157  PRO157      0.0208
      7  CD         5.1790   16.5730   -8.4530 C.3   157  PRO157      0.0893
      8  N          2.7780   17.6170   -4.5700 N.am  158  PRO158     -0.2718
      9  CA         3.0440   18.1520   -3.2330 C.3   158  PRO158      0.1535
     10  C          4.4480   17.7810   -2.7510 C.2   158  PRO158      0.2598
     11  O          4.9980   16.7540   -3.1730 O.2   158  PRO158     -0.2715
     12  CB         1.9880   17.4570   -2.3630 C.3   158  PRO158      0.0310
     13  CG         0.8970   17.0910   -3.2950 C.3   158  PRO158      0.0237
     14  CD         1.5460   16.8010   -4.6050 C.3   158  PRO158      0.0939
     15  N          5.0330   18.6190   -1.9040 N.am  159  ALA159     -0.1964
     16  CA         6.3030   18.2810   -1.2420 C.3   159  ALA159      0.1728
     17  C          6.0280   17.7800    0.1550 C.2   159  ALA159      0.2617
     18  O          5.0850   18.2310    0.8080 O.2   159  ALA159     -0.2715
     19  CB         7.2200   19.4930   -1.1950 C.3   159  ALA159      0.0334
     20  N          6.8500   16.8320    0.6080 N.am  160  GLY160     -0.1940
     21  CA         6.8330   16.3790    2.0050 C.3   160  GLY160      0.2014
     22  C          5.5780   15.6210    2.4130 C.2   160  GLY160      0.2639
     23  O          5.1830   15.6650    3.5710 O.2   160  GLY160     -0.2714
     24  N          4.9610   14.9060    1.4700 N.am  161  ARG161     -0.1963
     25  CA         3.7820   14.0910    1.7790 C.3   161  ARG161      0.1729
     26  C          4.1720   12.6450    2.1230 C.2   161  ARG161      0.2616
     27  O          3.3500   11.8780    2.6290 O.2   161  ARG161     -0.2715
     28  CB         2.7860   14.1000    0.6000 C.3   161  ARG161      0.0348
     29  CG         1.8920   15.3390    0.5470 C.3   161  ARG161      0.0492
     30  CD         0.7630   15.2730    1.5670 C.3   161  ARG161      0.2205
     31  NE        -0.0990   14.0980    1.3610 N.pl3 161  ARG161     -0.0865
     32  CZ        -1.0790   14.0110    0.4490 C.cat 161  ARG161      0.5346
     33  NH1       -1.3530   15.0380   -0.3710 N.pl3 161  ARG161      0.1354
     34  NH2       -1.7900   12.8820    0.3490 N.pl3 161  ARG161      0.1354
     35  N          5.4220   12.2750    1.8490 N.am  162  MET162     -0.1963
     36  CA         5.8450   10.8920    2.0160 C.3   162  MET162      0.1736
     37  C          6.9320   10.7670    3.0610 C.2   162  MET162      0.2617
     38  O          7.5460   11.7670    3.4830 O.2   162  MET162     -0.2715
     39  CB         6.3080   10.3270    0.7010 C.3   162  MET162      0.0427
     40  CG         5.2220   10.3470   -0.3520 C.3   162  MET162      0.0599
     41  SD         5.8610    9.9930   -1.9530 S.3   162  MET162     -0.1393
     42  CE         6.0410    8.2120   -1.8370 C.3   162  MET162      0.0692
     43  N          7.1460    9.5410    3.5050 N.am  163  GLY163     -0.1955
     44  CA         8.0780    9.2680    4.5900 C.3   163  GLY163      0.1869
     45  C          9.5390    9.4620    4.2090 C.2   163  GLY163      0.2309
     46  O          9.8530    9.7470    3.0390 O.2   163  GLY163     -0.2863
     47  N         11.8080    8.5290    0.8820 N.3   166  LEU166     -0.1231
     48  CA        10.8860    8.2040   -0.1910 C.3   166  LEU166      0.1693
     49  C         10.6840    9.3990   -1.1080 C.2   166  LEU166      0.2592
     50  O         10.6220   10.5380   -0.6560 O.2   166  LEU166     -0.2718
     51  CB         9.5530    7.7390    0.3630 C.3   166  LEU166      0.0284
     52  CG         9.5920    6.4880    1.2440 C.3   166  LEU166      0.0019
     53  CD1        8.2460    6.2650    1.9130 C.3   166  LEU166      0.0001
     54  CD2        9.9880    5.2570    0.4320 C.3   166  LEU166      0.0001
     55  N         10.6220    9.1180   -2.4040 N.am  167  LYS167     -0.1966
     56  CA        10.3410   10.1110   -3.4000 C.3   167  LYS167      0.1728
     57  C          9.0190    9.8710   -4.0490 C.2   167  LYS167      0.2616
     58  O          8.5360    8.7680   -4.0800 O.2   167  LYS167     -0.2715
     59  CB        11.4410   10.1000   -4.4600 C.3   167  LYS167      0.0311
     60  CG        12.8130   10.4590   -3.8880 C.3   167  LYS167      0.0038
     61  CD        12.8930   11.9580   -3.5130 C.3   167  LYS167      0.0206
     62  CE        14.1010   12.2540   -2.6450 C.3   167  LYS167      0.1093
     63  NZ        15.3810   11.9590   -3.3430 N.3   167  LYS167     -0.1314
     64  N          8.4570   10.9190   -4.6360 N.am  168  PHE168     -0.1974
     65  CA         7.2270   10.7840   -5.4390 C.3   168  PHE168      0.1639
     66  C          7.6250   10.3000   -6.8220 C.2   168  PHE168      0.2290
     67  O          8.1750   11.0520   -7.6220 O.2   168  PHE168     -0.2864
     68  CB         6.4780   12.1360   -5.4780 C.3   168  PHE168      0.0560
     69  CG         5.0860   12.0600   -6.0970 C.ar  168  PHE168     -0.0200
     70  CD1        4.9200   12.1260   -7.4630 C.ar  168  PHE168     -0.0042
     71  CD2        3.9710   11.9240   -5.3010 C.ar  168  PHE168     -0.0042
     72  CE1        3.6610   12.1350   -8.0260 C.ar  168  PHE168     -0.0003
     73  CE2        2.6990   11.9300   -5.8500 C.ar  168  PHE168     -0.0003
     74  CZ         2.5410   12.0420   -7.2180 C.ar  168  PHE168     -0.0000
     75  N          0.7420    7.5730   -2.6440 N.3   221  TYR221     -0.1241
     76  CA         0.1150    7.8300   -1.3270 C.3   221  TYR221      0.1605
     77  C         -0.7450    6.6730   -0.8160 C.2   221  TYR221      0.2264
     78  O         -1.0060    6.5980    0.3870 O.2   221  TYR221     -0.2867
     79  CB        -0.7370    9.0880   -1.3840 C.3   221  TYR221      0.0534
     80  CG        -0.0030   10.3370   -1.8500 C.ar  221  TYR221     -0.0201
     81  CD1        1.3680   10.5180   -1.6050 C.ar  221  TYR221     -0.0009
     82  CD2       -0.6990   11.3690   -2.4600 C.ar  221  TYR221     -0.0009
     83  CE1        2.0160   11.6800   -1.9940 C.ar  221  TYR221      0.0417
     84  CE2       -0.0560   12.5150   -2.8630 C.ar  221  TYR221      0.0417
     85  CZ         1.2970   12.6690   -2.6360 C.ar  221  TYR221      0.1957
     86  OH         1.9000   13.8450   -3.0200 O.3   221  TYR221     -0.2866
@<TRIPOS>BOND
     1     7     1    1
     2     7     6    1
     3    72    70   ar
     4    72    74   ar
     5     1     2    1
     6    67    66    2
     7    70    69   ar
     8     6     5    1
     9    74    73   ar
    10     2     5    1
    11     2     3    1
    12    66    65    1
    13    69    68    1
    14    69    71   ar
    15    73    71   ar
    16     3     4    2
    17     3     8   am
    18    68    65    1
    19    65    64    1
    20    64    57   am
    21    14     8    1
    22    14    13    1
    23     8     9    1
    24    59    60    1
    25    59    56    1
    26    58    57    2
    27    57    56    1
    28    60    61    1
    29    61    62    1
    30    56    55    1
    31    63    62    1
    32    13    12    1
    33     9    10    1
    34     9    12    1
    35    11    10    2
    36    86    85    1
    37    84    85   ar
    38    84    82   ar
    39    10    15   am
    40    75    76    1
    41    85    83   ar
    42    82    80   ar
    43    55    49   am
    44    83    81   ar
    45    41    42    1
    46    41    40    1
    47    15    16    1
    48    80    81   ar
    49    80    79    1
    50    79    76    1
    51    76    77    1
    52    16    19    1
    53    16    17    1
    54    49    50    2
    55    49    48    1
    56    77    78    2
    57    33    32    1
    58    40    39    1
    59    48    51    1
    60    48    47    1
    61    17    20   am
    62    17    18    2
    63    34    32    1
    64    51    52    1
    65    54    52    1
    66    32    31    2
    67    29    28    1
    68    29    30    1
    69    28    25    1
    70    20    21    1
    71    39    36    1
    72    52    53    1
    73    31    30    1
    74    24    25    1
    75    24    22   am
    76    25    26    1
    77    35    36    1
    78    35    26   am
    79    21    22    1
    80    36    37    1
    81    26    27    2
    82    22    23    2
    83    46    45    2
    84    37    38    2
    85    37    43   am
    86    43    44    1
    87    45    44    1
