@<TRIPOS>MOLECULE
tmp/5ujmA00.pdb
 174 168 0 0 0
SMALL
GASTEIGER

@<TRIPOS>ATOM
      1  N        164.6850  204.7810  140.3390 N.3    11  VAL11      -0.1231
      2  CA       163.2430  204.6120  140.1200 C.3    11  VAL11       0.1678
      3  C        162.8220  204.9390  138.6830 C.2    11  VAL11       0.2434
      4  O        162.3480  204.0300  137.9820 O.2    11  VAL11      -0.2733
      5  CB       162.4510  205.4290  141.1580 C.3    11  VAL11       0.0265
      6  CG1      160.9660  205.4850  140.8010 C.3    11  VAL11       0.0020
      7  CG2      162.6240  204.8230  142.5370 C.3    11  VAL11       0.0020
      8  N        162.9270  206.2010  138.1850 N.am   12  PRO12      -0.2718
      9  CA       162.9790  206.4040  136.7260 C.3    12  PRO12       0.1535
     10  C        164.4030  206.5970  136.2150 C.2    12  PRO12       0.2598
     11  O        165.3370  206.6040  137.0220 O.2    12  PRO12      -0.2715
     12  CB       162.1210  207.6580  136.5190 C.3    12  PRO12       0.0310
     13  CG       162.1310  208.3680  137.8450 C.3    12  PRO12       0.0237
     14  CD       162.8170  207.5050  138.8660 C.3    12  PRO12       0.0939
     15  N        164.5960  206.7850  134.9060 N.am   13  GLU13      -0.1964
     16  CA       165.9370  206.9870  134.3580 C.3    13  GLU13       0.1733
     17  C        165.8420  207.5420  132.9370 C.2    13  GLU13       0.2617
     18  O        164.7530  207.7230  132.3820 O.2    13  GLU13      -0.2715
     19  CB       166.7500  205.6820  134.3610 C.3    13  GLU13       0.0429
     20  CG       167.3210  205.2740  135.7140 C.3    13  GLU13       0.1163
     21  CD       168.5070  204.3420  135.5960 C.2    13  GLU13       0.3649
     22  OE1      168.5530  203.5590  134.6270 O.co2  13  GLU13      -0.2457
     23  OE2      169.3840  204.3810  136.4850 O.co2  13  GLU13      -0.2457
     24  N        167.0120  207.8360  132.3700 N.am   14  SER14      -0.1936
     25  CA       167.2080  208.2370  130.9740 C.3    14  SER14       0.2055
     26  C        168.7210  208.1350  130.7380 C.2    14  SER14       0.2643
     27  O        169.4590  208.1160  131.7230 O.2    14  SER14      -0.2714
     28  CB       166.6840  209.6520  130.7230 C.3    14  SER14       0.2130
     29  OG       167.4990  210.3460  129.7960 O.3    14  SER14      -0.2179
     30  N        169.2320  208.0660  129.5010 N.am   15  LEU15      -0.1963
     31  CA       168.4900  207.9320  128.2460 C.3    15  LEU15       0.1713
     32  C        168.5580  206.4760  127.7760 C.2    15  LEU15       0.2458
     33  O        169.2420  205.6570  128.3910 O.2    15  LEU15      -0.2730
     34  CB       169.0920  208.8600  127.1780 C.3    15  LEU15       0.0310
     35  CG       168.5290  210.2690  126.9510 C.3    15  LEU15       0.0022
     36  CD1      169.0910  210.8080  125.6440 C.3    15  LEU15       0.0001
     37  CD2      167.0140  210.3190  126.9110 C.3    15  LEU15       0.0001
     38  N        167.8900  206.1500  126.6720 N.am   16  PRO16      -0.2716
     39  CA       167.7510  204.7390  126.3040 C.3    16  PRO16       0.1536
     40  C        169.0700  204.0740  125.9460 C.2    16  PRO16       0.2599
     41  O        169.9810  204.6820  125.3790 O.2    16  PRO16      -0.2715
     42  CB       166.8110  204.7790  125.0960 C.3    16  PRO16       0.0310
     43  CG       166.0510  206.0420  125.2530 C.3    16  PRO16       0.0237
     44  CD       167.0020  207.0070  125.8650 C.3    16  PRO16       0.0939
     45  N        169.1530  202.7990  126.3180 N.am   17  CYS17      -0.1954
     46  CA       170.1550  201.8640  125.8360 C.3    17  CYS17       0.1843
     47  C        169.6290  200.9730  124.7180 C.2    17  CYS17       0.2625
     48  O        170.3200  200.0320  124.3200 O.2    17  CYS17      -0.2714
     49  CB       170.6830  201.0160  126.9880 C.3    17  CYS17       0.0997
     50  SG       171.3730  202.0090  128.3160 S.3    17  CYS17      -0.0797
     51  N        168.4140  201.2180  124.2290 N.am   18  ARG18      -0.1977
     52  CA       167.9510  200.5760  123.0030 C.3    18  ARG18       0.1597
     53  C        168.3520  201.5250  121.8870 C.2    18  ARG18       0.2287
     54  O        167.6920  202.5390  121.6500 O.2    18  ARG18      -0.2864
     55  CB       166.4380  200.3650  123.0320 C.3    18  ARG18       0.0334
     56  CG       165.8960  199.3990  124.0890 C.3    18  ARG18       0.0492
     57  CD       165.7100  198.0090  123.5030 C.3    18  ARG18       0.2205
     58  NE       165.1860  197.0450  124.4640 N.pl3  18  ARG18      -0.0865
     59  CZ       165.0780  195.7390  124.2260 C.cat  18  ARG18       0.5346
     60  NH1      165.4600  195.2320  123.0540 N.pl3  18  ARG18       0.1354
     61  NH2      164.5890  194.9360  125.1610 N.pl3  18  ARG18       0.1354
     62  N        156.7600  193.1920  129.2750 N.3    47  PRO47      -0.2102
     63  CA       156.4060  194.4920  129.8700 C.3    47  PRO47       0.1504
     64  C        157.5920  195.3860  130.2210 C.2    47  PRO47       0.2576
     65  O        157.3970  196.5970  130.3890 O.2    47  PRO47      -0.2718
     66  CB       155.6240  194.0920  131.1250 C.3    47  PRO47       0.0282
     67  CG       155.0060  192.8030  130.7630 C.3    47  PRO47       0.0208
     68  CD       156.0290  192.0940  129.9360 C.3    47  PRO47       0.0893
     69  N        158.8060  194.8480  130.3150 N.am   48  GLY48      -0.1957
     70  CA       159.9490  195.6190  130.7750 C.3    48  GLY48       0.1869
     71  C        160.9720  196.0140  129.7240 C.2    48  GLY48       0.2309
     72  O        162.1140  196.3380  130.0630 O.2    48  GLY48      -0.2863
     73  N        161.2240  198.5140  127.5040 N.3    50  GLY50      -0.1210
     74  CA       161.5030  199.8810  127.1080 C.3    50  GLY50       0.1956
     75  C        160.7300  200.3550  125.9010 C.2    50  GLY50       0.2612
     76  O        161.2090  201.2310  125.1770 O.2    50  GLY50      -0.2717
     77  N        159.5400  199.7980  125.6580 N.am   51  LYS51      -0.1965
     78  CA       158.7660  200.1740  124.4780 C.3    51  LYS51       0.1728
     79  C        158.2640  201.6110  124.5610 C.2    51  LYS51       0.2617
     80  O        158.5350  202.4280  123.6720 O.2    51  LYS51      -0.2715
     81  CB       157.5970  199.2090  124.2950 C.3    51  LYS51       0.0311
     82  CG       158.0360  197.7840  124.0200 C.3    51  LYS51       0.0038
     83  CD       156.9300  196.7760  124.2560 C.3    51  LYS51       0.0206
     84  CE       156.6640  196.5680  125.7300 C.3    51  LYS51       0.1093
     85  NZ       155.6410  195.5150  125.9330 N.3    51  LYS51      -0.1314
     86  N        157.5150  201.9430  125.6150 N.am   52  THR52      -0.1937
     87  CA       156.9500  203.2870  125.6960 C.3    52  THR52       0.2028
     88  C        158.0430  204.3280  125.9130 C.2    52  THR52       0.2642
     89  O        157.9630  205.4430  125.3800 O.2    52  THR52      -0.2714
     90  CB       155.8920  203.3570  126.8000 C.3    52  THR52       0.1808
     91  OG1      155.0490  204.4950  126.5750 O.3    52  THR52      -0.2208
     92  CG2      156.5250  203.4730  128.1780 C.3    52  THR52       0.0379
     93  N        159.0800  203.9780  126.6750 N.am   53  ALA53      -0.1977
     94  CA       160.1950  204.8960  126.8790 C.3    53  ALA53       0.1597
     95  C        160.8560  205.2490  125.5550 C.2    53  ALA53       0.2287
     96  O        161.0690  206.4270  125.2470 O.2    53  ALA53      -0.2864
     97  CB       161.2070  204.2720  127.8380 C.3    53  ALA53       0.0319
     98  N        149.0050  203.2620  123.8170 N.3   124  ASP124     -0.1225
     99  CA       149.8370  202.3900  124.6300 C.3   124  ASP124      0.1805
    100  C        148.9480  201.3280  125.2610 C.2   124  ASP124      0.2597
    101  O        147.9630  201.6520  125.9350 O.2   124  ASP124     -0.2718
    102  CB       150.5820  203.1910  125.7010 C.3   124  ASP124      0.1424
    103  CG       151.7490  202.4210  126.3040 C.2   124  ASP124      0.3668
    104  OD1      151.9280  201.2330  125.9640 O.co2 124  ASP124     -0.2456
    105  OD2      152.4870  203.0060  127.1260 O.co2 124  ASP124     -0.2456
    106  N        149.2950  200.0630  125.0380 N.am  125  GLU125     -0.1979
    107  CA       148.5440  198.9420  125.5870 C.3   125  GLU125      0.1602
    108  C        147.0820  199.0080  125.1390 C.2   125  GLU125      0.2287
    109  O        146.1700  199.2540  125.9270 O.2   125  GLU125     -0.2864
    110  CB       148.6430  198.9330  127.1150 C.3   125  GLU125      0.0415
    111  CG       150.0710  198.9210  127.6310 C.3   125  GLU125      0.1163
    112  CD       150.1700  199.4410  129.0500 C.2   125  GLU125      0.3649
    113  OE1      149.1450  199.9160  129.5840 O.co2 125  GLU125     -0.2457
    114  OE2      151.2710  199.3960  129.6320 O.co2 125  GLU125     -0.2457
    115  N        151.1880  199.8880  121.0860 N.3   156  ILE156     -0.1245
    116  CA       152.0380  199.0960  121.9670 C.3   156  ILE156      0.1561
    117  C        151.1800  198.0740  122.6930 C.2   156  ILE156      0.2260
    118  O        150.0730  198.3850  123.1470 O.2   156  ILE156     -0.2867
    119  CB       152.7920  199.9840  122.9790 C.3   156  ILE156      0.0252
    120  CG1      153.6450  201.0200  122.2460 C.3   156  ILE156      0.0019
    121  CG2      153.6520  199.1240  123.9060 C.3   156  ILE156      0.0019
    122  CD1      154.2250  202.0690  123.1530 C.3   156  ILE156      0.0001
    123  N        151.8030  193.7580  124.6890 N.3   158  ASN158     -0.1240
    124  CA       152.7810  192.7770  125.1410 C.3   158  ASN158      0.1653
    125  C        152.8290  191.4900  124.3230 C.2   158  ASN158      0.2266
    126  O        153.7370  190.6810  124.5400 O.2   158  ASN158     -0.2867
    127  CB       152.5200  192.4160  126.6060 C.3   158  ASN158      0.1155
    128  CG       152.6690  193.6040  127.5320 C.2   158  ASN158      0.2627
    129  OD1      153.1440  194.6670  127.1320 O.2   158  ASN158     -0.2716
    130  ND2      152.2530  193.4310  128.7760 N.am  158  ASN158     -0.0877
    131  N        165.4300  191.5880  127.7300 N.3   173  TYR173     -0.1241
    132  CA       166.7960  192.0580  127.9410 C.3   173  TYR173      0.1605
    133  C        167.7350  190.9230  128.3290 C.2   173  TYR173      0.2264
    134  O        167.3840  190.0370  129.1130 O.2   173  TYR173     -0.2867
    135  CB       166.8270  193.1370  129.0240 C.3   173  TYR173      0.0534
    136  CG       166.4590  194.5200  128.5330 C.ar  173  TYR173     -0.0201
    137  CD1      167.0970  195.0740  127.4350 C.ar  173  TYR173     -0.0009
    138  CD2      165.4620  195.2610  129.1530 C.ar  173  TYR173     -0.0009
    139  CE1      166.7740  196.3330  126.9780 C.ar  173  TYR173      0.0417
    140  CE2      165.1250  196.5270  128.7000 C.ar  173  TYR173      0.0417
    141  CZ       165.7880  197.0560  127.6080 C.ar  173  TYR173      0.1957
    142  OH       165.4770  198.3100  127.1330 O.3   173  TYR173     -0.2866
    143  N        172.5090  198.7440  131.6150 N.3   181  ILE181     -0.1245
    144  CA       171.6390  199.8130  132.1090 C.3   181  ILE181      0.1561
    145  C        172.0420  200.2310  133.5160 C.2   181  ILE181      0.2260
    146  O        172.0090  201.4210  133.8570 O.2   181  ILE181     -0.2867
    147  CB       170.1630  199.3760  132.0680 C.3   181  ILE181      0.0252
    148  CG1      169.7260  199.1110  130.6290 C.3   181  ILE181      0.0019
    149  CG2      169.2770  200.4490  132.7060 C.3   181  ILE181      0.0019
    150  CD1      168.3010  198.5980  130.4970 C.3   181  ILE181      0.0001
    151  N        163.3520  195.0110  132.7680 N.3   205  ALA205     -0.1231
    152  CA       164.3190  195.9940  133.2400 C.3   205  ALA205      0.1694
    153  C        163.9800  196.5040  134.6330 C.2   205  ALA205      0.2591
    154  O        164.8800  196.7420  135.4440 O.2   205  ALA205     -0.2718
    155  CB       164.3920  197.1670  132.2660 C.3   205  ALA205      0.0304
    156  N        162.6920  196.6900  134.9310 N.am  206  ARG206     -0.1980
    157  CA       162.3090  197.1940  136.2460 C.3   206  ARG206      0.1597
    158  C        162.8400  196.3060  137.3600 C.2   206  ARG206      0.2287
    159  O        163.1720  196.8020  138.4420 O.2   206  ARG206     -0.2864
    160  CB       160.7910  197.3140  136.3550 C.3   206  ARG206      0.0334
    161  CG       160.1840  198.4000  135.4890 C.3   206  ARG206      0.0492
    162  CD       158.7330  198.6560  135.8670 C.3   206  ARG206      0.2205
    163  NE       158.1300  199.7080  135.0510 N.pl3 206  ARG206     -0.0865
    164  CZ       157.4420  199.5020  133.9290 C.cat 206  ARG206      0.5346
    165  NH1      157.2520  198.2720  133.4670 N.pl3 206  ARG206      0.1354
    166  NH2      156.9370  200.5310  133.2620 N.pl3 206  ARG206      0.1354
    167  N        166.5040  197.5660  138.4110 N.3   209  LEU209     -0.1245
    168  CA       166.5830  198.8030  139.1780 C.3   209  LEU209      0.1561
    169  C        165.9390  198.6510  140.5510 C.2   209  LEU209      0.2260
    170  O        166.4640  199.1610  141.5470 O.2   209  LEU209     -0.2867
    171  CB       165.9310  199.9400  138.3880 C.3   209  LEU209      0.0270
    172  CG       166.6350  200.3120  137.0810 C.3   209  LEU209      0.0019
    173  CD1      165.8200  201.2950  136.2670 C.3   209  LEU209      0.0001
    174  CD2      168.0020  200.9000  137.3710 C.3   209  LEU209      0.0001
@<TRIPOS>BOND
     1   115   116    1
     2    54    53    2
     3    53    52    1
     4   116   117    1
     5   116   119    1
     6   120   119    1
     7   120   122    1
     8   117   118    2
     9   119   121    1
    10    52    55    1
    11    52    51    1
    12    55    56    1
    13    60    59    1
    14    57    56    1
    15    57    58    1
    16    80    79    2
    17    98    99    1
    18    82    83    1
    19    82    81    1
    20    59    58    2
    21    59    61    1
    22    51    47   am
    23    83    84    1
    24    81    78    1
    25    48    47    2
    26   125   126    2
    27   125   124    1
    28    78    79    1
    29    78    77    1
    30    79    86   am
    31    99   100    1
    32    99   102    1
    33   123   124    1
    34    47    46    1
    35   106   100   am
    36   106   107    1
    37    42    43    1
    38    42    39    1
    39   108   107    1
    40   108   109    2
    41   124   127    1
    42    76    75    2
    43    96    95    2
    44    43    44    1
    45   100   101    2
    46    41    40    2
    47    89    88    2
    48    95    94    1
    49   107   110    1
    50    86    87    1
    51    36    35    1
    52    77    75   am
    53    87    88    1
    54    87    90    1
    55   102   103    1
    56    84    85    1
    57    46    45    1
    58    46    49    1
    59    44    38    1
    60    75    74    1
    61    88    93   am
    62    40    39    1
    63    40    45   am
    64   104   103   ar
    65   103   105   ar
    66    39    38    1
    67    91    90    1
    68   127   128    1
    69    38    32   am
    70    93    94    1
    71    90    92    1
    72    94    97    1
    73    37    35    1
    74    35    34    1
    75   139   137   ar
    76   139   141   ar
    77    49    50    1
    78    74    73    1
    79   110   111    1
    80   129   128    2
    81   142   141    1
    82    34    31    1
    83   137   136   ar
    84   128   130   am
    85   141   140   ar
    86   111   112    1
    87   131   132    1
    88    32    31    1
    89    32    33    2
    90   132   133    1
    91   132   135    1
    92    31    30    1
    93   133   134    2
    94   136   135    1
    95   136   138   ar
    96   140   138   ar
    97   112   113   ar
    98   112   114   ar
    99    62    63    1
   100    62    68    1
   101    30    26   am
   102    71    72    2
   103    71    70    1
   104    29    28    1
   105    63    64    1
   106    63    66    1
   107    68    67    1
   108    64    69   am
   109    64    65    2
   110    69    70    1
   111   150   148    1
   112   148   147    1
   113    28    25    1
   114    26    25    1
   115    26    27    2
   116    67    66    1
   117    25    24    1
   118   143   144    1
   119   147   144    1
   120   147   149    1
   121   144   145    1
   122   155   152    1
   123    24    17   am
   124    18    17    2
   125   151   152    1
   126    17    16    1
   127   152   153    1
   128   166   164    1
   129   165   164    1
   130   145   146    2
   131   164   163    2
   132    16    19    1
   133    16    15    1
   134    19    20    1
   135    22    21   ar
   136   153   156   am
   137   153   154    2
   138    15    10   am
   139   156   157    1
   140   163   162    1
   141   161   162    1
   142   161   160    1
   143    21    20    1
   144    21    23   ar
   145    10     9    1
   146    10    11    2
   147   157   160    1
   148   157   158    1
   149   173   172    1
   150    12     9    1
   151    12    13    1
   152     9     8    1
   153   172   174    1
   154   172   171    1
   155   158   159    2
   156    13    14    1
   157     4     3    2
   158     8     3   am
   159     8    14    1
   160   171   168    1
   161   167   168    1
   162     3     2    1
   163   168   169    1
   164     2     1    1
   165     2     5    1
   166   169   170    2
   167     6     5    1
   168     5     7    1
