@<TRIPOS>MOLECULE
tmp/5ujmD01.pdb
 221 213 0 0 0
SMALL
GASTEIGER

@<TRIPOS>ATOM
      1  N        142.5430  194.3860  174.4300 N.3    11  ARG11      -0.1231
      2  CA       143.6760  193.6430  173.8930 C.3    11  ARG11       0.1694
      3  C        143.2290  192.3950  173.1440 C.2    11  ARG11       0.2592
      4  O        143.7170  192.1160  172.0450 O.2    11  ARG11      -0.2718
      5  CB       144.6300  193.2730  175.0260 C.3    11  ARG11       0.0321
      6  CG       145.9230  192.6390  174.5600 C.3    11  ARG11       0.0489
      7  CD       146.8780  192.4280  175.7150 C.3    11  ARG11       0.2205
      8  NE       147.1880  193.6890  176.3750 N.pl3  11  ARG11      -0.0865
      9  CZ       147.8310  193.7880  177.5300 C.cat  11  ARG11       0.5346
     10  NH1      148.2370  192.6950  178.1630 N.pl3  11  ARG11       0.1354
     11  NH2      148.0660  194.9820  178.0550 N.pl3  11  ARG11       0.1354
     12  N        142.3120  191.6220  173.7300 N.am   12  PHE12      -0.1976
     13  CA       141.9190  190.3480  173.1300 C.3    12  PHE12       0.1639
     14  C        140.8970  190.5310  172.0140 C.2    12  PHE12       0.2290
     15  O        141.0740  190.0070  170.9100 O.2    12  PHE12      -0.2864
     16  CB       141.3510  189.4110  174.2010 C.3    12  PHE12       0.0560
     17  CG       142.3460  188.9970  175.2510 C.ar   12  PHE12      -0.0200
     18  CD1      143.6780  189.3800  175.1730 C.ar   12  PHE12      -0.0042
     19  CD2      141.9440  188.2040  176.3100 C.ar   12  PHE12      -0.0042
     20  CE1      144.5820  188.9920  176.1400 C.ar   12  PHE12      -0.0003
     21  CE2      142.8430  187.8130  177.2780 C.ar   12  PHE12      -0.0003
     22  CZ       144.1660  188.2040  177.1920 C.ar   12  PHE12      -0.0000
     23  N        141.7600  194.9680  168.7390 N.3    15  GLN15      -0.1231
     24  CA       143.1820  194.7200  168.5320 C.3    15  GLN15       0.1698
     25  C        143.9680  195.9050  169.0810 C.2    15  GLN15       0.2592
     26  O        143.9080  197.0100  168.5310 O.2    15  GLN15      -0.2718
     27  CB       143.4440  194.4770  167.0500 C.3    15  GLN15       0.0381
     28  CG       142.4860  193.4390  166.4640 C.3    15  GLN15       0.0905
     29  CD       142.5350  193.3610  164.9610 C.2    15  GLN15       0.2608
     30  OE1      142.8640  194.3360  164.2870 O.2    15  GLN15      -0.2717
     31  NE2      142.1830  192.2020  164.4210 N.am   15  GLN15      -0.0878
     32  N        144.7060  195.6740  170.1610 N.am   16  SER16      -0.1952
     33  CA       145.3620  196.7500  170.8930 C.3    16  SER16       0.1924
     34  C        146.4250  197.4170  170.0290 C.2    16  SER16       0.2314
     35  O        147.4040  196.7580  169.6510 O.2    16  SER16      -0.2863
     36  CB       146.0010  196.2120  172.1710 C.3    16  SER16       0.2116
     37  OG       146.7900  197.2070  172.8050 O.3    16  SER16      -0.2180
     38  N        151.1260  196.8610  171.8750 N.3    19  SER19      -0.1202
     39  CA       151.3420  195.5750  172.5220 C.3    19  SER19       0.2020
     40  C        152.7800  195.1650  172.2320 C.2    19  SER19       0.2619
     41  O        153.5520  195.9290  171.6430 O.2    19  SER19      -0.2717
     42  CB       150.3300  194.5340  172.0340 C.3    19  SER19       0.2103
     43  OG       150.4750  193.3110  172.7380 O.3    19  SER19      -0.2182
     44  N        153.1460  193.9580  172.6450 N.am   20  ASN20      -0.1960
     45  CA       154.4760  193.4450  172.3590 C.3    20  ASN20       0.1819
     46  C        154.5000  192.8490  170.9570 C.2    20  ASN20       0.2621
     47  O        153.6050  192.0850  170.5820 O.2    20  ASN20      -0.2715
     48  CB       154.8780  192.3990  173.3970 C.3    20  ASN20       0.1195
     49  CG       155.1860  193.0100  174.7470 C.2    20  ASN20       0.2630
     50  OD1      155.7600  194.0950  174.8340 O.2    20  ASN20      -0.2716
     51  ND2      154.7960  192.3170  175.8110 N.am   20  ASN20      -0.0877
     52  N        155.5220  193.2090  170.1830 N.am   21  LEU21      -0.1963
     53  CA       155.6740  192.7350  168.8120 C.3    21  LEU21       0.1728
     54  C        156.5810  191.5120  168.8260 C.2    21  LEU21       0.2616
     55  O        157.7700  191.6150  169.1410 O.2    21  LEU21      -0.2715
     56  CB       156.2450  193.8380  167.9270 C.3    21  LEU21       0.0311
     57  CG       155.4460  195.1430  167.8780 C.3    21  LEU21       0.0022
     58  CD1      156.1260  196.1370  166.9570 C.3    21  LEU21       0.0001
     59  CD2      154.0150  194.9000  167.4340 C.3    21  LEU21       0.0001
     60  N        156.0230  190.3570  168.4740 N.am   22  PHE22      -0.1974
     61  CA       156.7030  189.0760  168.6260 C.3    22  PHE22       0.1639
     62  C        157.2500  188.6090  167.2800 C.2    22  PHE22       0.2290
     63  O        156.4840  188.3660  166.3440 O.2    22  PHE22      -0.2864
     64  CB       155.7520  188.0270  169.2060 C.3    22  PHE22       0.0560
     65  CG       155.0970  188.4400  170.5000 C.ar   22  PHE22      -0.0200
     66  CD1      155.7690  188.3090  171.7030 C.ar   22  PHE22      -0.0042
     67  CD2      153.8010  188.9380  170.5150 C.ar   22  PHE22      -0.0042
     68  CE1      155.1690  188.6780  172.8930 C.ar   22  PHE22      -0.0003
     69  CE2      153.1970  189.3090  171.7050 C.ar   22  PHE22      -0.0003
     70  CZ       153.8810  189.1750  172.8930 C.ar   22  PHE22      -0.0000
     71  N        158.5390  189.8920  164.7860 N.3    24  VAL24      -0.1245
     72  CA       158.3790  190.7200  163.5970 C.3    24  VAL24       0.1561
     73  C        159.5390  191.6990  163.4900 C.2    24  VAL24       0.2260
     74  O        159.5310  192.5940  162.6390 O.2    24  VAL24      -0.2867
     75  CB       157.0310  191.4630  163.6230 C.3    24  VAL24       0.0252
     76  CG1      155.9040  190.4600  163.6790 C.3    24  VAL24       0.0019
     77  CG2      156.9620  192.4090  164.8130 C.3    24  VAL24       0.0019
     78  N        146.2040  184.3520  157.9280 N.3    53  ARG53      -0.1231
     79  CA       145.2780  185.3130  158.5600 C.3    53  ARG53       0.1694
     80  C        145.2820  185.1330  160.0540 C.2    53  ARG53       0.2593
     81  O        145.4770  184.0090  160.5270 O.2    53  ARG53      -0.2718
     82  CB       143.8750  185.1170  157.9950 C.3    53  ARG53       0.0321
     83  CG       142.8460  186.0990  158.4990 C.3    53  ARG53       0.0489
     84  CD       141.4810  185.7860  157.9170 C.3    53  ARG53       0.2205
     85  NE       141.4360  185.9650  156.4680 N.pl3  53  ARG53      -0.0865
     86  CZ       141.2250  187.1240  155.8520 C.cat  53  ARG53       0.5346
     87  NH1      141.0120  188.2350  156.5440 N.pl3  53  ARG53       0.1354
     88  NH2      141.2110  187.1720  154.5310 N.pl3  53  ARG53       0.1354
     89  N        145.1770  186.2280  160.8020 N.am   54  GLY54      -0.1942
     90  CA       145.1250  186.1650  162.2460 C.3    54  GLY54       0.2014
     91  C        146.4800  186.4020  162.8720 C.2    54  GLY54       0.2640
     92  O        146.5670  186.5010  164.1000 O.2    54  GLY54      -0.2714
     93  N        147.5320  186.5140  162.0760 N.am   55  SER55      -0.1935
     94  CA       148.8610  186.8070  162.5840 C.3    55  SER55       0.2055
     95  C        149.4480  187.9520  161.7780 C.2    55  SER55       0.2644
     96  O        149.1430  188.1120  160.5950 O.2    55  SER55      -0.2714
     97  CB       149.7720  185.5730  162.5070 C.3    55  SER55       0.2130
     98  OG       151.0540  185.8440  163.0430 O.3    55  SER55      -0.2179
     99  N        150.2930  188.7510  162.4200 N.am   56  GLY56      -0.1939
    100  CA       150.9270  189.8100  161.6690 C.3    56  GLY56       0.2014
    101  C        150.0510  190.9820  161.2780 C.2    56  GLY56       0.2639
    102  O        149.6680  191.8070  162.1120 O.2    56  GLY56      -0.2714
    103  N        149.7420  191.0480  159.9840 N.am   57  LYS57      -0.1963
    104  CA       149.7010  192.2560  159.1680 C.3    57  LYS57       0.1728
    105  C        149.1470  193.5170  159.8260 C.2    57  LYS57       0.2617
    106  O        149.9020  194.4660  160.0520 O.2    57  LYS57      -0.2715
    107  CB       148.8630  191.9540  157.9220 C.3    57  LYS57       0.0311
    108  CG       149.3890  190.8110  157.0550 C.3    57  LYS57       0.0038
    109  CD       148.2780  190.1650  156.2290 C.3    57  LYS57       0.0206
    110  CE       147.4810  189.1350  157.0360 C.3    57  LYS57       0.1093
    111  NZ       148.2740  187.9100  157.3710 N.3    57  LYS57      -0.1314
    112  N        147.8430  193.5710  160.1080 N.am   58  THR58      -0.1937
    113  CA       147.2230  194.8640  160.4090 C.3    58  THR58       0.2028
    114  C        147.8740  195.5530  161.6030 C.2    58  THR58       0.2642
    115  O        147.9300  196.7880  161.6450 O.2    58  THR58      -0.2714
    116  CB       145.7240  194.7060  160.6500 C.3    58  THR58       0.1808
    117  OG1      145.1270  194.0230  159.5410 O.3    58  THR58      -0.2208
    118  CG2      145.0670  196.0730  160.7960 C.3    58  THR58       0.0379
    119  N        148.3570  194.7940  162.5880 N.am   59  MET59      -0.1976
    120  CA       149.0120  195.4320  163.7250 C.3    59  MET59       0.1605
    121  C        150.3740  195.9820  163.3290 C.2    59  MET59       0.2287
    122  O        150.7490  197.0820  163.7470 O.2    59  MET59      -0.2864
    123  CB       149.1410  194.4540  164.8940 C.3    59  MET59       0.0413
    124  CG       147.8170  194.0710  165.5770 C.3    59  MET59       0.0598
    125  SD       146.9090  195.4730  166.2970 S.3    59  MET59      -0.1393
    126  CE       145.6670  195.8180  165.0470 C.3    59  MET59       0.0692
    127  N        143.9630  196.9830  152.2020 N.3   134  ASP134     -0.1225
    128  CA       143.7310  195.7860  152.9900 C.3   134  ASP134      0.1805
    129  C        142.8510  194.8190  152.2120 C.2   134  ASP134      0.2597
    130  O        141.9710  195.2270  151.4500 O.2   134  ASP134     -0.2718
    131  CB       143.0780  196.1330  154.3250 C.3   134  ASP134      0.1424
    132  CG       143.3290  195.0760  155.3860 C.2   134  ASP134      0.3668
    133  OD1      143.6500  193.9220  155.0140 O.co2 134  ASP134     -0.2456
    134  OD2      143.2170  195.3990  156.5910 O.co2 134  ASP134     -0.2456
    135  N        143.1030  193.5270  152.4010 N.am  135  GLU135     -0.1979
    136  CA       142.5010  192.5090  151.5480 C.3   135  GLU135      0.1602
    137  C        142.8950  192.7830  150.0990 C.2   135  GLU135      0.2287
    138  O        142.0550  192.9010  149.2040 O.2   135  GLU135     -0.2864
    139  CB       140.9790  192.4540  151.7240 C.3   135  GLU135      0.0415
    140  CG       140.5260  191.9960  153.1200 C.3   135  GLU135      0.1163
    141  CD       140.7310  190.5070  153.3580 C.2   135  GLU135      0.3649
    142  OE1      141.0600  189.7820  152.3940 O.co2 135  GLU135     -0.2457
    143  OE2      140.5740  190.0620  154.5140 O.co2 135  GLU135     -0.2457
    144  N        148.0850  194.3330  151.9070 N.3   167  LEU167     -0.1231
    145  CA       148.0150  193.2690  152.8970 C.3   167  LEU167      0.1693
    146  C        147.2040  192.1360  152.2970 C.2   167  LEU167      0.2593
    147  O        146.0960  192.3610  151.7950 O.2   167  LEU167     -0.2718
    148  CB       147.3630  193.7320  154.2040 C.3   167  LEU167      0.0284
    149  CG       147.8890  194.9910  154.8910 C.3   167  LEU167      0.0019
    150  CD1      147.1480  195.1760  156.2000 C.3   167  LEU167      0.0001
    151  CD2      149.3810  194.9180  155.1430 C.3   167  LEU167      0.0001
    152  N        147.7560  190.9270  152.3420 N.am  168  THR168     -0.1939
    153  CA       147.0850  189.7550  151.8070 C.3   168  THR168      0.2028
    154  C        147.5560  188.5280  152.5630 C.2   168  THR168      0.2642
    155  O        148.6320  188.5160  153.1620 O.2   168  THR168     -0.2714
    156  CB       147.3450  189.5750  150.3050 C.3   168  THR168      0.1808
    157  OG1      146.7640  188.3390  149.8760 O.3   168  THR168     -0.2208
    158  CG2      148.8310  189.5450  150.0130 C.3   168  THR168      0.0379
    159  N        146.7110  187.5060  152.5630 N.am  169  CYS169     -0.1967
    160  CA       147.0680  186.2040  153.1010 C.3   169  CYS169      0.1712
    161  C        147.4520  185.1950  152.0260 C.2   169  CYS169      0.2296
    162  O        147.8100  184.0620  152.3600 O.2   169  CYS169     -0.2864
    163  CB       145.9060  185.6590  153.9310 C.3   169  CYS169      0.0983
    164  SG       144.4310  185.3810  152.9440 S.3   169  CYS169     -0.0798
    165  N        154.9290  186.7980  157.6690 N.3   193  MET193     -0.1245
    166  CA       154.6690  186.8220  159.1070 C.3   193  MET193      0.1570
    167  C        154.7790  185.4360  159.7380 C.2   193  MET193      0.2261
    168  O        155.6790  185.1780  160.5430 O.2   193  MET193     -0.2867
    169  CB       153.2790  187.4070  159.3630 C.3   193  MET193      0.0387
    170  CG       153.0200  188.7170  158.6360 C.3   193  MET193      0.0595
    171  SD       154.3280  189.9250  158.9000 S.3   193  MET193     -0.1393
    172  CE       154.3720  190.0350  160.6880 C.3   193  MET193      0.0692
    173  N        155.8840  180.8420  165.0840 N.3   196  PHE196     -0.1241
    174  CA       156.9260  180.9450  166.0960 C.3   196  PHE196      0.1605
    175  C        157.1850  179.5530  166.6700 C.2   196  PHE196      0.2264
    176  O        156.7230  178.5410  166.1350 O.2   196  PHE196     -0.2867
    177  CB       156.4810  181.9220  167.1930 C.3   196  PHE196      0.0534
    178  CG       155.8410  183.1720  166.6640 C.ar  196  PHE196     -0.0203
    179  CD1      156.5680  184.0840  165.9190 C.ar  196  PHE196     -0.0042
    180  CD2      154.4950  183.4190  166.8870 C.ar  196  PHE196     -0.0042
    181  CE1      155.9720  185.2290  165.4280 C.ar  196  PHE196     -0.0003
    182  CE2      153.8970  184.5610  166.3950 C.ar  196  PHE196     -0.0003
    183  CZ       154.6340  185.4640  165.6650 C.ar  196  PHE196     -0.0000
    184  N        150.3900  188.2930  177.1910 N.3   208  GLN208     -0.1245
    185  CA       149.1000  188.8930  176.8600 C.3   208  GLN208      0.1566
    186  C        148.1550  188.8940  178.0530 C.2   208  GLN208      0.2260
    187  O        147.3200  189.7960  178.1730 O.2   208  GLN208     -0.2867
    188  CB       148.4620  188.1680  175.6730 C.3   208  GLN208      0.0367
    189  CG       149.2150  188.3140  174.3430 C.3   208  GLN208      0.0905
    190  CD       149.3960  189.7690  173.9050 C.2   208  GLN208      0.2608
    191  OE1      150.1070  190.5410  174.5480 O.2   208  GLN208     -0.2717
    192  NE2      148.7700  190.1350  172.7900 N.am  208  GLN208     -0.0878
    193  N        148.2650  183.9830  167.2430 N.3   247  LEU247     -0.1231
    194  CA       147.9650  184.7540  168.4420 C.3   247  LEU247      0.1693
    195  C        146.5010  185.1600  168.5350 C.2   247  LEU247      0.2591
    196  O        146.0340  185.4890  169.6320 O.2   247  LEU247     -0.2718
    197  CB       148.8380  186.0060  168.4910 C.3   247  LEU247      0.0284
    198  CG       150.2520  185.8370  169.0520 C.3   247  LEU247      0.0019
    199  CD1      151.0870  184.9660  168.1380 C.3   247  LEU247      0.0001
    200  CD2      150.9150  187.1850  169.2320 C.3   247  LEU247      0.0001
    201  N        145.7680  185.1730  167.4200 N.am  248  ARG248     -0.1980
    202  CA       144.3500  185.5070  167.4970 C.3   248  ARG248      0.1597
    203  C        143.5470  184.3510  168.0870 C.2   248  ARG248      0.2287
    204  O        142.6860  184.5660  168.9470 O.2   248  ARG248     -0.2864
    205  CB       143.8210  185.9090  166.1220 C.3   248  ARG248      0.0334
    206  CG       142.4780  186.6210  166.1930 C.3   248  ARG248      0.0492
    207  CD       142.2760  187.6010  165.0460 C.3   248  ARG248      0.2205
    208  NE       142.0830  186.9400  163.7630 N.pl3 248  ARG248     -0.0865
    209  CZ       141.9900  187.5800  162.5990 C.cat 248  ARG248      0.5346
    210  NH1      142.0790  188.9030  162.5490 N.pl3 248  ARG248      0.1354
    211  NH2      141.8170  186.8950  161.4780 N.pl3 248  ARG248      0.1354
    212  N        144.1150  184.5360  171.6690 N.3   251  HIS251     -0.1241
    213  CA       143.3340  185.6010  172.2890 C.3   251  HIS251      0.1621
    214  C        141.9220  185.1360  172.6160 C.2   251  HIS251      0.2264
    215  O        141.3920  185.4380  173.6920 O.2   251  HIS251     -0.2867
    216  CB       143.2770  186.8140  171.3640 C.3   251  HIS251      0.0745
    217  CG       144.5060  187.6590  171.4080 C.ar  251  HIS251      0.0817
    218  ND1      144.5430  188.9430  170.9090 N.ar  251  HIS251     -0.2268
    219  CD2      145.7430  187.4060  171.8940 C.ar  251  HIS251      0.1154
    220  CE1      145.7510  189.4440  171.0850 C.ar  251  HIS251      0.1986
    221  NE2      146.4990  188.5320  171.6790 N.ar  251  HIS251     -0.2212
@<TRIPOS>BOND
     1   138   137    2
     2   157   156    1
     3   158   156    1
     4   137   136    1
     5   156   153    1
     6   130   129    2
     7   136   139    1
     8   136   135    1
     9   139   140    1
    10   147   146    2
    11   153   152    1
    12   153   154    1
    13   144   145    1
    14   161   162    2
    15   161   160    1
    16   127   128    1
    17   129   135   am
    18   129   128    1
    19   146   152   am
    20   146   145    1
    21   142   141   ar
    22   154   159   am
    23   154   155    2
    24   159   160    1
    25   145   148    1
    26   164   163    1
    27   128   131    1
    28   160   163    1
    29   140   141    1
    30   141   143   ar
    31   148   149    1
    32   131   132    1
    33    88    86    1
    34   149   151    1
    35   149   150    1
    36   133   132   ar
    37   132   134   ar
    38    86    85    2
    39    86    87    1
    40   109   110    1
    41   109   108    1
    42    85    84    1
    43   110   111    1
    44   108   107    1
    45   165   166    1
    46    84    83    1
    47   107   104    1
    48    78    79    1
    49    82    83    1
    50    82    79    1
    51    79    80    1
    52   170   171    1
    53   170   169    1
    54   171   172    1
    55   166   169    1
    56   166   167    1
    57   104   105    1
    58   104   103    1
    59   117   116    1
    60   167   168    2
    61   105   106    2
    62   105   112   am
    63   103   101   am
    64    80    81    2
    65    80    89   am
    66   112   113    1
    67   113   116    1
    68   113   114    1
    69    96    95    2
    70   116   118    1
    71    89    90    1
    72   101   100    1
    73   101   102    2
    74   211   209    1
    75   114   115    2
    76   114   119   am
    77   100    99    1
    78    95    99   am
    79    95    94    1
    80    93    94    1
    81    93    91   am
    82    90    91    1
    83    97    94    1
    84    97    98    1
    85   210   209    1
    86   119   120    1
    87   209   208    2
    88    74    73    2
    89    91    92    2
    90   121   120    1
    91   121   122    2
    92    73    72    1
    93    72    75    1
    94    72    71    1
    95    75    76    1
    96    75    77    1
    97   120   123    1
    98   208   207    1
    99    30    29    2
   100    31    29   am
   101   123   124    1
   102    29    28    1
   103   207   206    1
   104   126   125    1
   105   173   174    1
   106   181   183   ar
   107   181   179   ar
   108   124   125    1
   109   183   182   ar
   110   179   178   ar
   111   174   175    1
   112   174   177    1
   113   205   206    1
   114   205   202    1
   115   176   175    2
   116    63    62    2
   117   182   180   ar
   118    28    27    1
   119   178   180   ar
   120   178   177    1
   121    58    57    1
   122    27    24    1
   123   193   194    1
   124    62    61    1
   125   201   202    1
   126   201   195   am
   127    59    57    1
   128   202   203    1
   129    57    56    1
   130    56    53    1
   131   203   204    2
   132   199   198    1
   133   194   197    1
   134   194   195    1
   135    60    61    1
   136    60    54   am
   137   197   198    1
   138    26    25    2
   139    24    23    1
   140    24    25    1
   141   195   196    2
   142    61    64    1
   143    53    54    1
   144    53    52    1
   145    54    55    2
   146   198   200    1
   147    25    32   am
   148    64    65    1
   149    35    34    2
   150    34    33    1
   151    32    33    1
   152    52    46   am
   153    65    67   ar
   154    65    66   ar
   155    67    69   ar
   156    47    46    2
   157    33    36    1
   158   218   220   ar
   159   218   217   ar
   160    15    14    2
   161    46    45    1
   162   220   221   ar
   163   216   217    1
   164   216   213    1
   165   217   219   ar
   166    41    40    2
   167   212   213    1
   168   221   219   ar
   169    66    68   ar
   170    69    70   ar
   171    38    39    1
   172    14    13    1
   173    42    39    1
   174    42    43    1
   175     4     3    2
   176    36    37    1
   177    40    39    1
   178    40    44   am
   179   213   214    1
   180    45    44    1
   181    45    48    1
   182   214   215    2
   183   192   190   am
   184    70    68   ar
   185    13    12    1
   186    13    16    1
   187     3    12   am
   188     3     2    1
   189    48    49    1
   190     2     1    1
   191     2     5    1
   192   190   189    1
   193   190   191    2
   194    16    17    1
   195   189   188    1
   196     6     5    1
   197     6     7    1
   198    49    50    2
   199    49    51   am
   200    18    17   ar
   201    18    20   ar
   202    17    19   ar
   203   188   185    1
   204     7     8    1
   205    20    22   ar
   206    19    21   ar
   207     8     9    2
   208   185   184    1
   209   185   186    1
   210    22    21   ar
   211     9    11    1
   212     9    10    1
   213   186   187    2
