@<TRIPOS>MOLECULE
tmp/5ujmE00.pdb
 171 165 0 0 0
SMALL
GASTEIGER

@<TRIPOS>ATOM
      1  N        112.9710  182.5520  181.4320 N.3     1  VAL1       -0.1231
      2  CA       113.9800  181.6880  180.8260 C.3     1  VAL1        0.1692
      3  C        114.4160  180.6380  181.8390 C.2     1  VAL1        0.2591
      4  O        114.7750  180.9700  182.9680 O.2     1  VAL1       -0.2718
      5  CB       115.2080  182.4810  180.3400 C.3     1  VAL1        0.0266
      6  CG1      115.9550  181.6790  179.2970 C.3     1  VAL1        0.0020
      7  CG2      114.8260  183.8660  179.8090 C.3     1  VAL1        0.0020
      8  N        114.3990  179.3740  181.4250 N.am    2  LEU2       -0.1980
      9  CA       114.7980  178.2680  182.2820 C.3     2  LEU2        0.1596
     10  C        115.5800  177.2570  181.4580 C.2     2  LEU2        0.2287
     11  O        115.3980  177.1500  180.2420 O.2     2  LEU2       -0.2864
     12  CB       113.5910  177.5730  182.9270 C.3     2  LEU2        0.0297
     13  CG       112.5600  178.4650  183.6180 C.3     2  LEU2        0.0022
     14  CD1      111.3520  177.6320  183.9840 C.3     2  LEU2        0.0001
     15  CD2      113.1410  179.1320  184.8580 C.3     2  LEU2        0.0001
     16  N        119.1790  174.3390  167.3370 N.3    31  HIS31      -0.1226
     17  CA       118.0190  174.0200  166.5220 C.3    31  HIS31       0.1752
     18  C        117.0030  175.1590  166.5440 C.2    31  HIS31       0.2597
     19  O        117.1970  176.1970  167.1780 O.2    31  HIS31      -0.2718
     20  CB       117.3750  172.7260  167.0080 C.3    31  HIS31       0.0759
     21  CG       118.1590  171.5000  166.6710 C.ar   31  HIS31       0.0818
     22  ND1      117.8020  170.6450  165.6500 N.ar   31  HIS31      -0.2268
     23  CD2      119.2790  170.9820  167.2240 C.ar   31  HIS31       0.1154
     24  CE1      118.6700  169.6510  165.5900 C.ar   31  HIS31       0.1986
     25  NE2      119.5770  169.8320  166.5330 N.ar   31  HIS31      -0.2212
     26  N        115.8890  174.9510  165.8370 N.am   32  THR32      -0.1939
     27  CA       114.8030  175.9280  165.8120 C.3    32  THR32       0.2028
     28  C        114.3460  176.2980  167.2240 C.2    32  THR32       0.2642
     29  O        114.2930  177.4770  167.5890 O.2    32  THR32      -0.2714
     30  CB       113.6360  175.3950  164.9580 C.3    32  THR32       0.1808
     31  OG1      112.7130  176.4570  164.6850 O.3    32  THR32      -0.2208
     32  CG2      112.9030  174.2190  165.6140 C.3    32  THR32       0.0379
     33  N        114.0010  175.2970  168.0250 N.am   33  ALA33      -0.1963
     34  CA       113.3470  175.5040  169.3060 C.3    33  ALA33       0.1728
     35  C        114.3270  175.6160  170.4620 C.2    33  ALA33       0.2617
     36  O        113.8960  175.6750  171.6160 O.2    33  ALA33      -0.2715
     37  CB       112.3600  174.3670  169.5670 C.3    33  ALA33       0.0334
     38  N        115.6290  175.6450  170.1790 N.am   34  SER34      -0.1936
     39  CA       116.6360  175.6950  171.2300 C.3    34  SER34       0.2055
     40  C        116.4100  176.8380  172.2050 C.2    34  SER34       0.2644
     41  O        116.9030  176.7780  173.3380 O.2    34  SER34      -0.2714
     42  CB       118.0180  175.8490  170.6070 C.3    34  SER34       0.2130
     43  OG       118.0770  177.0750  169.9160 O.3    34  SER34      -0.2179
     44  N        115.6920  177.8770  171.7970 N.am   35  GLY35      -0.1939
     45  CA       115.5200  179.0450  172.6300 C.3    35  GLY35       0.2014
     46  C        116.5550  180.1250  172.4230 C.2    35  GLY35       0.2639
     47  O        116.7110  180.9820  173.2980 O.2    35  GLY35      -0.2714
     48  N        117.2810  180.1060  171.3040 N.am   36  LYS36      -0.1963
     49  CA       118.3610  181.0690  171.1040 C.3    36  LYS36       0.1728
     50  C        117.8660  182.5040  171.2380 C.2    36  LYS36       0.2617
     51  O        118.2960  183.2400  172.1330 O.2    36  LYS36      -0.2715
     52  CB       119.0390  180.8370  169.7490 C.3    36  LYS36       0.0311
     53  CG       119.8870  179.5650  169.7040 C.3    36  LYS36       0.0038
     54  CD       120.2490  179.0960  168.2900 C.3    36  LYS36       0.0206
     55  CE       119.0450  178.6400  167.4870 C.3    36  LYS36       0.1093
     56  NZ       119.4240  178.0530  166.1760 N.3    36  LYS36      -0.1314
     57  N        116.9640  182.9310  170.3520 N.am   37  THR37      -0.1937
     58  CA       116.5980  184.3430  170.3320 C.3    37  THR37       0.2028
     59  C        115.7880  184.7490  171.5590 C.2    37  THR37       0.2642
     60  O        115.8530  185.9110  171.9790 O.2    37  THR37      -0.2714
     61  CB       115.8200  184.6870  169.0660 C.3    37  THR37       0.1808
     62  OG1      115.7380  186.1100  168.9630 O.3    37  THR37      -0.2208
     63  CG2      114.4120  184.1280  169.1200 C.3    37  THR37       0.0379
     64  N        115.0080  183.8330  172.1330 N.am   38  TYR38      -0.1973
     65  CA       114.3280  184.1610  173.3800 C.3    38  TYR38       0.1639
     66  C        115.3350  184.6130  174.4280 C.2    38  TYR38       0.2290
     67  O        115.0800  185.5580  175.1810 O.2    38  TYR38      -0.2864
     68  CB       113.5140  182.9620  173.8650 C.3    38  TYR38       0.0560
     69  CG       112.7420  183.1890  175.1420 C.ar   38  TYR38      -0.0198
     70  CD1      111.5720  183.9350  175.1390 C.ar   38  TYR38      -0.0009
     71  CD2      113.1530  182.6220  176.3390 C.ar   38  TYR38      -0.0009
     72  CE1      110.8460  184.1360  176.2950 C.ar   38  TYR38       0.0417
     73  CE2      112.4290  182.8120  177.5010 C.ar   38  TYR38       0.0417
     74  CZ       111.2800  183.5720  177.4760 C.ar   38  TYR38       0.1957
     75  OH       110.5630  183.7630  178.6380 O.3    38  TYR38      -0.2866
     76  N        119.4940  187.2550  162.6020 N.3   105  ASP105     -0.1225
     77  CA       118.8300  185.9720  162.7460 C.3   105  ASP105      0.1805
     78  C        118.7920  185.2590  161.4020 C.2   105  ASP105      0.2597
     79  O        118.6290  185.8920  160.3530 O.2   105  ASP105     -0.2718
     80  CB       117.4150  186.1720  163.2920 C.3   105  ASP105      0.1424
     81  CG       116.8250  184.9040  163.8660 C.2   105  ASP105      0.3668
     82  OD1      117.2240  183.8010  163.4330 O.co2 105  ASP105     -0.2456
     83  OD2      115.9650  185.0100  164.7650 O.co2 105  ASP105     -0.2456
     84  N        118.9500  183.9360  161.4380 N.am  106  LYS106     -0.1979
     85  CA       118.9950  183.1250  160.2230 C.3   106  LYS106      0.1596
     86  C        120.1130  183.6060  159.3010 C.2   106  LYS106      0.2287
     87  O        119.9260  183.7820  158.0970 O.2   106  LYS106     -0.2864
     88  CB       117.6430  183.1320  159.5060 C.3   106  LYS106      0.0298
     89  CG       116.5070  182.5510  160.3410 C.3   106  LYS106      0.0038
     90  CD       115.1970  182.4960  159.5710 C.3   106  LYS106      0.0206
     91  CE       114.0440  182.0660  160.4680 C.3   106  LYS106      0.1093
     92  NZ       114.3060  180.7610  161.1410 N.3   106  LYS106     -0.1314
     93  N        123.1590  184.0830  164.6250 N.3   137  LEU137     -0.1231
     94  CA       122.5760  182.8370  165.1000 C.3   137  LEU137      0.1693
     95  C        121.8680  182.1660  163.9360 C.2   137  LEU137      0.2593
     96  O        121.1310  182.8220  163.1950 O.2   137  LEU137     -0.2718
     97  CB       121.6300  183.0640  166.2860 C.3   137  LEU137      0.0284
     98  CG       120.4690  184.0370  166.1520 C.3   137  LEU137      0.0019
     99  CD1      119.2620  183.3100  165.5980 C.3   137  LEU137      0.0001
    100  CD2      120.1550  184.6620  167.5020 C.3   137  LEU137      0.0001
    101  N        122.1280  180.8730  163.7590 N.am  138  SER138     -0.1938
    102  CA       121.5510  180.0980  162.6680 C.3   138  SER138      0.2055
    103  C        121.5700  178.6300  163.0670 C.2   138  SER138      0.2642
    104  O        122.2610  178.2340  164.0090 O.2   138  SER138     -0.2714
    105  CB       122.3100  180.3120  161.3510 C.3   138  SER138      0.2130
    106  OG       123.5750  179.6670  161.3630 O.3   138  SER138     -0.2179
    107  N        120.7970  177.8300  162.3390 N.am  139  GLU139     -0.1976
    108  CA       120.7430  176.3940  162.5770 C.3   139  GLU139      0.1602
    109  C        121.8160  175.6370  161.8160 C.2   139  GLU139      0.2287
    110  O        121.8270  174.4020  161.8540 O.2   139  GLU139     -0.2864
    111  CB       119.3760  175.8260  162.1790 C.3   139  GLU139      0.0415
    112  CG       118.1880  176.4120  162.9100 C.3   139  GLU139      0.1163
    113  CD       116.9430  175.5470  162.7830 C.2   139  GLU139      0.3649
    114  OE1      117.0570  174.3840  162.3340 O.co2 139  GLU139     -0.2457
    115  OE2      115.8450  176.0400  163.1180 O.co2 139  GLU139     -0.2457
    116  N        116.8920  171.0100  173.8870 N.3   162  TYR162     -0.1241
    117  CA       116.2400  170.7340  175.1570 C.3   162  TYR162      0.1605
    118  C        116.0080  169.2400  175.3230 C.2   162  TYR162      0.2264
    119  O        115.5780  168.5500  174.3970 O.2   162  TYR162     -0.2867
    120  CB       114.9110  171.4710  175.2570 C.3   162  TYR162      0.0534
    121  CG       115.0340  172.9730  175.3770 C.ar  162  TYR162     -0.0201
    122  CD1      115.6230  173.5580  176.4930 C.ar  162  TYR162     -0.0009
    123  CD2      114.5280  173.8070  174.3880 C.ar  162  TYR162     -0.0009
    124  CE1      115.7250  174.9330  176.6070 C.ar  162  TYR162      0.0417
    125  CE2      114.6210  175.1780  174.4940 C.ar  162  TYR162      0.0417
    126  CZ       115.2190  175.7370  175.6030 C.ar  162  TYR162      0.1957
    127  OH       115.3110  177.1060  175.7040 O.3   162  TYR162     -0.2866
    128  N        110.1630  173.5900  181.3410 N.3   170  ILE170     -0.1245
    129  CA       109.8170  174.8110  180.6230 C.3   170  ILE170      0.1561
    130  C        108.3660  174.7660  180.1750 C.2   170  ILE170      0.2260
    131  O        107.6120  175.7340  180.3200 O.2   170  ILE170     -0.2867
    132  CB       110.7570  174.9920  179.4130 C.3   170  ILE170      0.0252
    133  CG1      112.1360  175.4850  179.8520 C.3   170  ILE170      0.0019
    134  CG2      110.1440  175.9400  178.3710 C.3   170  ILE170      0.0019
    135  CD1      113.2070  175.2640  178.8090 C.3   170  ILE170      0.0001
    136  N        104.9440  176.5190  183.7940 N.3   174  ASP174     -0.1239
    137  CA       104.8390  177.9590  183.6030 C.3   174  ASP174      0.1674
    138  C        103.4650  178.4280  183.1240 C.2   174  ASP174      0.2266
    139  O        103.2520  179.6410  183.0190 O.2   174  ASP174     -0.2867
    140  CB       105.9230  178.4300  182.6320 C.3   174  ASP174      0.1410
    141  CG       107.2830  178.5230  183.2920 C.2   174  ASP174      0.3668
    142  OD1      107.3540  178.9950  184.4480 O.co2 174  ASP174     -0.2456
    143  OD2      108.2800  178.1200  182.6610 O.co2 174  ASP174     -0.2456
    144  N        109.8880  172.5010  170.9120 N.3   202  LEU202     -0.1231
    145  CA       109.1580  173.0690  172.0390 C.3   202  LEU202      0.1693
    146  C        107.9430  173.8500  171.5570 C.2   202  LEU202      0.2591
    147  O        106.8960  173.8530  172.2150 O.2   202  LEU202     -0.2718
    148  CB       110.0850  173.9690  172.8510 C.3   202  LEU202      0.0284
    149  CG       109.4660  174.7240  174.0230 C.3   202  LEU202      0.0019
    150  CD1      109.1120  173.7880  175.1550 C.3   202  LEU202      0.0001
    151  CD2      110.4330  175.7620  174.4780 C.3   202  LEU202      0.0001
    152  N        108.0640  174.5130  170.4090 N.am  203  LYS203     -0.1980
    153  CA       106.9620  175.3100  169.8810 C.3   203  LYS203      0.1596
    154  C        105.7360  174.4450  169.6220 C.2   203  LYS203      0.2287
    155  O        104.6180  174.8000  170.0070 O.2   203  LYS203     -0.2864
    156  CB       107.4060  176.0140  168.6000 C.3   203  LYS203      0.0298
    157  CG       106.3550  176.9110  167.9770 C.3   203  LYS203      0.0038
    158  CD       106.9240  177.6300  166.7630 C.3   203  LYS203      0.0206
    159  CE       105.9020  178.5470  166.1120 C.3   203  LYS203      0.1093
    160  NZ       106.4800  179.2530  164.9340 N.3   203  LYS203     -0.1314
    161  N        104.0660  172.8760  172.7920 N.3   206  ARG206     -0.1245
    162  CA       103.1930  173.8210  173.4790 C.3   206  ARG206      0.1563
    163  C        101.8100  173.8470  172.8470 C.2   206  ARG206      0.2260
    164  O        100.7990  173.9430  173.5520 O.2   206  ARG206     -0.2867
    165  CB       103.8080  175.2150  173.4590 C.3   206  ARG206      0.0307
    166  CG       102.9130  176.2850  174.0540 C.3   206  ARG206      0.0489
    167  CD       103.5660  177.6380  173.9450 C.3   206  ARG206      0.2205
    168  NE       104.8230  177.6840  174.6810 N.pl3 206  ARG206     -0.0865
    169  CZ       105.6500  178.7220  174.6770 C.cat 206  ARG206      0.5346
    170  NH1      105.3510  179.8070  173.9750 N.pl3 206  ARG206      0.1354
    171  NH2      106.7720  178.6750  175.3800 N.pl3 206  ARG206      0.1354
@<TRIPOS>BOND
     1    87    86    2
     2    86    85    1
     3    88    85    1
     4    88    89    1
     5    90    89    1
     6    90    91    1
     7    85    84    1
     8    79    78    2
     9    91    92    1
    10   105   106    1
    11   105   102    1
    12    78    84   am
    13    78    77    1
    14   109   110    2
    15   109   108    1
    16   111   108    1
    17   111   112    1
    18   114   113   ar
    19   107   108    1
    20   107   103   am
    21    76    77    1
    22   102   103    1
    23   102   101    1
    24    77    80    1
    25   113   112    1
    26   113   115   ar
    27   103   104    2
    28    96    95    2
    29    80    81    1
    30    82    81   ar
    31   101    95   am
    32    81    83   ar
    33    95    94    1
    34    93    94    1
    35    31    30    1
    36   160   159    1
    37    30    32    1
    38    30    27    1
    39    94    97    1
    40    24    22   ar
    41    24    25   ar
    42    99    98    1
    43    22    21   ar
    44    27    26    1
    45    27    28    1
    46    26    18   am
    47   159   158    1
    48    98    97    1
    49    98   100    1
    50    56    55    1
    51    17    18    1
    52    17    20    1
    53    17    16    1
    54    25    23   ar
    55    18    19    2
    56    21    20    1
    57    21    23   ar
    58   158   157    1
    59    28    29    2
    60    28    33   am
    61    55    54    1
    62   157   156    1
    63    33    34    1
    64    54    53    1
    65   156   153    1
    66    62    61    1
    67    61    63    1
    68    61    58    1
    69    34    37    1
    70    34    35    1
    71   154   153    1
    72   154   155    2
    73    53    52    1
    74    52    49    1
    75   153   152    1
    76    43    42    1
    77    38    35   am
    78    38    39    1
    79    58    57    1
    80    58    59    1
    81    57    50   am
    82   152   146   am
    83    35    36    2
    84    42    39    1
    85   144   145    1
    86    49    50    1
    87    49    48    1
    88    39    40    1
    89    50    51    2
    90    48    46   am
    91   146   145    1
    92   146   147    2
    93    59    60    2
    94    59    64   am
    95    44    40   am
    96    44    45    1
    97   145   148    1
    98    64    65    1
    99    40    41    2
   100    46    45    1
   101    46    47    2
   102   161   162    1
   103   163   162    1
   104   163   164    2
   105   148   149    1
   106    65    68    1
   107    65    66    1
   108   165   162    1
   109   165   166    1
   110    68    69    1
   111   116   117    1
   112   167   166    1
   113   167   168    1
   114   170   169    1
   115   149   151    1
   116   149   150    1
   117   123   125   ar
   118   123   121   ar
   119   119   118    2
   120    66    67    2
   121   125   126   ar
   122   169   168    2
   123   169   171    1
   124    70    69   ar
   125    70    72   ar
   126    69    71   ar
   127   117   120    1
   128   117   118    1
   129   120   121    1
   130   121   122   ar
   131   126   127    1
   132   126   124   ar
   133    72    74   ar
   134    71    73   ar
   135   122   124   ar
   136    74    73   ar
   137    74    75    1
   138   134   132    1
   139   135   133    1
   140     6     5    1
   141   132   133    1
   142   132   129    1
   143     7     5    1
   144   130   131    2
   145   130   129    1
   146    11    10    2
   147     5     2    1
   148   129   128    1
   149     2     1    1
   150     2     3    1
   151     8     3   am
   152     8     9    1
   153    10     9    1
   154     3     4    2
   155     9    12    1
   156   140   141    1
   157   140   137    1
   158   143   141   ar
   159    12    13    1
   160   139   138    2
   161   138   137    1
   162   141   142   ar
   163   137   136    1
   164    13    14    1
   165    13    15    1
