@<TRIPOS>MOLECULE
tmp/5ujoB01.pdb
 97 93 0 0 0
SMALL
GASTEIGER

@<TRIPOS>ATOM
      1  N        -34.6080   33.9370   -8.3750 N.3    16  ARG16      -0.1245
      2  CA       -35.4160   32.7350   -8.2110 C.3    16  ARG16       0.1563
      3  C        -36.2610   32.8430   -6.9460 C.2    16  ARG16       0.2260
      4  O        -35.7410   33.1290   -5.8660 O.2    16  ARG16      -0.2867
      5  CB       -34.5170   31.4960   -8.1350 C.3    16  ARG16       0.0307
      6  CG       -35.2770   30.1800   -8.0550 C.3    16  ARG16       0.0489
      7  CD       -34.3410   28.9820   -8.1350 C.3    16  ARG16       0.2205
      8  NE       -33.4220   28.9190   -7.0000 N.pl3  16  ARG16      -0.0865
      9  CZ       -33.5150   28.0370   -6.0090 C.cat  16  ARG16       0.5346
     10  NH1      -34.5670   27.2350   -5.9280 N.pl3  16  ARG16       0.1354
     11  NH2      -32.6110   28.0310   -5.0390 N.pl3  16  ARG16       0.1354
     12  N        -38.7730   23.2480   -4.5450 N.3    36  GLU36      -0.1231
     13  CA       -37.3570   23.5150   -4.7890 C.3    36  GLU36       0.1699
     14  C        -36.6520   23.8700   -3.4890 C.2    36  GLU36       0.2592
     15  O        -37.2310   24.5150   -2.6150 O.2    36  GLU36      -0.2718
     16  CB       -37.1890   24.6520   -5.7980 C.3    36  GLU36       0.0402
     17  CG       -37.6960   24.3180   -7.1910 C.3    36  GLU36       0.1161
     18  CD       -37.3480   25.3830   -8.2130 C.2    36  GLU36       0.3649
     19  OE1      -36.2790   26.0140   -8.0770 O.co2  36  GLU36      -0.2457
     20  OE2      -38.0760   25.4930   -9.2220 O.co2  36  GLU36      -0.2457
     21  N        -35.3640   23.5510   -3.4160 N.am   37  ARG37      -0.1980
     22  CA       -34.5630   23.8920   -2.2490 C.3    37  ARG37       0.1597
     23  C        -34.0230   25.3150   -2.3410 C.2    37  ARG37       0.2287
     24  O        -33.6690   25.7880   -3.4220 O.2    37  ARG37      -0.2864
     25  CB       -33.4130   22.8980   -2.0790 C.3    37  ARG37       0.0334
     26  CG       -33.8580   21.5570   -1.5160 C.3    37  ARG37       0.0492
     27  CD       -32.6910   20.7430   -0.9830 C.3    37  ARG37       0.2205
     28  NE       -33.1400   19.5140   -0.3340 N.pl3  37  ARG37      -0.0865
     29  CZ       -33.4810   19.4290    0.9480 C.cat  37  ARG37       0.5346
     30  NH1      -33.1220   20.3870    1.7930 N.pl3  37  ARG37       0.1354
     31  NH2      -34.0200   18.3110    1.4160 N.pl3  37  ARG37       0.1354
     32  N        -31.6840   28.2920    0.0880 N.3    39  PRO39      -0.2116
     33  CA       -30.9050   28.5420    1.2990 C.3    39  PRO39       0.1372
     34  C        -31.6810   29.3510    2.3330 C.2    39  PRO39       0.2244
     35  O        -32.2450   30.3940    2.0050 O.2    39  PRO39      -0.2868
     36  CB       -29.6900   29.3230    0.7920 C.3    39  PRO39       0.0268
     37  CG       -30.1090   29.9170   -0.5050 C.3    39  PRO39       0.0207
     38  CD       -31.1790   29.0360   -1.0780 C.3    39  PRO39       0.0892
     39  N        -32.6020   20.7770    6.4560 N.3   133  ARG133     -0.1245
     40  CA       -31.2820   20.4090    6.9600 C.3   133  ARG133      0.1563
     41  C        -30.4690   21.6390    7.3430 C.2   133  ARG133      0.2260
     42  O        -30.4200   22.6220    6.6030 O.2   133  ARG133     -0.2867
     43  CB       -30.5210   19.5780    5.9250 C.3   133  ARG133      0.0307
     44  CG       -30.3780   20.2470    4.5690 C.3   133  ARG133      0.0489
     45  CD       -29.7020   19.3280    3.5650 C.3   133  ARG133      0.2205
     46  NE       -28.2820   19.1540    3.8550 N.pl3 133  ARG133     -0.0865
     47  CZ       -27.4380   18.4780    3.0830 C.cat 133  ARG133      0.5346
     48  NH1      -27.8880   17.8240    2.0210 N.pl3 133  ARG133      0.1354
     49  NH2      -26.1570   18.3930    3.4140 N.pl3 133  ARG133      0.1354
     50  N        -24.8010   29.3090   -1.7880 N.3   145  ILE145     -0.1231
     51  CA       -24.2010   28.9790   -3.0770 C.3   145  ILE145      0.1678
     52  C        -25.1870   28.2010   -3.9450 C.2   145  ILE145      0.2434
     53  O        -25.7620   27.2090   -3.4980 O.2   145  ILE145     -0.2733
     54  CB       -22.9270   28.1330   -2.8950 C.3   145  ILE145      0.0265
     55  CG1      -21.8670   28.9270   -2.1300 C.3   145  ILE145      0.0019
     56  CG2      -22.3850   27.6900   -4.2450 C.3   145  ILE145      0.0020
     57  CD1      -20.7900   28.0620   -1.5120 C.3   145  ILE145      0.0001
     58  N        -25.3710   28.6390   -5.2000 N.am  146  PRO146     -0.2718
     59  CA       -26.3090   27.9580   -6.0900 C.3   146  PRO146      0.1535
     60  C        -25.9620   26.4820   -6.2720 C.2   146  PRO146      0.2599
     61  O        -24.7900   26.1430   -6.4310 O.2   146  PRO146     -0.2715
     62  CB       -26.1520   28.7150   -7.4120 C.3   146  PRO146      0.0310
     63  CG       -25.6690   30.0680   -7.0210 C.3   146  PRO146      0.0237
     64  CD       -24.8120   29.8600   -5.8070 C.3   146  PRO146      0.0939
     65  N        -26.9360   25.6150   -6.0150 N.am  147  GLY147     -0.1941
     66  CA       -26.7540   24.1770   -6.2060 C.3   147  GLY147      0.2014
     67  C        -26.3410   23.4630   -4.9310 C.2   147  GLY147      0.2639
     68  O        -26.2820   22.2350   -4.8890 O.2   147  GLY147     -0.2714
     69  N        -26.0420   24.2370   -3.8940 N.am  148  ASP148     -0.1957
     70  CA       -25.5340   23.6870   -2.6390 C.3   148  ASP148      0.1825
     71  C        -26.6970   23.3420   -1.7100 C.2   148  ASP148      0.2464
     72  O        -27.4850   24.2160   -1.3520 O.2   148  ASP148     -0.2730
     73  CB       -24.6150   24.7110   -1.9620 C.3   148  ASP148      0.1450
     74  CG       -23.9040   24.1500   -0.7450 C.2   148  ASP148      0.3671
     75  OD1      -24.2550   23.0350   -0.3060 O.co2 148  ASP148     -0.2456
     76  OD2      -23.0570   24.8680   -0.1730 O.co2 148  ASP148     -0.2456
     77  N        -26.8590   22.0480   -1.3840 N.am  149  PRO149     -0.2727
     78  CA       -28.0290   21.6390   -0.6130 C.3   149  PRO149      0.1402
     79  C        -27.8950   21.9400    0.8780 C.2   149  PRO149      0.2269
     80  O        -28.8560   21.7840    1.6250 O.2   149  PRO149     -0.2865
     81  CB       -28.0930   20.1300   -0.8500 C.3   149  PRO149      0.0296
     82  CG       -26.6830   19.7330   -1.1030 C.3   149  PRO149      0.0237
     83  CD       -26.0490   20.8950   -1.8180 C.3   149  PRO149      0.0939
     84  N        -30.4970   24.1720    3.5480 N.3   152  THR152     -0.1218
     85  CA       -31.6550   24.4810    2.7180 C.3   152  THR152      0.1862
     86  C        -32.9180   23.8260    3.2570 C.2   152  THR152      0.2287
     87  O        -32.8610   22.8280    3.9780 O.2   152  THR152     -0.2866
     88  CB       -31.4530   24.0140    1.2640 C.3   152  THR152      0.1770
     89  OG1      -31.2500   22.5960    1.2340 O.3   152  THR152     -0.2211
     90  CG2      -30.2620   24.7160    0.6310 C.3   152  THR152      0.0375
     91  N        -33.4900   34.3590   -4.0880 N.3   236  THR236     -0.1218
     92  CA       -32.0470   34.3240   -4.2700 C.3   236  THR236      0.1862
     93  C        -31.6850   34.5670   -5.7350 C.2   236  THR236      0.2287
     94  O        -32.5550   34.5340   -6.6060 O.2   236  THR236     -0.2866
     95  CB       -31.4620   32.9730   -3.8090 C.3   236  THR236      0.1770
     96  OG1      -30.0360   33.0670   -3.7150 O.3   236  THR236     -0.2211
     97  CG2      -31.8400   31.8610   -4.7740 C.3   236  THR236      0.0375
@<TRIPOS>BOND
     1    20    18   ar
     2     1     2    1
     3    18    19   ar
     4    18    17    1
     5     2     5    1
     6     2     3    1
     7     5     6    1
     8     7     6    1
     9     7     8    1
    10    62    63    1
    11    62    59    1
    12    17    16    1
    13    63    64    1
    14     8     9    2
    15     3     4    2
    16    94    93    2
    17    61    60    2
    18    60    59    1
    19    60    65   am
    20    66    65    1
    21    66    67    1
    22    59    58    1
    23     9    10    1
    24     9    11    1
    25    64    58    1
    26    16    13    1
    27    93    92    1
    28    58    52   am
    29    67    68    2
    30    67    69   am
    31    13    12    1
    32    13    14    1
    33    97    95    1
    34    92    91    1
    35    92    95    1
    36    56    54    1
    37    52    53    2
    38    52    51    1
    39    69    70    1
    40    95    96    1
    41    14    21   am
    42    14    15    2
    43    24    23    2
    44    21    22    1
    45    51    54    1
    46    51    50    1
    47    54    55    1
    48    70    73    1
    49    70    71    1
    50    23    22    1
    51    22    25    1
    52    55    57    1
    53    25    26    1
    54    73    74    1
    55    83    77    1
    56    83    82    1
    57    71    77   am
    58    71    72    2
    59    26    27    1
    60    77    78    1
    61    82    81    1
    62    38    37    1
    63    38    32    1
    64    27    28    1
    65    81    78    1
    66    74    75   ar
    67    74    76   ar
    68    78    79    1
    69    37    36    1
    70    28    29    2
    71    32    33    1
    72    90    88    1
    73    36    33    1
    74    79    80    2
    75    29    31    1
    76    29    30    1
    77    89    88    1
    78    88    85    1
    79    33    34    1
    80    35    34    2
    81    48    47    1
    82    85    86    1
    83    85    84    1
    84    47    49    1
    85    47    46    2
    86    86    87    2
    87    45    46    1
    88    45    44    1
    89    44    43    1
    90    43    40    1
    91    39    40    1
    92    42    41    2
    93    40    41    1
