@<TRIPOS>MOLECULE
tmp/5ujoB00.pdb
 137 131 0 0 0
SMALL
GASTEIGER

@<TRIPOS>ATOM
      1  N        -30.9630   33.0040    7.7940 N.3    42  SER42      -0.1217
      2  CA       -31.2970   33.2090    9.2050 C.3    42  SER42       0.1889
      3  C        -32.7110   32.7370    9.5680 C.2    42  SER42       0.2288
      4  O        -33.0690   32.7090   10.7460 O.2    42  SER42      -0.2866
      5  CB       -31.1330   34.6810    9.5920 C.3    42  SER42       0.2089
      6  OG       -29.7780   34.9890    9.8720 O.3    42  SER42      -0.2183
      7  N        -20.0590   37.9100   12.7310 N.3    76  ASN76      -0.1225
      8  CA       -20.1590   39.0290   11.7870 C.3    76  ASN76       0.1785
      9  C        -21.2520   40.0260   12.1800 C.2    76  ASN76       0.2597
     10  O        -21.2710   41.1560   11.6920 O.2    76  ASN76      -0.2718
     11  CB       -20.4140   38.5180   10.3700 C.3    76  ASN76       0.1169
     12  CG       -21.7260   37.7770   10.2490 C.2    76  ASN76       0.2627
     13  OD1      -22.0340   36.9080   11.0630 O.2    76  ASN76      -0.2716
     14  ND2      -22.5530   38.1910    9.2960 N.am   76  ASN76      -0.0877
     15  N        -22.2270   39.5630   12.9560 N.am   77  TYR77      -0.1976
     16  CA       -23.3550   40.4050   13.3530 C.3    77  TYR77       0.1639
     17  C        -23.9450   39.9110   14.6670 C.2    77  TYR77       0.2290
     18  O        -24.5000   38.8160   14.7310 O.2    77  TYR77      -0.2864
     19  CB       -24.4370   40.4010   12.2680 C.3    77  TYR77       0.0560
     20  CG       -25.5620   41.3840   12.5220 C.ar   77  TYR77      -0.0198
     21  CD1      -25.3880   42.7410   12.2890 C.ar   77  TYR77      -0.0009
     22  CD2      -26.7590   40.9670   13.0920 C.ar   77  TYR77      -0.0009
     23  CE1      -26.4100   43.6420   12.5200 C.ar   77  TYR77       0.0417
     24  CE2      -27.7700   41.8690   13.3710 C.ar   77  TYR77       0.0417
     25  CZ       -27.5910   43.2050   13.0800 C.ar   77  TYR77       0.1957
     26  OH       -28.5950   44.1070   13.3510 O.3    77  TYR77      -0.2866
     27  N        -33.6010   39.9010   16.7180 N.3   101  TYR101     -0.1227
     28  CA       -32.5390   40.7970   16.2570 C.3   101  TYR101      0.1736
     29  C        -31.6380   40.1130   15.2220 C.2   101  TYR101      0.2596
     30  O        -30.7930   40.7580   14.6020 O.2   101  TYR101     -0.2718
     31  CB       -31.6980   41.2810   17.4430 C.3   101  TYR101      0.0548
     32  CG       -32.4750   42.1020   18.4490 C.ar  101  TYR101     -0.0200
     33  CD1      -33.2850   41.4870   19.3940 C.ar  101  TYR101     -0.0009
     34  CD2      -32.5090   43.4890   18.3640 C.ar  101  TYR101     -0.0009
     35  CE1      -34.0790   42.2290   20.2490 C.ar  101  TYR101      0.0417
     36  CE2      -33.3010   44.2390   19.2130 C.ar  101  TYR101      0.0417
     37  CZ       -34.1010   43.6030   20.1390 C.ar  101  TYR101      0.1957
     38  OH       -34.9120   44.3430   20.9690 O.3   101  TYR101     -0.2866
     39  N        -31.8940   38.8320   14.9730 N.am  102  SER102     -0.1952
     40  CA       -31.0220   38.0090   14.1300 C.3   102  SER102      0.1924
     41  C        -29.5590   38.1570   14.5330 C.2   102  SER102      0.2314
     42  O        -28.6690   38.1870   13.6800 O.2   102  SER102     -0.2863
     43  CB       -31.2020   38.3630   12.6530 C.3   102  SER102      0.2116
     44  OG       -31.1310   37.1980   11.8450 O.3   102  SER102     -0.2180
     45  N        -26.2280   36.5550   15.3260 N.3   104  ASN104     -0.1240
     46  CA       -25.6520   35.3110   14.8140 C.3   104  ASN104      0.1653
     47  C        -24.8900   34.5540   15.9050 C.2   104  ASN104      0.2266
     48  O        -24.7870   33.3300   15.8600 O.2   104  ASN104     -0.2867
     49  CB       -24.7180   35.5970   13.6350 C.3   104  ASN104      0.1155
     50  CG       -25.4620   35.7370   12.3180 C.2   104  ASN104      0.2627
     51  OD1      -26.6010   35.2890   12.1850 O.2   104  ASN104     -0.2716
     52  ND2      -24.7610   36.2190   11.2980 N.am  104  ASN104     -0.0877
     53  N        -21.2720   32.2780   10.4800 N.3   139  PRO139     -0.2102
     54  CA       -22.0960   32.8940    9.4410 C.3   139  PRO139      0.1504
     55  C        -22.2390   32.0240    8.1920 C.2   139  PRO139      0.2576
     56  O        -22.8900   32.4370    7.2330 O.2   139  PRO139     -0.2718
     57  CB       -21.3310   34.1780    9.1050 C.3   139  PRO139      0.0282
     58  CG       -19.9150   33.8730    9.4410 C.3   139  PRO139      0.0208
     59  CD       -19.9660   32.9480   10.6220 C.3   139  PRO139      0.0893
     60  N        -21.4810   30.9330    8.1250 N.am  140  THR140     -0.1953
     61  CA       -21.2780   30.2390    6.8540 C.3   140  THR140      0.1897
     62  C        -22.5420   29.5200    6.3840 C.2   140  THR140      0.2313
     63  O        -22.6620   29.1860    5.2070 O.2   140  THR140     -0.2863
     64  CB       -20.1220   29.2200    6.9210 C.3   140  THR140      0.1794
     65  OG1      -20.3630   28.2720    7.9680 O.3   140  THR140     -0.2208
     66  CG2      -18.7940   29.9230    7.1590 C.3   140  THR140      0.0378
     67  N        -24.9760   30.9540    5.6730 N.3   142  ASN142     -0.1225
     68  CA       -25.6060   31.9640    4.8190 C.3   142  ASN142      0.1785
     69  C        -24.8900   32.1390    3.4770 C.2   142  ASN142      0.2597
     70  O        -25.1200   33.1240    2.7770 O.2   142  ASN142     -0.2718
     71  CB       -25.6560   33.3170    5.5360 C.3   142  ASN142      0.1169
     72  CG       -26.3550   33.2440    6.8760 C.2   142  ASN142      0.2627
     73  OD1      -27.5840   33.2060    6.9390 O.2   142  ASN142     -0.2716
     74  ND2      -25.5910   33.4290    7.9460 N.am  142  ASN142     -0.0877
     75  N        -24.0100   31.2050    3.1250 N.am  143  THR143     -0.1953
     76  CA       -23.2250   31.3450    1.8970 C.3   143  THR143      0.1897
     77  C        -24.1130   31.2580    0.6530 C.2   143  THR143      0.2313
     78  O        -23.8180   31.8720   -0.3710 O.2   143  THR143     -0.2863
     79  CB       -22.1080   30.2840    1.7970 C.3   143  THR143      0.1794
     80  OG1      -22.6500   28.9790    2.0320 O.3   143  THR143     -0.2208
     81  CG2      -21.0070   30.5670    2.8070 C.3   143  THR143      0.0378
     82  N        -36.9980   43.0620   12.6120 N.3   188  THR188     -0.1218
     83  CA       -36.2930   43.1400   11.3280 C.3   188  THR188      0.1862
     84  C        -37.2240   43.0500   10.1130 C.2   188  THR188      0.2287
     85  O        -36.7540   42.9820    8.9780 O.2   188  THR188     -0.2866
     86  CB       -35.2270   42.0350   11.1950 C.3   188  THR188      0.1770
     87  OG1      -35.8640   40.7540   11.1200 O.3   188  THR188     -0.2211
     88  CG2      -34.2680   42.0610   12.3730 C.3   188  THR188      0.0375
     89  N        -39.7130   35.7740   10.7740 N.3   206  LYS206     -0.1231
     90  CA       -38.2620   35.7780   10.8530 C.3   206  LYS206      0.1693
     91  C        -37.6700   35.9750    9.4650 C.2   206  LYS206      0.2593
     92  O        -37.9830   35.2280    8.5360 O.2   206  LYS206     -0.2718
     93  CB       -37.7610   34.4600   11.4440 C.3   206  LYS206      0.0285
     94  CG       -36.2470   34.3560   11.5280 C.3   206  LYS206      0.0035
     95  CD       -35.6980   35.1850   12.6770 C.3   206  LYS206      0.0206
     96  CE       -34.1940   35.3680   12.5670 C.3   206  LYS206      0.1093
     97  NZ       -33.8310   36.4360   11.5950 N.3   206  LYS206     -0.1314
     98  N        -36.7690   36.9440    9.3470 N.am  207  THR207     -0.1939
     99  CA       -36.1240   37.2510    8.0780 C.3   207  THR207      0.2028
    100  C        -34.8360   36.4520    7.9110 C.2   207  THR207      0.2643
    101  O        -34.3350   35.8480    8.8620 O.2   207  THR207     -0.2714
    102  CB       -35.7860   38.7470    7.9810 C.3   207  THR207      0.1808
    103  OG1      -35.0300   39.1410    9.1320 O.3   207  THR207     -0.2208
    104  CG2      -37.0550   39.5770    7.9040 C.3   207  THR207      0.0379
    105  N        -34.2700   36.5050    6.7130 N.am  208  GLY208     -0.1939
    106  CA       -32.9110   36.0370    6.4940 C.3   208  GLY208      0.2014
    107  C        -32.2560   36.7310    5.3220 C.2   208  GLY208      0.2640
    108  O        -32.9330   37.2400    4.4290 O.2   208  GLY208     -0.2714
    109  N        -30.9280   36.7500    5.3300 N.am  209  SER209     -0.1935
    110  CA       -30.1550   37.3440    4.2500 C.3   209  SER209      0.2055
    111  C        -28.8540   36.5690    4.0760 C.2   209  SER209      0.2644
    112  O        -28.3520   35.9640    5.0230 O.2   209  SER209     -0.2714
    113  CB       -29.8470   38.8080    4.5640 C.3   209  SER209      0.2130
    114  OG       -28.8960   38.9130    5.6100 O.3   209  SER209     -0.2179
    115  N        -28.3080   36.5930    2.8670 N.am  210  GLY210     -0.1939
    116  CA       -27.0420   35.9250    2.5960 C.3   210  GLY210      0.2014
    117  C        -26.4280   36.3770    1.2890 C.2   210  GLY210      0.2638
    118  O        -26.8860   37.3410    0.6790 O.2   210  GLY210     -0.2714
    119  N        -25.3340   35.6640    0.9660 N.am  211  ASP211     -0.1971
    120  CA       -24.7390   35.9500   -0.3330 C.3   211  ASP211      0.1709
    121  C        -25.7220   35.6260   -1.4560 C.2   211  ASP211      0.2293
    122  O        -26.7890   35.0540   -1.2170 O.2   211  ASP211     -0.2864
    123  CB       -23.4530   35.1370   -0.5180 C.3   211  ASP211      0.1436
    124  CG       -22.1990   35.9710   -0.3220 C.2   211  ASP211      0.3671
    125  OD1      -22.3190   37.1960   -0.1070 O.co2 211  ASP211     -0.2456
    126  OD2      -21.0900   35.4050   -0.4240 O.co2 211  ASP211     -0.2456
    127  N        -35.8120   43.0290   -0.4160 N.3   246  ARG246     -0.1245
    128  CA       -36.9250   42.8100    0.4960 C.3   246  ARG246      0.1563
    129  C        -38.2420   43.2570   -0.1350 C.2   246  ARG246      0.2260
    130  O        -39.2920   42.6770    0.1380 O.2   246  ARG246     -0.2867
    131  CB       -36.6880   43.5510    1.8140 C.3   246  ARG246      0.0307
    132  CG       -35.5470   42.9740    2.6380 C.3   246  ARG246      0.0489
    133  CD       -35.2640   43.8040    3.8790 C.3   246  ARG246      0.2205
    134  NE       -34.0010   43.4290    4.5100 N.pl3 246  ARG246     -0.0865
    135  CZ       -32.8070   43.8510    4.1030 C.cat 246  ARG246      0.5346
    136  NH1      -32.7150   44.7840    3.1650 N.pl3 246  ARG246      0.1354
    137  NH2      -31.7070   43.4070    4.6970 N.pl3 246  ARG246      0.1354
@<TRIPOS>BOND
     1   121   122    2
     2   121   120    1
     3   123   120    1
     4   123   124    1
     5   126   124   ar
     6   127   128    1
     7    78    77    2
     8   120   119    1
     9   124   125   ar
    10   129   130    2
    11   129   128    1
    12   128   131    1
    13    77    76    1
    14   118   117    2
    15   119   117   am
    16   117   116    1
    17    79    76    1
    18    79    80    1
    19    79    81    1
    20   131   132    1
    21    76    75    1
    22   116   115    1
    23   132   133    1
    24    70    69    2
    25   115   111   am
    26    75    69   am
    27   136   135    1
    28    69    68    1
    29   133   134    1
    30   111   110    1
    31   111   112    2
    32   135   134    2
    33   135   137    1
    34   110   113    1
    35   110   109    1
    36   108   107    2
    37   113   114    1
    38    68    71    1
    39    68    67    1
    40    63    62    2
    41   107   109   am
    42   107   106    1
    43    71    72    1
    44    62    61    1
    45   106   105    1
    46   105   100   am
    47    61    64    1
    48    61    60    1
    49    72    73    2
    50    72    74   am
    51    64    66    1
    52    64    65    1
    53    56    55    2
    54     1     2    1
    55   104   102    1
    56   100    99    1
    57   100   101    2
    58   102    99    1
    59   102   103    1
    60    99    98    1
    61    60    55   am
    62    55    54    1
    63    92    91    2
    64    85    84    2
    65    57    58    1
    66    57    54    1
    67     2     3    1
    68     2     5    1
    69    14    12   am
    70    98    91   am
    71    58    59    1
    72    54    53    1
    73    91    90    1
    74     3     4    2
    75     5     6    1
    76    84    83    1
    77    12    11    1
    78    12    13    2
    79    11     8    1
    80    53    59    1
    81    89    90    1
    82    90    93    1
    83    87    86    1
    84    86    83    1
    85    86    88    1
    86    52    50   am
    87    83    82    1
    88    93    94    1
    89    94    95    1
    90    97    96    1
    91    10     9    2
    92     8     9    1
    93     8     7    1
    94    44    43    1
    95     9    15   am
    96    51    50    2
    97    19    20    1
    98    19    16    1
    99    21    23   ar
   100    21    20   ar
   101    50    49    1
   102    23    25   ar
   103    20    22   ar
   104    96    95    1
   105    43    40    1
   106    15    16    1
   107    25    26    1
   108    25    24   ar
   109    22    24   ar
   110    16    17    1
   111    49    46    1
   112    42    41    2
   113    40    41    1
   114    40    39    1
   115    30    29    2
   116    17    18    2
   117    46    45    1
   118    46    47    1
   119    39    29   am
   120    29    28    1
   121    48    47    2
   122    28    27    1
   123    28    31    1
   124    31    32    1
   125    34    32   ar
   126    34    36   ar
   127    32    33   ar
   128    36    37   ar
   129    33    35   ar
   130    37    35   ar
   131    37    38    1
