@<TRIPOS>MOLECULE
tmp/5ujvA00.pdb
 184 175 0 0 0
SMALL
GASTEIGER

@<TRIPOS>ATOM
      1  N        -18.6760  144.5630   -5.7960 N.3    62  LYS62      -0.1245
      2  CA       -19.8570  144.7390   -4.9530 C.3    62  LYS62       0.1561
      3  C        -21.0970  144.1940   -5.6490 C.2    62  LYS62       0.2260
      4  O        -21.4220  144.5750   -6.7740 O.2    62  LYS62      -0.2867
      5  CB       -20.0450  146.2050   -4.5580 C.3    62  LYS62       0.0271
      6  CG       -18.9750  146.7080   -3.5940 C.3    62  LYS62       0.0035
      7  CD       -19.3820  147.9950   -2.8920 C.3    62  LYS62       0.0206
      8  CE       -18.3090  148.4370   -1.9070 C.3    62  LYS62       0.1093
      9  NZ       -18.7240  149.6230   -1.1080 N.3    62  LYS62      -0.1314
     10  N        -24.5900  144.0420   -5.2990 N.3    64  PHE64      -0.1227
     11  CA       -25.8770  144.6500   -5.6330 C.3    64  PHE64       0.1736
     12  C        -25.7760  145.9510   -6.4430 C.2    64  PHE64       0.2595
     13  O        -26.7870  146.6090   -6.6840 O.2    64  PHE64      -0.2718
     14  CB       -26.6780  144.9030   -4.3510 C.3    64  PHE64       0.0547
     15  CG       -27.3240  143.6660   -3.7830 C.ar   64  PHE64      -0.0202
     16  CD1      -27.8990  142.7230   -4.6170 C.ar   64  PHE64      -0.0042
     17  CD2      -27.3510  143.4460   -2.4150 C.ar   64  PHE64      -0.0042
     18  CE1      -28.4930  141.5870   -4.1000 C.ar   64  PHE64      -0.0003
     19  CE2      -27.9420  142.3100   -1.8930 C.ar   64  PHE64      -0.0003
     20  CZ       -28.5140  141.3810   -2.7360 C.ar   64  PHE64      -0.0000
     21  N        -24.5680  146.3220   -6.8600 N.am   65  ILE65      -0.1980
     22  CA       -24.3640  147.5880   -7.5700 C.3    65  ILE65       0.1595
     23  C        -24.4190  147.4400   -9.0920 C.2    65  ILE65       0.2287
     24  O        -23.5430  146.8160   -9.6920 O.2    65  ILE65      -0.2864
     25  CB       -23.0110  148.2230   -7.1960 C.3    65  ILE65       0.0276
     26  CG1      -22.8840  148.3660   -5.6760 C.3    65  ILE65       0.0022
     27  CG2      -22.8310  149.5560   -7.9040 C.3    65  ILE65       0.0022
     28  CD1      -24.1230  148.9190   -4.9950 C.3    65  ILE65       0.0001
     29  N        -23.5560  156.0130   -6.2110 N.3    88  VAL88      -0.1245
     30  CA       -23.7290  154.5910   -6.4850 C.3    88  VAL88       0.1561
     31  C        -25.1850  154.2400   -6.7920 C.2    88  VAL88       0.2260
     32  O        -26.0920  154.6310   -6.0590 O.2    88  VAL88      -0.2867
     33  CB       -23.2480  153.7410   -5.2850 C.3    88  VAL88       0.0252
     34  CG1      -23.2770  152.2710   -5.6260 C.3    88  VAL88       0.0019
     35  CG2      -21.8480  154.1590   -4.8580 C.3    88  VAL88       0.0019
     36  N        -28.0670  151.2640   -7.2600 N.3    90  VAL90      -0.1245
     37  CA       -28.3600  149.9220   -6.7620 C.3    90  VAL90       0.1561
     38  C        -29.4930  149.2840   -7.5770 C.2    90  VAL90       0.2260
     39  O        -30.3130  149.9930   -8.1590 O.2    90  VAL90      -0.2867
     40  CB       -28.7300  149.9710   -5.2570 C.3    90  VAL90       0.0252
     41  CG1      -29.0810  148.6050   -4.7290 C.3    90  VAL90       0.0019
     42  CG2      -27.5800  150.5490   -4.4510 C.3    90  VAL90       0.0019
     43  N        -34.7080  146.9470   -3.8470 N.3    94  LEU94      -0.1231
     44  CA       -33.9870  146.9410   -2.5800 C.3    94  LEU94       0.1678
     45  C        -34.4000  148.1710   -1.7840 C.2    94  LEU94       0.2434
     46  O        -34.9890  149.0880   -2.3560 O.2    94  LEU94      -0.2733
     47  CB       -32.4710  146.9130   -2.8290 C.3    94  LEU94       0.0284
     48  CG       -31.8780  145.6090   -3.3730 C.3    94  LEU94       0.0019
     49  CD1      -32.5050  145.2170   -4.6950 C.3    94  LEU94       0.0001
     50  CD2      -30.3690  145.7030   -3.5090 C.3    94  LEU94       0.0001
     51  N        -34.1140  148.1990   -0.4660 N.am   95  PRO95      -0.2718
     52  CA       -34.4970  149.3870    0.3100 C.3    95  PRO95       0.1535
     53  C        -33.9270  150.6690   -0.2830 C.2    95  PRO95       0.2598
     54  O        -34.5190  151.7390   -0.1460 O.2    95  PRO95      -0.2715
     55  CB       -33.8880  149.1310    1.6900 C.3    95  PRO95       0.0310
     56  CG       -33.6350  147.6770    1.7490 C.3    95  PRO95       0.0237
     57  CD       -33.4240  147.1930    0.3640 C.3    95  PRO95       0.0939
     58  N        -32.7830  150.5460   -0.9460 N.am   96  ALA96      -0.1978
     59  CA       -32.0960  151.6940   -1.5120 C.3    96  ALA96       0.1597
     60  C        -32.1140  151.6990   -3.0340 C.2    96  ALA96       0.2287
     61  O        -31.7710  150.7040   -3.6720 O.2    96  ALA96      -0.2864
     62  CB       -30.6780  151.7300   -1.0200 C.3    96  ALA96       0.0319
     63  N        -27.1730  155.7160   -3.6830 N.3    99  SER99      -0.1217
     64  CA       -26.3940  156.1500   -2.5290 C.3    99  SER99       0.1889
     65  C        -25.2490  157.0800   -2.9270 C.2    99  SER99       0.2288
     66  O        -24.6340  156.9060   -3.9790 O.2    99  SER99      -0.2866
     67  CB       -25.8410  154.9340   -1.7820 C.3    99  SER99       0.2089
     68  OG       -25.0720  155.3290   -0.6600 O.3    99  SER99      -0.2183
     69  N        -21.6260  158.2230   -1.6450 N.3   101  GLU101     -0.1245
     70  CA       -20.5820  157.8050   -0.7180 C.3   101  GLU101      0.1567
     71  C        -19.3080  158.6290   -0.8930 C.2   101  GLU101      0.2260
     72  O        -18.9350  158.9820   -2.0110 O.2   101  GLU101     -0.2867
     73  CB       -20.2870  156.3120   -0.9050 C.3   101  GLU101      0.0388
     74  CG       -21.5210  155.4250   -0.7430 C.3   101  GLU101      0.1160
     75  CD       -21.2560  153.9590   -1.0470 C.2   101  GLU101      0.3649
     76  OE1      -22.2010  153.1490   -0.9340 O.co2 101  GLU101     -0.2457
     77  OE2      -20.1080  153.6160   -1.3990 O.co2 101  GLU101     -0.2457
     78  N        -14.7810  154.5650    3.7980 N.3   115  PHE115     -0.1241
     79  CA       -15.7050  155.5070    3.1810 C.3   115  PHE115      0.1605
     80  C        -16.9500  155.6990    4.0400 C.2   115  PHE115      0.2264
     81  O        -17.2610  154.8680    4.8930 O.2   115  PHE115     -0.2867
     82  CB       -16.0970  155.0360    1.7770 C.3   115  PHE115      0.0534
     83  CG       -16.9480  153.7980    1.7640 C.ar  115  PHE115     -0.0203
     84  CD1      -16.3780  152.5470    1.9310 C.ar  115  PHE115     -0.0042
     85  CD2      -18.3190  153.8850    1.5750 C.ar  115  PHE115     -0.0042
     86  CE1      -17.1580  151.4080    1.9180 C.ar  115  PHE115     -0.0003
     87  CE2      -19.1050  152.7490    1.5600 C.ar  115  PHE115     -0.0003
     88  CZ       -18.5240  151.5100    1.7320 C.ar  115  PHE115     -0.0000
     89  N        -21.2290  157.0930    4.0110 N.3   117  ILE117     -0.1245
     90  CA       -22.4140  157.4160    3.2350 C.3   117  ILE117      0.1561
     91  C        -23.0280  158.7120    3.7500 C.2   117  ILE117      0.2260
     92  O        -23.3800  158.8220    4.9240 O.2   117  ILE117     -0.2867
     93  CB       -23.4420  156.2750    3.2870 C.3   117  ILE117      0.0252
     94  CG1      -22.7670  154.9640    2.8860 C.3   117  ILE117      0.0019
     95  CG2      -24.6230  156.5730    2.3790 C.3   117  ILE117      0.0019
     96  CD1      -23.6930  153.7940    2.8190 C.3   117  ILE117      0.0001
     97  N        -32.0760  155.6300    0.9850 N.3   122  HIS122     -0.1226
     98  CA       -31.8220  154.4140    1.7670 C.3   122  HIS122      0.1752
     99  C        -32.1780  154.5960    3.2410 C.2   122  HIS122      0.2596
    100  O        -32.2390  155.7160    3.7500 O.2   122  HIS122     -0.2718
    101  CB       -30.3520  153.9650    1.6560 C.3   122  HIS122      0.0759
    102  CG       -29.3630  155.0910    1.6340 C.ar  122  HIS122      0.0818
    103  ND1      -28.9240  155.7230    2.7770 N.ar  122  HIS122     -0.2268
    104  CD2      -28.7160  155.6860    0.6040 C.ar  122  HIS122      0.1154
    105  CE1      -28.0570  156.6660    2.4520 C.ar  122  HIS122      0.1986
    106  NE2      -27.9130  156.6630    1.1390 N.ar  122  HIS122     -0.2212
    107  N        -32.4000  153.4730    3.9180 N.am  123  ARG123     -0.1966
    108  CA       -32.7850  153.4690    5.3250 C.3   123  ARG123      0.1729
    109  C        -31.5780  153.6210    6.2390 C.2   123  ARG123      0.2616
    110  O        -31.6630  154.2440    7.2980 O.2   123  ARG123     -0.2715
    111  CB       -33.5330  152.1810    5.6690 C.3   123  ARG123      0.0348
    112  CG       -34.7840  151.9470    4.8440 C.3   123  ARG123      0.0492
    113  CD       -35.4180  150.6220    5.2110 C.3   123  ARG123      0.2205
    114  NE       -36.6150  150.3360    4.4250 N.pl3 123  ARG123     -0.0865
    115  CZ       -37.8470  150.6780    4.7860 C.cat 123  ARG123      0.5346
    116  NH1      -38.8760  150.3720    4.0070 N.pl3 123  ARG123      0.1354
    117  NH2      -38.0520  151.3280    5.9240 N.pl3 123  ARG123      0.1354
    118  N        -30.4580  153.0370    5.8300 N.am  124  LEU124     -0.1977
    119  CA       -29.2390  153.0800    6.6260 C.3   124  LEU124      0.1596
    120  C        -28.5790  154.4490    6.5260 C.2   124  LEU124      0.2287
    121  O        -28.2620  154.9210    5.4340 O.2   124  LEU124     -0.2864
    122  CB       -28.2670  151.9850    6.1830 C.3   124  LEU124      0.0297
    123  CG       -28.7660  150.5470    6.3420 C.3   124  LEU124      0.0022
    124  CD1      -27.7070  149.5620    5.8800 C.3   124  LEU124      0.0001
    125  CD2      -29.1750  150.2640    7.7820 C.3   124  LEU124      0.0001
    126  N        -23.4770  155.5050    7.6110 N.3   127  TYR127     -0.1241
    127  CA       -22.7460  154.2560    7.4830 C.3   127  TYR127      0.1605
    128  C        -21.2670  154.5500    7.2540 C.2   127  TYR127      0.2264
    129  O        -20.8870  155.1160    6.2300 O.2   127  TYR127     -0.2867
    130  CB       -23.3280  153.4330    6.3290 C.3   127  TYR127      0.0534
    131  CG       -22.6930  152.0790    6.1000 C.ar  127  TYR127     -0.0201
    132  CD1      -23.1430  150.9580    6.7830 C.ar  127  TYR127     -0.0009
    133  CD2      -21.6630  151.9170    5.1820 C.ar  127  TYR127     -0.0009
    134  CE1      -22.5760  149.7160    6.5720 C.ar  127  TYR127      0.0417
    135  CE2      -21.0890  150.6770    4.9630 C.ar  127  TYR127      0.0417
    136  CZ       -21.5500  149.5810    5.6630 C.ar  127  TYR127      0.1957
    137  OH       -20.9890  148.3430    5.4560 O.3   127  TYR127     -0.2866
    138  N        -13.4450  143.8270    7.1320 N.3   150  GLU150     -0.1245
    139  CA       -14.3110  144.9720    6.8660 C.3   150  GLU150      0.1567
    140  C        -15.2840  145.1980    8.0180 C.2   150  GLU150      0.2260
    141  O        -16.1260  144.3480    8.3130 O.2   150  GLU150     -0.2867
    142  CB       -15.0790  144.7820    5.5530 C.3   150  GLU150      0.0388
    143  CG       -15.9040  145.9960    5.1330 C.3   150  GLU150      0.1160
    144  CD       -16.3840  145.9160    3.6920 C.2   150  GLU150      0.3649
    145  OE1      -15.6150  145.4400    2.8290 O.co2 150  GLU150     -0.2457
    146  OE2      -17.5320  146.3300    3.4210 O.co2 150  GLU150     -0.2457
    147  N        -28.7710  142.4500    7.6130 N.3   168  PHE168     -0.1227
    148  CA       -28.8070  142.9270    6.2370 C.3   168  PHE168      0.1736
    149  C        -27.4390  143.4370    5.7890 C.2   168  PHE168      0.2595
    150  O        -26.9680  143.0990    4.7030 O.2   168  PHE168     -0.2718
    151  CB       -29.8620  144.0260    6.0820 C.3   168  PHE168      0.0547
    152  CG       -29.9040  144.6390    4.7110 C.ar  168  PHE168     -0.0202
    153  CD1      -30.4580  143.9500    3.6440 C.ar  168  PHE168     -0.0042
    154  CD2      -29.3960  145.9080    4.4910 C.ar  168  PHE168     -0.0042
    155  CE1      -30.4990  144.5140    2.3810 C.ar  168  PHE168     -0.0003
    156  CE2      -29.4350  146.4780    3.2310 C.ar  168  PHE168     -0.0003
    157  CZ       -29.9880  145.7800    2.1740 C.ar  168  PHE168     -0.0000
    158  N        -26.8040  144.2450    6.6330 N.am  169  ALA169     -0.1980
    159  CA       -25.4990  144.8120    6.3140 C.3   169  ALA169      0.1597
    160  C        -24.4280  143.7300    6.2260 C.2   169  ALA169      0.2287
    161  O        -23.6270  143.7200    5.2920 O.2   169  ALA169     -0.2864
    162  CB       -25.1120  145.8580    7.3390 C.3   169  ALA169      0.0319
    163  N        -24.8530  141.8840    2.8660 N.3   172  VAL172     -0.1231
    164  CA       -24.3260  142.6270    1.7230 C.3   172  VAL172      0.1692
    165  C        -22.8010  142.6160    1.7390 C.2   172  VAL172      0.2591
    166  O        -22.1640  142.3390    0.7230 O.2   172  VAL172     -0.2718
    167  CB       -24.8250  144.0920    1.7070 C.3   172  VAL172      0.0266
    168  CG1      -24.2110  144.8540    0.5380 C.3   172  VAL172      0.0020
    169  CG2      -26.3430  144.1400    1.6330 C.3   172  VAL172      0.0020
    170  N        -22.2290  142.9120    2.9050 N.am  173  VAL173     -0.1980
    171  CA       -20.7800  142.9320    3.0880 C.3   173  VAL173      0.1595
    172  C        -20.1410  141.5960    2.7080 C.2   173  VAL173      0.2287
    173  O        -19.1250  141.5650    2.0120 O.2   173  VAL173     -0.2864
    174  CB       -20.4000  143.2830    4.5530 C.3   173  VAL173      0.0276
    175  CG1      -18.9470  142.9330    4.8410 C.3   173  VAL173      0.0022
    176  CG2      -20.6580  144.7570    4.8370 C.3   173  VAL173      0.0022
    177  N        -20.2110  140.9080   -0.9280 N.3   176  ASN176     -0.1240
    178  CA       -19.1600  141.7240   -1.5230 C.3   176  ASN176      0.1653
    179  C        -17.8130  141.0300   -1.4110 C.2   176  ASN176      0.2266
    180  O        -17.0680  140.9340   -2.3850 O.2   176  ASN176     -0.2867
    181  CB       -19.0870  143.1000   -0.8550 C.3   176  ASN176      0.1155
    182  CG       -20.2660  143.9900   -1.2050 C.2   176  ASN176      0.2627
    183  OD1      -21.0320  143.7010   -2.1240 O.2   176  ASN176     -0.2716
    184  ND2      -20.4060  145.0920   -0.4770 N.am  176  ASN176     -0.0877
@<TRIPOS>BOND
     1    24    23    2
     2    23    22    1
     3    39    38    2
     4    27    25    1
     5    38    37    1
     6    22    25    1
     7    22    21    1
     8    36    37    1
     9    25    26    1
    10    21    12   am
    11    31    30    1
    12    31    32    2
    13     4     3    2
    14    37    40    1
    15    13    12    2
    16    30    29    1
    17    30    33    1
    18    12    11    1
    19     1     2    1
    20    26    28    1
    21     3     2    1
    22    11    10    1
    23    11    14    1
    24    34    33    1
    25    33    35    1
    26    40    41    1
    27    40    42    1
    28     2     5    1
    29    49    48    1
    30    16    18   ar
    31    16    15   ar
    32     5     6    1
    33    14    15    1
    34    18    20   ar
    35    66    65    2
    36    43    44    1
    37    15    17   ar
    38    63    64    1
    39    61    60    2
    40     6     7    1
    41    50    48    1
    42    48    47    1
    43    60    59    1
    44    65    64    1
    45     7     8    1
    46    47    44    1
    47    20    19   ar
    48    44    45    1
    49    64    67    1
    50    17    19   ar
    51   180   179    2
    52    46    45    2
    53   183   182    2
    54    72    71    2
    55     8     9    1
    56    45    51   am
    57    67    68    1
    58    69    70    1
    59   178   179    1
    60   178   177    1
    61   178   181    1
    62    59    62    1
    63    59    58    1
    64    77    75   ar
    65   182   181    1
    66   182   184   am
    67    75    76   ar
    68    75    74    1
    69    58    53   am
    70    73    74    1
    71    73    70    1
    72    71    70    1
    73    51    52    1
    74    51    57    1
    75    53    54    2
    76    53    52    1
    77    52    55    1
    78    57    56    1
    79   168   167    1
    80   104   106   ar
    81   104   102   ar
    82   166   165    2
    83    97    98    1
    84   106   105   ar
    85    87    85   ar
    86    87    88   ar
    87    85    83   ar
    88   169   167    1
    89   102   101    1
    90   102   103   ar
    91   101    98    1
    92    55    56    1
    93   167   164    1
    94   164   165    1
    95   164   163    1
    96    88    86   ar
    97   165   170   am
    98    83    82    1
    99    83    84   ar
   100    98    99    1
   101    82    79    1
   102    86    84   ar
   103   173   172    2
   104   157   155   ar
   105   157   156   ar
   106    95    93    1
   107   155   153   ar
   108   105   103   ar
   109   172   171    1
   110    96    94    1
   111   145   144   ar
   112    94    93    1
   113   170   171    1
   114   171   174    1
   115    79    78    1
   116    79    80    1
   117   156   154   ar
   118    90    93    1
   119    90    91    1
   120    90    89    1
   121    99   100    2
   122    99   107   am
   123   146   144   ar
   124   153   152   ar
   125   144   143    1
   126    91    92    2
   127   107   108    1
   128   116   115    1
   129    80    81    2
   130   114   115    2
   131   114   113    1
   132   154   152   ar
   133   174   176    1
   134   174   175    1
   135   150   149    2
   136   152   151    1
   137   115   117    1
   138   112   113    1
   139   112   111    1
   140   135   133   ar
   141   135   136   ar
   142   143   142    1
   143   133   131   ar
   144   161   160    2
   145   108   111    1
   146   108   109    1
   147   121   120    2
   148   137   136    1
   149   142   139    1
   150   136   134   ar
   151   149   148    1
   152   149   158   am
   153   118   109   am
   154   118   119    1
   155   124   123    1
   156   151   148    1
   157   131   130    1
   158   131   132   ar
   159   122   123    1
   160   122   119    1
   161   160   159    1
   162   129   128    2
   163   148   147    1
   164   109   110    2
   165   159   158    1
   166   159   162    1
   167   130   127    1
   168   123   125    1
   169   120   119    1
   170   134   132   ar
   171   139   138    1
   172   139   140    1
   173   128   127    1
   174   127   126    1
   175   140   141    2
