@<TRIPOS>MOLECULE
tmp/5ujwD00.pdb
 69 65 0 0 0
SMALL
GASTEIGER

@<TRIPOS>ATOM
      1  N        -50.3070  -45.5540  -28.6780 N.3     8  LYS8       -0.1245
      2  CA       -49.3280  -45.7560  -27.6080 C.3     8  LYS8        0.1561
      3  C        -47.9650  -45.1340  -27.8890 C.2     8  LYS8        0.2260
      4  O        -47.6160  -44.1030  -27.3060 O.2     8  LYS8       -0.2867
      5  CB       -49.1800  -47.2530  -27.3170 C.3     8  LYS8        0.0271
      6  CG       -50.5140  -47.9560  -27.0760 C.3     8  LYS8        0.0035
      7  CD       -50.3990  -49.0960  -26.0710 C.3     8  LYS8        0.0206
      8  CE       -51.6970  -49.8870  -25.9850 C.3     8  LYS8        0.1093
      9  NZ       -51.5330  -51.2820  -26.4780 N.3     8  LYS8       -0.1314
     10  N        -53.8040  -60.3550  -20.9440 N.3   164  ILE164     -0.1245
     11  CA       -52.6310  -60.3820  -21.8350 C.3   164  ILE164      0.1561
     12  C        -51.4590  -60.8650  -20.9880 C.2   164  ILE164      0.2260
     13  O        -50.6330  -60.0960  -20.4900 O.2   164  ILE164     -0.2867
     14  CB       -52.3740  -59.0260  -22.4980 C.3   164  ILE164      0.0252
     15  CG1      -52.6570  -57.8830  -21.5210 C.3   164  ILE164      0.0019
     16  CG2      -53.2300  -58.8820  -23.7490 C.3   164  ILE164      0.0019
     17  CD1      -52.3330  -56.5140  -22.0780 C.3   164  ILE164      0.0001
     18  N        -61.4760  -51.3730  -22.9260 N.3   202  GLY202     -0.1210
     19  CA       -60.0750  -51.0680  -23.1410 C.3   202  GLY202      0.1956
     20  C        -59.2470  -52.2460  -23.6090 C.2   202  GLY202      0.2612
     21  O        -58.1560  -52.0640  -24.1580 O.2   202  GLY202     -0.2717
     22  N        -59.7540  -53.4560  -23.4050 N.am  203  GLY203     -0.1942
     23  CA       -59.0220  -54.6510  -23.7580 C.3   203  GLY203      0.2014
     24  C        -58.9040  -54.8360  -25.2610 C.2   203  GLY203      0.2640
     25  O        -59.1980  -53.9530  -26.0680 O.2   203  GLY203     -0.2714
     26  N        -58.4540  -56.0330  -25.6320 N.am  204  SER204     -0.1935
     27  CA       -58.2430  -56.3620  -27.0350 C.3   204  SER204      0.2055
     28  C        -59.5460  -56.2330  -27.8110 C.2   204  SER204      0.2643
     29  O        -60.5360  -56.9010  -27.4980 O.2   204  SER204     -0.2714
     30  CB       -57.6810  -57.7770  -27.1630 C.3   204  SER204      0.2130
     31  OG       -57.2960  -58.0520  -28.4980 O.3   204  SER204     -0.2179
     32  N        -59.5440  -55.3650  -28.8230 N.am  205  LEU205     -0.1963
     33  CA       -60.7480  -55.1090  -29.6110 C.3   205  LEU205      0.1728
     34  C        -60.3110  -54.8620  -31.0520 C.2   205  LEU205      0.2616
     35  O        -59.8550  -53.7630  -31.3850 O.2   205  LEU205     -0.2715
     36  CB       -61.5280  -53.9280  -29.0470 C.3   205  LEU205      0.0311
     37  CG       -62.9330  -53.6950  -29.6060 C.3   205  LEU205      0.0022
     38  CD1      -63.8770  -53.2600  -28.4970 C.3   205  LEU205      0.0001
     39  CD2      -62.9140  -52.6630  -30.7230 C.3   205  LEU205      0.0001
     40  N        -60.4460  -55.8850  -31.8920 N.am  206  LYS206     -0.1977
     41  CA       -60.1540  -55.7710  -33.3110 C.3   206  LYS206      0.1596
     42  C        -61.4410  -55.4590  -34.0700 C.2   206  LYS206      0.2287
     43  O        -62.5180  -55.3100  -33.4880 O.2   206  LYS206     -0.2864
     44  CB       -59.4950  -57.0520  -33.8300 C.3   206  LYS206      0.0298
     45  CG       -57.9670  -57.0070  -33.9000 C.3   206  LYS206      0.0038
     46  CD       -57.3520  -56.3830  -32.6550 C.3   206  LYS206      0.0206
     47  CE       -55.9720  -56.9570  -32.3790 C.3   206  LYS206      0.1093
     48  NZ       -55.0310  -55.9150  -31.8860 N.3   206  LYS206     -0.1314
     49  N        -59.3570  -48.1620  -28.2110 N.3   224  ILE224     -0.1231
     50  CA       -58.6260  -49.1020  -29.0530 C.3   224  ILE224      0.1692
     51  C        -57.1640  -48.6850  -29.1210 C.2   224  ILE224      0.2593
     52  O        -56.8480  -47.5060  -29.3220 O.2   224  ILE224     -0.2718
     53  CB       -59.2520  -49.1700  -30.4530 C.3   224  ILE224      0.0266
     54  CG1      -60.7700  -49.0180  -30.3530 C.3   224  ILE224      0.0019
     55  CG2      -58.8900  -50.4770  -31.1380 C.3   224  ILE224      0.0020
     56  CD1      -61.4580  -48.9620  -31.6850 C.3   224  ILE224      0.0001
     57  N        -56.2670  -49.6520  -28.9550 N.am  225  GLY225     -0.1942
     58  CA       -54.8460  -49.3690  -28.9930 C.3   225  GLY225      0.2014
     59  C        -54.0910  -50.2410  -29.9730 C.2   225  GLY225      0.2639
     60  O        -53.0620  -49.8290  -30.5160 O.2   225  GLY225     -0.2714
     61  N        -54.5920  -51.4510  -30.2070 N.am  226  GLY226     -0.1939
     62  CA       -53.9470  -52.3700  -31.1220 C.3   226  GLY226      0.2014
     63  C        -54.3790  -52.1770  -32.5590 C.2   226  GLY226      0.2638
     64  O        -53.5410  -52.0940  -33.4620 O.2   226  GLY226     -0.2714
     65  N        -55.6890  -52.1060  -32.7840 N.am  227  ALA227     -0.1977
     66  CA       -56.2430  -51.8840  -34.1110 C.3   227  ALA227      0.1597
     67  C        -56.4510  -50.4080  -34.4200 C.2   227  ALA227      0.2287
     68  O        -57.1380  -50.0800  -35.3930 O.2   227  ALA227     -0.2864
     69  CB       -57.5650  -52.6390  -34.2660 C.3   227  ALA227      0.0319
@<TRIPOS>BOND
     1    68    67    2
     2    67    66    1
     3    69    66    1
     4    66    65    1
     5    42    43    2
     6    42    41    1
     7    45    44    1
     8    45    46    1
     9    44    41    1
    10    64    63    2
    11    41    40    1
    12    65    63   am
    13    46    47    1
    14    63    62    1
    15    47    48    1
    16    40    34   am
    17    56    54    1
    18    35    34    2
    19    55    53    1
    20    62    61    1
    21    34    33    1
    22    39    37    1
    23    60    59    2
    24    53    54    1
    25    53    50    1
    26    61    59   am
    27    59    58    1
    28    33    36    1
    29    33    32    1
    30    37    36    1
    31    37    38    1
    32    52    51    2
    33    51    50    1
    34    51    57   am
    35    50    49    1
    36    58    57    1
    37    32    28   am
    38     1     2    1
    39    31    30    1
    40     3     2    1
    41     3     4    2
    42    28    29    2
    43    28    27    1
    44     2     5    1
    45     5     6    1
    46    30    27    1
    47     6     7    1
    48    27    26    1
    49     9     8    1
    50     7     8    1
    51    25    24    2
    52    26    24   am
    53    24    23    1
    54    21    20    2
    55    23    22    1
    56    16    14    1
    57    20    22   am
    58    20    19    1
    59    19    18    1
    60    14    11    1
    61    14    15    1
    62    17    15    1
    63    11    12    1
    64    11    10    1
    65    12    13    2
