@<TRIPOS>MOLECULE
tmp/5uk9B00.pdb
 149 145 0 0 0
SMALL
GASTEIGER

@<TRIPOS>ATOM
      1  N        -23.3270  100.6530   32.3790 N.3    12  GLY12      -0.1210
      2  CA       -22.7460  100.8780   33.6890 C.3    12  GLY12       0.1956
      3  C        -22.0220  102.2050   33.8210 C.2    12  GLY12       0.2612
      4  O        -21.2700  102.5990   32.9280 O.2    12  GLY12      -0.2717
      5  N        -22.2800  102.9320   34.9060 N.am   13  GLY13      -0.1942
      6  CA       -21.5510  104.1500   35.1970 C.3    13  GLY13       0.2014
      7  C        -22.0770  105.4240   34.5630 C.2    13  GLY13       0.2639
      8  O        -21.4850  106.4850   34.7940 O.2    13  GLY13      -0.2714
      9  N        -23.1750  105.3790   33.7940 N.am   14  VAL14      -0.1963
     10  CA       -23.5960  106.5850   33.0760 C.3    14  VAL14       0.1727
     11  C        -24.3420  107.5760   33.9540 C.2    14  VAL14       0.2617
     12  O        -24.5100  108.7380   33.5530 O.2    14  VAL14      -0.2715
     13  CB       -24.4680  106.2690   31.8420 C.3    14  VAL14       0.0290
     14  CG1      -23.6940  105.3970   30.8670 C.3    14  VAL14       0.0023
     15  CG2      -25.7840  105.6040   32.2370 C.3    14  VAL14       0.0023
     16  N        -24.7790  107.1690   35.1360 N.am   15  GLY15      -0.1940
     17  CA       -25.4850  108.0490   36.0420 C.3    15  GLY15       0.2014
     18  C        -26.9750  107.7720   36.2010 C.2    15  GLY15       0.2639
     19  O        -27.7160  108.6890   36.5770 O.2    15  GLY15      -0.2714
     20  N        -27.4260  106.5480   35.9270 N.am   16  LYS16      -0.1963
     21  CA       -28.8300  106.1960   36.1240 C.3    16  LYS16       0.1728
     22  C        -29.2740  106.4610   37.5590 C.2    16  LYS16       0.2617
     23  O        -30.3350  107.0520   37.8020 O.2    16  LYS16      -0.2715
     24  CB       -29.0420  104.7260   35.7620 C.3    16  LYS16       0.0311
     25  CG       -28.7090  104.3910   34.3080 C.3    16  LYS16       0.0038
     26  CD       -28.9530  102.8970   34.0050 C.3    16  LYS16       0.0206
     27  CE       -28.0440  101.9790   34.8190 C.3    16  LYS16       0.1093
     28  NZ       -26.5970  102.1090   34.4820 N.3    16  LYS16      -0.1314
     29  N        -28.4880  106.0050   38.5310 N.am   17  SER17      -0.1936
     30  CA       -28.9050  106.1720   39.9170 C.3    17  SER17       0.2055
     31  C        -28.8520  107.6380   40.3290 C.2    17  SER17       0.2642
     32  O        -29.7700  108.1320   40.9950 O.2    17  SER17      -0.2714
     33  CB       -28.0390  105.2960   40.8250 C.3    17  SER17       0.2130
     34  OG       -28.3080  103.9150   40.5640 O.3    17  SER17      -0.2179
     35  N        -27.7950  108.3500   39.9310 N.am   18  ALA18      -0.1977
     36  CA       -27.6670  109.7530   40.3080 C.3    18  ALA18       0.1597
     37  C        -28.8100  110.5840   39.7320 C.2    18  ALA18       0.2287
     38  O        -29.3450  111.4680   40.4130 O.2    18  ALA18      -0.2864
     39  CB       -26.2990  110.2900   39.8660 C.3    18  ALA18       0.0319
     40  N        -27.5330  115.7250   44.6790 N.3    28  PHE28      -0.1227
     41  CA       -26.5970  114.8670   43.9610 C.3    28  PHE28       0.1736
     42  C        -25.9280  113.9060   44.9310 C.2    28  PHE28       0.2595
     43  O        -25.3900  114.3300   45.9600 O.2    28  PHE28      -0.2718
     44  CB       -25.5200  115.6790   43.2540 C.3    28  PHE28       0.0547
     45  CG       -24.4770  114.8310   42.5800 C.ar   28  PHE28      -0.0202
     46  CD1      -24.8250  113.9860   41.5410 C.ar   28  PHE28      -0.0042
     47  CD2      -23.1480  114.8860   42.9810 C.ar   28  PHE28      -0.0042
     48  CE1      -23.8740  113.2130   40.8990 C.ar   28  PHE28      -0.0003
     49  CE2      -22.1920  114.1250   42.3480 C.ar   28  PHE28      -0.0003
     50  CZ       -22.5500  113.2810   41.3050 C.ar   28  PHE28      -0.0000
     51  N        -25.9320  112.6200   44.5970 N.am   29  VAL29      -0.1966
     52  CA       -25.3160  111.6020   45.4390 C.3    29  VAL29       0.1727
     53  C        -24.1230  111.0300   44.6890 C.2    29  VAL29       0.2616
     54  O        -24.2630  110.5530   43.5540 O.2    29  VAL29      -0.2715
     55  CB       -26.3350  110.5230   45.8410 C.3    29  VAL29       0.0290
     56  CG1      -25.6590  109.3750   46.5890 C.3    29  VAL29       0.0023
     57  CG2      -27.4070  111.1490   46.7100 C.3    29  VAL29       0.0023
     58  N        -22.9380  111.1060   45.3150 N.am   30  ASP30      -0.1957
     59  CA       -21.6960  110.7760   44.6210 C.3    30  ASP30       0.1840
     60  C        -21.5700  109.2850   44.3690 C.2    30  ASP30       0.2622
     61  O        -21.1800  108.8660   43.2730 O.2    30  ASP30      -0.2715
     62  CB       -20.4810  111.2490   45.4190 C.3    30  ASP30       0.1450
     63  CG       -20.4540  112.7380   45.6110 C.2    30  ASP30       0.3671
     64  OD1      -21.1340  113.2280   46.5320 O.co2  30  ASP30      -0.2456
     65  OD2      -19.7420  113.4090   44.8450 O.co2  30  ASP30      -0.2456
     66  N        -21.8240  108.4670   45.3910 N.am   31  GLU31      -0.1963
     67  CA       -21.5780  107.0300   45.3070 C.3    31  GLU31       0.1733
     68  C        -22.7060  106.2830   46.0020 C.2    31  GLU31       0.2616
     69  O        -23.5060  106.8640   46.7360 O.2    31  GLU31      -0.2715
     70  CB       -20.2270  106.6360   45.9220 C.3    31  GLU31       0.0429
     71  CG       -19.0020  107.3680   45.3460 C.3    31  GLU31       0.1163
     72  CD       -18.7780  107.1160   43.8530 C.2    31  GLU31       0.3649
     73  OE1      -18.1680  107.9820   43.1870 O.co2  31  GLU31      -0.2457
     74  OE2      -19.2150  106.0660   43.3370 O.co2  31  GLU31      -0.2457
     75  N        -22.7520  104.9660   45.7690 N.am   32  TYR32      -0.1974
     76  CA       -23.8990  104.1460   46.1440 C.3    32  TYR32       0.1639
     77  C        -23.4130  102.7880   46.6210 C.2    32  TYR32       0.2290
     78  O        -22.6110  102.1440   45.9400 O.2    32  TYR32      -0.2864
     79  CB       -24.8690  103.9680   44.9490 C.3    32  TYR32       0.0560
     80  CG       -25.3280  105.2920   44.3860 C.ar   32  TYR32      -0.0198
     81  CD1      -26.5210  105.8680   44.7990 C.ar   32  TYR32      -0.0009
     82  CD2      -24.5400  105.9930   43.4770 C.ar   32  TYR32      -0.0009
     83  CE1      -26.9260  107.1030   44.3150 C.ar   32  TYR32       0.0417
     84  CE2      -24.9320  107.2280   42.9910 C.ar   32  TYR32       0.0417
     85  CZ       -26.1230  107.7720   43.4100 C.ar   32  TYR32       0.1957
     86  OH       -26.5040  109.0040   42.9420 O.3    32  TYR32      -0.2866
     87  N        -32.4740  100.6240   37.0200 N.3    58  THR58      -0.1203
     88  CA       -31.9240   99.3210   36.6660 C.3    58  THR58       0.1994
     89  C        -30.4000   99.3400   36.7030 C.2    58  THR58       0.2618
     90  O        -29.7620  100.3930   36.7420 O.2    58  THR58      -0.2717
     91  CB       -32.3910   98.8900   35.2790 C.3    58  THR58       0.1784
     92  OG1      -31.7560   99.7220   34.3000 O.3    58  THR58      -0.2211
     93  CG2      -33.8980   99.0130   35.1670 C.3    58  THR58       0.0376
     94  N        -29.8170   98.1470   36.6750 N.am   59  ALA59      -0.1965
     95  CA       -28.3690   98.0060   36.6530 C.3    59  ALA59       0.1728
     96  C        -27.8730   97.9600   35.2120 C.2    59  ALA59       0.2616
     97  O        -28.5450   97.4200   34.3300 O.2    59  ALA59      -0.2715
     98  CB       -27.9420   96.7430   37.4080 C.3    59  ALA59       0.0334
     99  N        -26.7040   98.5620   34.9680 N.am   60  GLY60      -0.1955
    100  CA       -26.1130   98.4690   33.6410 C.3    60  GLY60       0.1869
    101  C        -25.8430   97.0310   33.2280 C.2    60  GLY60       0.2309
    102  O        -26.1150   96.6360   32.0890 O.2    60  GLY60      -0.2863
    103  N        -26.0690  112.2360   29.7310 N.3   113  ASN113     -0.1225
    104  CA       -25.7720  112.7150   31.0760 C.3   113  ASN113      0.1785
    105  C        -24.2950  113.0890   31.2170 C.2   113  ASN113      0.2597
    106  O        -23.4660  112.7820   30.3560 O.2   113  ASN113     -0.2718
    107  CB       -26.1650  111.6530   32.1070 C.3   113  ASN113      0.1169
    108  CG       -26.0720  112.1620   33.5430 C.2   113  ASN113      0.2627
    109  OD1      -26.4970  113.2870   33.8520 O.2   113  ASN113     -0.2716
    110  ND2      -25.4860  111.3420   34.4240 N.am  113  ASN113     -0.0877
    111  N        -23.9890  113.7890   32.3200 N.am  114  LYS114     -0.1980
    112  CA       -22.6370  114.2540   32.6870 C.3   114  LYS114      0.1596
    113  C        -22.1790  115.4410   31.8340 C.2   114  LYS114      0.2287
    114  O        -20.9930  115.5760   31.5230 O.2   114  LYS114     -0.2864
    115  CB       -21.6030  113.1260   32.6260 C.3   114  LYS114      0.0298
    116  CG       -22.0120  111.8390   33.3650 C.3   114  LYS114      0.0038
    117  CD       -20.7850  110.9900   33.7100 C.3   114  LYS114      0.0206
    118  CE       -21.2000  109.7160   34.4670 C.3   114  LYS114      0.1093
    119  NZ       -19.9980  108.9100   34.8710 N.3   114  LYS114     -0.1314
    120  N        -21.6600  118.3370   32.6730 N.3   116  ASP116     -0.1225
    121  CA       -20.7700  119.2000   33.4320 C.3   116  ASP116      0.1805
    122  C        -19.2950  118.9010   33.1790 C.2   116  ASP116      0.2597
    123  O        -18.4440  119.7130   33.5640 O.2   116  ASP116     -0.2718
    124  CB       -21.0490  119.0270   34.9180 C.3   116  ASP116      0.1424
    125  CG       -20.8640  117.5890   35.3530 C.2   116  ASP116      0.3668
    126  OD1      -21.7650  116.7470   35.0830 O.co2 116  ASP116     -0.2456
    127  OD2      -19.7920  117.2920   35.9150 O.co2 116  ASP116     -0.2456
    128  N        -18.9740  117.7490   32.5620 N.am  117  LEU117     -0.1979
    129  CA       -17.6010  117.2740   32.4420 C.3   117  LEU117      0.1596
    130  C        -16.8790  117.9490   31.2760 C.2   117  LEU117      0.2287
    131  O        -17.5110  118.3890   30.3100 O.2   117  LEU117     -0.2864
    132  CB       -17.5780  115.7580   32.2390 C.3   117  LEU117      0.0297
    133  CG       -17.9000  114.8660   33.4380 C.3   117  LEU117      0.0022
    134  CD1      -17.9070  113.3820   33.0300 C.3   117  LEU117      0.0001
    135  CD2      -16.8980  115.0990   34.5730 C.3   117  LEU117      0.0001
    136  N        -26.5650  115.1140   36.3190 N.3   143  ALA143     -0.1231
    137  CA       -27.0430  114.8020   37.6600 C.3   143  ALA143      0.1694
    138  C        -26.2930  115.6140   38.7090 C.2   143  ALA143      0.2591
    139  O        -26.8310  115.8760   39.7890 O.2   143  ALA143     -0.2718
    140  CB       -26.9170  113.3040   37.9500 C.3   143  ALA143      0.0304
    141  N        -25.0560  116.0210   38.4100 N.am  144  LYS144     -0.1980
    142  CA       -24.2630  116.7670   39.3820 C.3   144  LYS144      0.1596
    143  C        -24.8190  118.1700   39.6020 C.2   144  LYS144      0.2287
    144  O        -24.9800  118.6060   40.7450 O.2   144  LYS144     -0.2864
    145  CB       -22.8050  116.8330   38.9270 C.3   144  LYS144      0.0298
    146  CG       -21.8580  117.4770   39.9350 C.3   144  LYS144      0.0038
    147  CD       -20.4070  117.2840   39.4870 C.3   144  LYS144      0.0206
    148  CE       -19.4270  117.9090   40.4780 C.3   144  LYS144      0.1093
    149  NZ       -19.3630  119.3910   40.3420 N.3   144  LYS144     -0.1314
@<TRIPOS>BOND
     1   103   104    1
     2   131   130    2
     3   106   105    2
     4    14    13    1
     5   104   105    1
     6   104   107    1
     7   105   111   am
     8   130   129    1
     9   114   113    2
    10   113   112    1
    11    13    15    1
    12    13    10    1
    13   102   101    2
    14   107   108    1
    15   132   129    1
    16   132   133    1
    17   111   112    1
    18     1     2    1
    19   129   128    1
    20   128   122   am
    21   115   112    1
    22   115   116    1
    23   120   121    1
    24     4     3    2
    25   134   133    1
    26    10     9    1
    27    10    11    1
    28   122   121    1
    29   122   123    2
    30   101   100    1
    31   116   117    1
    32   121   124    1
    33   133   135    1
    34   108   109    2
    35   108   110   am
    36    12    11    2
    37   100    99    1
    38     2     3    1
    39   117   118    1
    40     9     7   am
    41     3     5   am
    42    11    16   am
    43    26    25    1
    44    26    27    1
    45    92    91    1
    46    25    24    1
    47    97    96    2
    48   118   119    1
    49    28    27    1
    50     7     8    2
    51     7     6    1
    52     5     6    1
    53   124   125    1
    54    99    96   am
    55   126   125   ar
    56    16    17    1
    57    93    91    1
    58    96    95    1
    59    91    88    1
    60   125   127   ar
    61    24    21    1
    62    20    21    1
    63    20    18   am
    64    17    18    1
    65    21    22    1
    66    18    19    2
    67   136   137    1
    68    95    94    1
    69    95    98    1
    70    88    89    1
    71    88    87    1
    72    94    89   am
    73    89    90    2
    74    22    23    2
    75    22    29   am
    76   137   140    1
    77   137   138    1
    78   141   138   am
    79   141   142    1
    80    29    30    1
    81   138   139    2
    82   145   142    1
    83   145   146    1
    84   142   143    1
    85   147   146    1
    86   147   148    1
    87   143   144    2
    88    37    36    1
    89    37    38    2
    90    39    36    1
    91    30    31    1
    92    30    33    1
    93    35    36    1
    94    35    31   am
    95    31    32    2
    96   149   148    1
    97    34    33    1
    98    48    50   ar
    99    48    46   ar
   100    50    49   ar
   101    46    45   ar
   102    49    47   ar
   103    45    47   ar
   104    45    44    1
   105    86    85    1
   106    84    85   ar
   107    84    82   ar
   108    73    72   ar
   109    44    41    1
   110    61    60    2
   111    74    72   ar
   112    85    83   ar
   113    82    80   ar
   114    54    53    2
   115    72    71    1
   116    41    40    1
   117    41    42    1
   118    83    81   ar
   119    60    59    1
   120    60    66   am
   121    80    81   ar
   122    80    79    1
   123    51    42   am
   124    51    52    1
   125    59    58    1
   126    59    62    1
   127    53    58   am
   128    53    52    1
   129    65    63   ar
   130    42    43    2
   131    79    76    1
   132    67    66    1
   133    67    70    1
   134    67    68    1
   135    71    70    1
   136    62    63    1
   137    52    55    1
   138    63    64   ar
   139    75    68   am
   140    75    76    1
   141    55    56    1
   142    55    57    1
   143    78    77    2
   144    68    69    2
   145    76    77    1
