@<TRIPOS>MOLECULE
tmp/5ukfA00.pdb
 171 161 0 0 0
SMALL
GASTEIGER

@<TRIPOS>ATOM
      1  N         82.2920   -4.2480   85.4570 N.3    24  ILE24      -0.1245
      2  CA        81.4330   -5.3390   84.9920 C.3    24  ILE24       0.1561
      3  C         81.6190   -5.4440   83.4930 C.2    24  ILE24       0.2260
      4  O         81.2080   -4.5490   82.7520 O.2    24  ILE24      -0.2867
      5  CB        79.9440   -5.1420   85.3920 C.3    24  ILE24       0.0252
      6  CG1       79.1700   -6.4600   85.3070 C.3    24  ILE24       0.0019
      7  CG2       79.3220   -3.9450   84.6700 C.3    24  ILE24       0.0019
      8  CD1       77.8770   -6.4370   86.0490 C.3    24  ILE24       0.0001
      9  N         81.7470   -4.6290   77.6810 N.3    27  GLY27      -0.1225
     10  CA        80.7240   -4.3670   76.6710 C.3    27  GLY27       0.1811
     11  C         80.5920   -2.9010   76.3050 C.2    27  GLY27       0.2280
     12  O         80.9640   -2.0170   77.0860 O.2    27  GLY27      -0.2866
     13  N         78.6130   -0.5810   76.5270 N.3    29  PHE29      -0.1241
     14  CA        77.5880    0.0950   77.3010 C.3    29  PHE29       0.1605
     15  C         78.1780    1.2420   78.1100 C.2    29  PHE29       0.2264
     16  O         77.4690    1.9190   78.8500 O.2    29  PHE29      -0.2867
     17  CB        76.9770   -0.9020   78.2660 C.3    29  PHE29       0.0534
     18  CG        75.8770   -1.7250   77.6800 C.ar   29  PHE29      -0.0203
     19  CD1       74.8120   -1.1270   77.0370 C.ar   29  PHE29      -0.0042
     20  CD2       75.8720   -3.0970   77.8390 C.ar   29  PHE29      -0.0042
     21  CE1       73.7800   -1.8870   76.5270 C.ar   29  PHE29      -0.0003
     22  CE2       74.8420   -3.8610   77.3340 C.ar   29  PHE29      -0.0003
     23  CZ        73.7940   -3.2550   76.6780 C.ar   29  PHE29      -0.0000
     24  N         80.9950    0.8180   83.4830 N.3    32  ILE32      -0.1245
     25  CA        80.1320    0.2390   84.5180 C.3    32  ILE32       0.1561
     26  C         80.9390   -0.5800   85.5500 C.2    32  ILE32       0.2260
     27  O         81.7060   -1.4590   85.1730 O.2    32  ILE32      -0.2867
     28  CB        78.9430   -0.5680   83.9030 C.3    32  ILE32       0.0252
     29  CG1       78.1050    0.2960   82.9300 C.3    32  ILE32       0.0019
     30  CG2       78.0500   -1.1640   84.9980 C.3    32  ILE32       0.0019
     31  CD1       77.1970   -0.4690   82.0020 C.3    32  ILE32       0.0001
     32  N         74.9960   -1.3940   90.4000 N.3    50  VAL50      -0.1245
     33  CA        76.0540   -0.9950   89.5060 C.3    50  VAL50       0.1561
     34  C         76.1140    0.5140   89.4570 C.2    50  VAL50       0.2260
     35  O         75.1390    1.2040   89.6870 O.2    50  VAL50      -0.2867
     36  CB        75.8440   -1.4880   88.0610 C.3    50  VAL50       0.0252
     37  CG1       76.0070   -2.9900   87.9510 C.3    50  VAL50       0.0019
     38  CG2       74.5090   -1.0230   87.5120 C.3    50  VAL50       0.0019
     39  N         77.1660    3.3930   86.7970 N.3    52  LYS52      -0.1245
     40  CA        77.4200    3.7230   85.4040 C.3    52  LYS52       0.1561
     41  C         77.9620    5.1320   85.4300 C.2    52  LYS52       0.2260
     42  O         77.3590    6.0070   86.0200 O.2    52  LYS52      -0.2867
     43  CB        76.1240    3.6690   84.6080 C.3    52  LYS52       0.0271
     44  CG        76.3000    3.7430   83.1060 C.3    52  LYS52       0.0035
     45  CD        75.0370    3.3010   82.3890 C.3    52  LYS52       0.0206
     46  CE        75.1300    3.5500   80.8950 C.3    52  LYS52       0.1093
     47  NZ        76.1140    4.6140   80.5590 N.3    52  LYS52      -0.1314
     48  N         69.6010    9.5810   79.2620 N.3    64  GLU64      -0.1245
     49  CA        69.3410    8.3360   79.9580 C.3    64  GLU64       0.1567
     50  C         69.0200    8.6010   81.4210 C.2    64  GLU64       0.2260
     51  O         68.1460    7.9740   81.9910 O.2    64  GLU64      -0.2867
     52  CB        70.5420    7.4090   79.8310 C.3    64  GLU64       0.0388
     53  CG        70.3390    6.0230   80.4030 C.3    64  GLU64       0.1160
     54  CD        71.3340    5.0270   79.8560 C.2    64  GLU64       0.3649
     55  OE1       72.5430    5.2690   79.9720 O.co2  64  GLU64      -0.2457
     56  OE2       70.9120    4.0080   79.2970 O.co2  64  GLU64      -0.2457
     57  N         65.4430    7.9080   83.6210 N.3    68  TYR68      -0.1241
     58  CA        65.4640    7.1390   84.8550 C.3    68  TYR68       0.1605
     59  C         64.8840    7.9210   86.0310 C.2    68  TYR68       0.2264
     60  O         64.1610    7.3720   86.8400 O.2    68  TYR68      -0.2867
     61  CB        66.8750    6.6350   85.1530 C.3    68  TYR68       0.0534
     62  CG        67.2260    5.3740   84.4070 C.ar   68  TYR68      -0.0201
     63  CD1       66.4380    4.2490   84.5080 C.ar   68  TYR68      -0.0009
     64  CD2       68.3390    5.3110   83.5970 C.ar   68  TYR68      -0.0009
     65  CE1       66.7470    3.0970   83.8250 C.ar   68  TYR68       0.0417
     66  CE2       68.6550    4.1660   82.9070 C.ar   68  TYR68       0.0417
     67  CZ        67.8550    3.0630   83.0310 C.ar   68  TYR68       0.1957
     68  OH        68.1650    1.9220   82.3560 O.3    68  TYR68      -0.2866
     69  N         64.7330   -1.0960   84.5680 N.3    92  PRO92      -0.2116
     70  CA        65.7190   -1.1220   85.6440 C.3    92  PRO92       0.1372
     71  C         65.4550   -0.0180   86.6450 C.2    92  PRO92       0.2244
     72  O         65.1270    1.0840   86.2470 O.2    92  PRO92      -0.2868
     73  CB        67.0390   -0.8690   84.9180 C.3    92  PRO92       0.0268
     74  CG        66.7630   -1.1490   83.4890 C.3    92  PRO92       0.0207
     75  CD        65.3450   -0.7430   83.2870 C.3    92  PRO92       0.0892
     76  N         75.4940    7.2400   88.0110 N.3   110  MET110     -0.1245
     77  CA        74.1590    6.7460   88.2580 C.3   110  MET110      0.1570
     78  C         74.2120    5.3510   88.8740 C.2   110  MET110      0.2261
     79  O         74.9330    4.5000   88.3940 O.2   110  MET110     -0.2867
     80  CB        73.4730    6.6420   86.8960 C.3   110  MET110      0.0387
     81  CG        71.9690    6.7550   86.8610 C.3   110  MET110      0.0595
     82  SD        71.3780    6.8370   85.1560 S.3   110  MET110     -0.1393
     83  CE        72.5370    5.7830   84.3190 C.3   110  MET110      0.0692
     84  N         72.3450    1.9010   89.5190 N.3   112  MET112     -0.1230
     85  CA        71.2410    1.1160   88.9970 C.3   112  MET112      0.1702
     86  C         71.2120   -0.3240   89.4690 C.2   112  MET112      0.2592
     87  O         72.1590   -0.8140   90.0520 O.2   112  MET112     -0.2718
     88  CB        71.3050    1.0940   87.4690 C.3   112  MET112      0.0401
     89  CG        71.5580    2.4320   86.8090 C.3   112  MET112      0.0596
     90  SD        70.0190    3.3170   86.5610 S.3   112  MET112     -0.1393
     91  CE        68.9520    1.9730   86.0910 C.3   112  MET112      0.0692
     92  N         70.1180   -0.9870   89.1220 N.am  113  ASP113     -0.1960
     93  CA        69.8880   -2.3890   89.3990 C.3   113  ASP113      0.1840
     94  C         70.9100   -3.1680   88.6020 C.2   113  ASP113      0.2622
     95  O         71.1800   -2.8390   87.4730 O.2   113  ASP113     -0.2715
     96  CB        68.5150   -2.7850   88.8690 C.3   113  ASP113      0.1450
     97  CG        67.4510   -2.7870   89.9320 C.2   113  ASP113      0.3671
     98  OD1       67.7830   -2.6330   91.1170 O.co2 113  ASP113     -0.2456
     99  OD2       66.2710   -2.9530   89.5750 O.co2 113  ASP113     -0.2456
    100  N         71.4510   -4.2230   89.1790 N.am  114  ARG114     -0.1963
    101  CA        72.4400   -5.0560   88.5140 C.3   114  ARG114      0.1729
    102  C         71.7940   -6.2430   87.7800 C.2   114  ARG114      0.2616
    103  O         70.8370   -6.8450   88.2760 O.2   114  ARG114     -0.2715
    104  CB        73.4420   -5.5780   89.5420 C.3   114  ARG114      0.0348
    105  CG        74.5720   -6.3780   88.9580 C.3   114  ARG114      0.0492
    106  CD        74.7240   -7.6180   89.7530 C.3   114  ARG114      0.2205
    107  NE        76.0600   -8.1750   89.5960 N.pl3 114  ARG114     -0.0865
    108  CZ        76.6030   -9.0350   90.4420 C.cat 114  ARG114      0.5346
    109  NH1       75.9380   -9.4240   91.5200 N.pl3 114  ARG114      0.1354
    110  NH2       77.8200   -9.5100   90.2190 N.pl3 114  ARG114      0.1354
    111  N         72.3380   -6.5810   86.6200 N.am  115  PHE115     -0.1960
    112  CA        71.8320   -7.6860   85.8300 C.3   115  PHE115      0.1771
    113  C         72.9420   -8.6410   85.4540 C.2   115  PHE115      0.2620
    114  O         74.1150   -8.3150   85.5510 O.2   115  PHE115     -0.2715
    115  CB        71.1570   -7.1680   84.5620 C.3   115  PHE115      0.0574
    116  CG        70.1230   -6.1330   84.8260 C.ar  115  PHE115     -0.0200
    117  CD1       68.9600   -6.4680   85.4740 C.ar  115  PHE115     -0.0042
    118  CD2       70.3330   -4.8250   84.4610 C.ar  115  PHE115     -0.0042
    119  CE1       68.0110   -5.5170   85.7420 C.ar  115  PHE115     -0.0003
    120  CE2       69.3860   -3.8680   84.7220 C.ar  115  PHE115     -0.0003
    121  CZ        68.2220   -4.2150   85.3610 C.ar  115  PHE115     -0.0000
    122  N         72.5490   -9.8260   85.0180 N.am  116  GLY116     -0.1940
    123  CA        73.4910  -10.8340   84.5990 C.3   116  GLY116      0.2014
    124  C         73.6600  -10.7920   83.1000 C.2   116  GLY116      0.2640
    125  O         73.8450   -9.7330   82.5190 O.2   116  GLY116     -0.2714
    126  N         73.5730  -11.9510   82.4680 N.am  117  SER117     -0.1935
    127  CA        73.7430  -12.0490   81.0270 C.3   117  SER117      0.2055
    128  C         72.6600  -11.4120   80.1700 C.2   117  SER117      0.2643
    129  O         71.5020  -11.3270   80.5600 O.2   117  SER117     -0.2714
    130  CB        73.8830  -13.5180   80.6290 C.3   117  SER117      0.2130
    131  OG        74.5220  -13.6490   79.3760 O.3   117  SER117     -0.2179
    132  N         73.0670  -10.9590   78.9940 N.am  118  ASP118     -0.1971
    133  CA        72.1320  -10.4000   78.0420 C.3   118  ASP118      0.1709
    134  C         71.4830  -11.5350   77.2530 C.2   118  ASP118      0.2293
    135  O         71.9700  -12.6590   77.2250 O.2   118  ASP118     -0.2864
    136  CB        72.8220   -9.4060   77.1060 C.3   118  ASP118      0.1436
    137  CG        73.7770  -10.0670   76.1430 C.2   118  ASP118      0.3671
    138  OD1       73.9660  -11.2890   76.2320 O.co2 118  ASP118     -0.2456
    139  OD2       74.3580   -9.3620   75.2980 O.co2 118  ASP118     -0.2456
    140  N         73.6590  -13.4110   74.2600 N.3   121  LYS121     -0.1245
    141  CA        74.6010  -14.4770   74.5720 C.3   121  LYS121      0.1561
    142  C         73.8860  -15.8090   74.6990 C.2   121  LYS121      0.2260
    143  O         74.3690  -16.8270   74.2370 O.2   121  LYS121     -0.2867
    144  CB        75.3460  -14.1730   75.8660 C.3   121  LYS121      0.0271
    145  CG        76.8140  -13.8620   75.6720 C.3   121  LYS121      0.0035
    146  CD        77.1130  -12.4080   75.9740 C.3   121  LYS121      0.0206
    147  CE        77.5880  -11.6740   74.7330 C.3   121  LYS121      0.1093
    148  NZ        79.0000  -11.2220   74.8670 N.3   121  LYS121     -0.1314
    149  N         68.4370   -7.6880   79.3040 N.3   165  LEU165     -0.1245
    150  CA        69.2910   -8.2680   80.3140 C.3   165  LEU165      0.1561
    151  C         68.4640   -9.0710   81.2740 C.2   165  LEU165      0.2260
    152  O         67.3010   -8.7870   81.5040 O.2   165  LEU165     -0.2867
    153  CB        70.0500   -7.1720   81.0600 C.3   165  LEU165      0.0270
    154  CG        71.4070   -6.7550   80.5000 C.3   165  LEU165      0.0019
    155  CD1       71.3970   -6.7700   78.9880 C.3   165  LEU165      0.0001
    156  CD2       71.8240   -5.3900   81.0100 C.3   165  LEU165      0.0001
    157  N         67.0900   -2.3350   78.7090 N.3   177  VAL177     -0.1231
    158  CA        68.1160   -1.3410   79.0690 C.3   177  VAL177      0.1692
    159  C         68.4650   -0.4420   77.8670 C.2   177  VAL177      0.2592
    160  O         68.0190   -0.6900   76.7400 O.2   177  VAL177     -0.2718
    161  CB        69.3990   -2.0030   79.6880 C.3   177  VAL177      0.0266
    162  CG1       69.0800   -2.7780   80.9600 C.3   177  VAL177      0.0020
    163  CG2       70.1470   -2.8870   78.6750 C.3   177  VAL177      0.0020
    164  N         69.2790    0.5710   78.1280 N.am  178  ASP178     -0.1974
    165  CA        69.7460    1.5180   77.1220 C.3   178  ASP178      0.1709
    166  C         68.7080    2.5460   76.6970 C.2   178  ASP178      0.2293
    167  O         67.9720    2.3560   75.7410 O.2   178  ASP178     -0.2864
    168  CB        70.3350    0.8010   75.9110 C.3   178  ASP178      0.1436
    169  CG        71.3410    1.6500   75.1680 C.2   178  ASP178      0.3671
    170  OD1       71.2650    2.8860   75.2560 O.co2 178  ASP178     -0.2456
    171  OD2       72.2130    1.0860   74.4910 O.co2 178  ASP178     -0.2456
@<TRIPOS>BOND
     1   143   142    2
     2   140   141    1
     3   171   169   ar
     4   141   142    1
     5   141   144    1
     6   147   148    1
     7   147   146    1
     8   169   170   ar
     9   169   168    1
    10   139   137   ar
    11   145   144    1
    12   145   146    1
    13   167   166    2
    14   168   165    1
    15   137   138   ar
    16   137   136    1
    17    11    10    1
    18    11    12    2
    19    13    14    1
    20    21    23   ar
    21    21    19   ar
    22    10     9    1
    23    23    22   ar
    24   166   165    1
    25   160   159    2
    26    19    18   ar
    27   136   133    1
    28   165   164    1
    29   135   134    2
    30   134   133    1
    31    14    15    1
    32    14    17    1
    33    22    20   ar
    34    18    20   ar
    35    18    17    1
    36   159   164   am
    37   159   158    1
    38   133   132    1
    39    15    16    2
    40   163   161    1
    41   157   158    1
    42   155   154    1
    43   132   128   am
    44   158   161    1
    45    48    49    1
    46    56    54   ar
    47   149   150    1
    48   131   130    1
    49   161   162    1
    50    52    49    1
    51    52    53    1
    52    54    55   ar
    53    54    53    1
    54    49    50    1
    55   128   129    2
    56   128   127    1
    57   150   153    1
    58   150   151    1
    59   154   156    1
    60   154   153    1
    61    47    46    1
    62   130   127    1
    63    46    45    1
    64   127   126    1
    65   151   152    2
    66    50    51    2
    67    31    29    1
    68    68    67    1
    69    45    44    1
    70   126   124   am
    71   125   124    2
    72     4     3    2
    73    66    67   ar
    74    66    64   ar
    75    29    28    1
    76    67    65   ar
    77   124   123    1
    78    44    43    1
    79    75    74    1
    80    75    69    1
    81    24    25    1
    82    74    73    1
    83     3     2    1
    84    64    62   ar
    85    57    58    1
    86    65    63   ar
    87    28    25    1
    88    28    30    1
    89    83    82    1
    90    62    63   ar
    91    62    61    1
    92   118   120   ar
    93   118   116   ar
    94    25    26    1
    95   115   116    1
    96   115   112    1
    97    69    70    1
    98   123   122    1
    99    43    40    1
   100     7     5    1
   101   120   121   ar
   102   116   117   ar
   103    58    61    1
   104    58    59    1
   105    73    70    1
   106     2     5    1
   107     2     1    1
   108   122   113   am
   109    82    81    1
   110    27    26    2
   111     6     5    1
   112     6     8    1
   113   121   119   ar
   114    40    41    1
   115    40    39    1
   116    41    42    2
   117   113   114    2
   118   113   112    1
   119   117   119   ar
   120    70    71    1
   121   112   111    1
   122    59    60    2
   123    91    90    1
   124    72    71    2
   125    90    89    1
   126   111   102   am
   127    89    88    1
   128    81    80    1
   129    80    77    1
   130    88    85    1
   131    95    94    2
   132    38    36    1
   133   102   103    2
   134   102   101    1
   135    37    36    1
   136    76    77    1
   137    36    33    1
   138    77    78    1
   139    79    78    2
   140   101   100    1
   141   101   104    1
   142    94   100   am
   143    94    93    1
   144    96    93    1
   145    96    97    1
   146   105   104    1
   147   105   106    1
   148    85    86    1
   149    85    84    1
   150    92    93    1
   151    92    86   am
   152    34    33    1
   153    34    35    2
   154    86    87    2
   155    33    32    1
   156    99    97   ar
   157   107   106    1
   158   107   108    2
   159    97    98   ar
   160   110   108    1
   161   108   109    1
