@<TRIPOS>MOLECULE
tmp/5ukrC00.pdb
 77 74 0 0 0
SMALL
GASTEIGER

@<TRIPOS>ATOM
      1  N         -0.6890   96.0190   10.6850 N.3    47  ARG47      -0.1245
      2  CA        -1.0640   96.9450   11.7410 C.3    47  ARG47       0.1563
      3  C         -0.7560   96.3400   13.1130 C.2    47  ARG47       0.2260
      4  O         -1.3380   95.3160   13.4970 O.2    47  ARG47      -0.2867
      5  CB        -2.5440   97.3260   11.6160 C.3    47  ARG47       0.0307
      6  CG        -2.8200   98.2950   10.4630 C.3    47  ARG47       0.0489
      7  CD        -4.2840   98.2710   10.0230 C.3    47  ARG47       0.2205
      8  NE        -4.5970   99.2570    8.9810 N.pl3  47  ARG47      -0.0865
      9  CZ        -4.6340   98.9940    7.6760 C.cat  47  ARG47       0.5346
     10  NH1       -4.3730   97.7720    7.2280 N.pl3  47  ARG47       0.1354
     11  NH2       -4.9310   99.9550    6.8140 N.pl3  47  ARG47       0.1354
     12  N         -1.7390   96.7200   15.8770 N.3    49  VAL49      -0.1245
     13  CA        -2.8470   96.9780   16.7740 C.3    49  VAL49       0.1561
     14  C         -2.8090   95.9840   17.9230 C.2    49  VAL49       0.2260
     15  O         -2.9010   94.7710   17.7230 O.2    49  VAL49      -0.2867
     16  CB        -4.2140   96.8870   16.0410 C.3    49  VAL49       0.0252
     17  CG1       -4.2670   95.6640   15.1360 C.3    49  VAL49       0.0019
     18  CG2       -5.3520   96.8600   17.0470 C.3    49  VAL49       0.0019
     19  N         -8.7600   93.7140   14.5360 N.3    56  LEU56      -0.1231
     20  CA        -9.1840   94.8950   13.8040 C.3    56  LEU56       0.1693
     21  C         -8.2930   95.2090   12.6040 C.2    56  LEU56       0.2592
     22  O         -7.0530   95.1760   12.6990 O.2    56  LEU56      -0.2718
     23  CB        -9.2230   96.1000   14.7400 C.3    56  LEU56       0.0284
     24  CG        -9.9660   95.9180   16.0660 C.3    56  LEU56       0.0019
     25  CD1      -10.0120   97.2320   16.8240 C.3    56  LEU56       0.0001
     26  CD2      -11.3610   95.3880   15.8420 C.3    56  LEU56       0.0001
     27  N         -8.9440   95.5040   11.4760 N.am   57  ASN57      -0.1974
     28  CA        -8.2730   96.0460   10.3030 C.3    57  ASN57       0.1688
     29  C         -7.1950   95.1340    9.7050 C.2    57  ASN57       0.2292
     30  O         -6.0970   95.5990    9.3980 O.2    57  ASN57      -0.2864
     31  CB        -7.6370   97.3990   10.6480 C.3    57  ASN57       0.1181
     32  CG        -8.6480   98.4550   11.0740 C.2    57  ASN57       0.2629
     33  OD1       -9.8620   98.2410   11.0620 O.2    57  ASN57      -0.2716
     34  ND2       -8.1260   99.6220   11.4640 N.am   57  ASN57      -0.0877
     35  N         -8.4390   97.6310   23.2980 N.3   133  PHE133     -0.1227
     36  CA        -7.6220   98.0120   22.1520 C.3   133  PHE133      0.1736
     37  C         -7.1730   99.4510   22.2950 C.2   133  PHE133      0.2595
     38  O         -7.8900  100.2730   22.8590 O.2   133  PHE133     -0.2718
     39  CB        -8.4030   97.8640   20.8440 C.3   133  PHE133      0.0547
     40  CG        -9.6590   98.6740   20.8200 C.ar  133  PHE133     -0.0202
     41  CD1      -10.8110   98.1990   21.4270 C.ar  133  PHE133     -0.0042
     42  CD2       -9.6840   99.9250   20.2380 C.ar  133  PHE133     -0.0042
     43  CE1      -11.9640   98.9410   21.4380 C.ar  133  PHE133     -0.0003
     44  CE2      -10.8380  100.6740   20.2480 C.ar  133  PHE133     -0.0003
     45  CZ       -11.9800  100.1780   20.8520 C.ar  133  PHE133     -0.0000
     46  N         -6.0020   99.7670   21.7560 N.am  134  ASN134     -0.1960
     47  CA        -5.5650  101.1530   21.6930 C.3   134  ASN134      0.1819
     48  C         -6.1120  101.8150   20.4320 C.2   134  ASN134      0.2621
     49  O         -6.4900  101.1410   19.4830 O.2   134  ASN134     -0.2715
     50  CB        -4.0370  101.2540   21.7360 C.3   134  ASN134      0.1195
     51  CG        -3.3730  100.6790   20.5010 C.2   134  ASN134      0.2630
     52  OD1       -3.6020   99.5250   20.1300 O.2   134  ASN134     -0.2716
     53  ND2       -2.5450  101.4910   19.8510 N.am  134  ASN134     -0.0877
     54  N         -6.1650  103.1400   20.4440 N.am  135  CYS135     -0.1968
     55  CA        -6.7600  103.9040   19.3660 C.3   135  CYS135      0.1712
     56  C         -6.2830  105.3370   19.4460 C.2   135  CYS135      0.2296
     57  O         -6.9900  106.2010   19.9670 O.2   135  CYS135     -0.2864
     58  CB        -8.2840  103.8630   19.4320 C.3   135  CYS135      0.0983
     59  SG        -9.1080  104.5780   17.9710 S.3   135  CYS135     -0.0798
     60  N        -13.0970  106.8390   17.2120 N.3   166  CYS166     -0.1221
     61  CA       -12.6410  106.1330   16.0100 C.3   166  CYS166      0.1808
     62  C        -13.5400  104.9520   15.6210 C.2   166  CYS166      0.2602
     63  O        -14.1020  104.2620   16.4730 O.2   166  CYS166     -0.2717
     64  CB       -11.2000  105.6440   16.1870 C.3   166  CYS166      0.0970
     65  SG       -11.0070  104.2450   17.3180 S.3   166  CYS166     -0.0800
     66  N        -13.6630  104.7450   14.3150 N.am  167  SER167     -0.1938
     67  CA       -14.4480  103.6590   13.7320 C.3   167  SER167      0.2055
     68  C        -13.5080  102.5270   13.3200 C.2   167  SER167      0.2643
     69  O        -12.3190  102.7560   13.1330 O.2   167  SER167     -0.2714
     70  CB       -15.2470  104.1810   12.5270 C.3   167  SER167      0.2130
     71  OG       -15.9390  103.1520   11.8380 O.3   167  SER167     -0.2179
     72  N        -14.0140  101.3100   13.1770 N.am  168  SER168     -0.1949
     73  CA       -13.1290  100.2060   12.8040 C.3   168  SER168      0.1924
     74  C        -13.8090   99.0210   12.1210 C.2   168  SER168      0.2314
     75  O        -14.9940   98.7430   12.3240 O.2   168  SER168     -0.2863
     76  CB       -12.3810   99.6910   14.0370 C.3   168  SER168      0.2116
     77  OG       -11.1630  100.3900   14.2260 O.3   168  SER168     -0.2180
@<TRIPOS>BOND
     1    11     9    1
     2    10     9    1
     3     9     8    2
     4     8     7    1
     5    30    29    2
     6    29    28    1
     7     7     6    1
     8    28    31    1
     9    28    27    1
    10     6     5    1
    11    31    32    1
    12     1     2    1
    13    33    32    2
    14    32    34   am
    15    27    21   am
    16     5     2    1
    17     2     3    1
    18    71    70    1
    19    74    75    2
    20    74    73    1
    21    70    67    1
    22    21    22    2
    23    21    20    1
    24    73    72    1
    25    73    76    1
    26     3     4    2
    27    69    68    2
    28    72    68   am
    29    68    67    1
    30    67    66    1
    31    20    19    1
    32    20    23    1
    33    76    77    1
    34    66    62   am
    35    23    24    1
    36    17    16    1
    37    62    61    1
    38    62    63    2
    39    26    24    1
    40    12    13    1
    41    61    64    1
    42    61    60    1
    43    16    13    1
    44    16    18    1
    45    24    25    1
    46    64    65    1
    47    13    14    1
    48    65    59    1
    49    15    14    2
    50    59    58    1
    51    55    58    1
    52    55    56    1
    53    55    54    1
    54    56    57    2
    55    49    48    2
    56    53    51   am
    57    52    51    2
    58    42    44   ar
    59    42    40   ar
    60    44    45   ar
    61    48    54   am
    62    48    47    1
    63    51    50    1
    64    40    39    1
    65    40    41   ar
    66    39    36    1
    67    45    43   ar
    68    41    43   ar
    69    47    50    1
    70    47    46    1
    71    46    37   am
    72    36    37    1
    73    36    35    1
    74    37    38    2
