@<TRIPOS>MOLECULE
tmp/5ul0A02.pdb
 79 73 0 0 0
SMALL
GASTEIGER

@<TRIPOS>ATOM
      1  N         37.5510   28.0340    3.5210 N.3   210  GLU210     -0.1231
      2  CA        36.6430   28.2780    2.3930 C.3   210  GLU210      0.1699
      3  C         35.1930   28.0710    2.8120 C.2   210  GLU210      0.2592
      4  O         34.3420   28.9460    2.6040 O.2   210  GLU210     -0.2718
      5  CB        36.9670   27.3600    1.2020 C.3   210  GLU210      0.0402
      6  CG        38.4000   27.4010    0.6900 C.3   210  GLU210      0.1161
      7  CD        39.2880   26.3690    1.3550 C.2   210  GLU210      0.3649
      8  OE1       40.1360   25.7750    0.6490 O.co2 210  GLU210     -0.2457
      9  OE2       39.1410   26.1540    2.5830 O.co2 210  GLU210     -0.2457
     10  N         34.9000   26.9050    3.4070 N.am  211  MET211     -0.1979
     11  CA        33.5390   26.5820    3.8220 C.3   211  MET211      0.1605
     12  C         33.0530   27.5290    4.9130 C.2   211  MET211      0.2287
     13  O         31.8760   27.9060    4.9380 O.2   211  MET211     -0.2864
     14  CB        33.4740   25.1250    4.2870 C.3   211  MET211      0.0413
     15  CG        33.6530   24.0860    3.1700 C.3   211  MET211      0.0598
     16  SD        32.4950   24.3980    1.7990 S.3   211  MET211     -0.1393
     17  CE        33.5570   25.2020    0.5970 C.3   211  MET211      0.0692
     18  N         33.9740   30.6240    5.1150 N.3   213  ALA213     -0.1231
     19  CA        33.6810   31.8630    4.3920 C.3   213  ALA213      0.1694
     20  C         32.2660   31.8650    3.8150 C.2   213  ALA213      0.2591
     21  O         31.6330   32.9230    3.7380 O.2   213  ALA213     -0.2718
     22  CB        34.7110   32.0990    3.2850 C.3   213  ALA213      0.0304
     23  N         31.7340   30.6940    3.4480 N.am  214  LYS214     -0.1980
     24  CA        30.4050   30.6590    2.8280 C.3   214  LYS214      0.1596
     25  C         29.3060   31.1180    3.7780 C.2   214  LYS214      0.2287
     26  O         28.2670   31.6180    3.3260 O.2   214  LYS214     -0.2864
     27  CB        30.0630   29.2550    2.3270 C.3   214  LYS214      0.0298
     28  CG        31.1220   28.6070    1.4850 C.3   214  LYS214      0.0038
     29  CD        30.8120   28.7340   -0.0010 C.3   214  LYS214      0.0206
     30  CE        31.9340   28.1100   -0.8090 C.3   214  LYS214      0.1093
     31  NZ        32.0750   28.7020   -2.1530 N.3   214  LYS214     -0.1314
     32  N         27.7920   34.5120    3.6330 N.3   217  THR217     -0.1218
     33  CA        26.9810   34.8410    2.4650 C.3   217  THR217      0.1862
     34  C         25.5660   34.2980    2.6340 C.2   217  THR217      0.2287
     35  O         25.2170   33.7030    3.6650 O.2   217  THR217     -0.2866
     36  CB        27.5960   34.2950    1.1720 C.3   217  THR217      0.1770
     37  OG1       27.4450   32.8690    1.1270 O.3   217  THR217     -0.2211
     38  CG2       29.0660   34.6470    1.0630 C.3   217  THR217      0.0375
     39  N         24.5380   31.8100    1.3370 N.3   219  PHE219     -0.1241
     40  CA        24.6190   30.3640    1.5040 C.3   219  PHE219      0.1605
     41  C         24.2310   29.9160    2.9110 C.2   219  PHE219      0.2264
     42  O         23.7460   28.7940    3.0880 O.2   219  PHE219     -0.2867
     43  CB        26.0250   29.8820    1.1740 C.3   219  PHE219      0.0534
     44  CG        26.0500   28.5130    0.6110 C.ar  219  PHE219     -0.0203
     45  CD1       25.7280   28.3000   -0.7330 C.ar  219  PHE219     -0.0042
     46  CD2       26.3580   27.4290    1.4210 C.ar  219  PHE219     -0.0042
     47  CE1       25.7360   27.0290   -1.2700 C.ar  219  PHE219     -0.0003
     48  CE2       26.3680   26.1500    0.8990 C.ar  219  PHE219     -0.0003
     49  CZ        26.0430   25.9490   -0.4510 C.ar  219  PHE219     -0.0000
     50  N         28.5670   22.0640   -2.7450 N.3   258  THR258     -0.1218
     51  CA        29.6870   22.9200   -2.3750 C.3   258  THR258      0.1862
     52  C         30.8700   22.1030   -1.8660 C.2   258  THR258      0.2287
     53  O         32.0200   22.3800   -2.2350 O.2   258  THR258     -0.2866
     54  CB        29.2450   23.9370   -1.3360 C.3   258  THR258      0.1770
     55  OG1       28.1330   24.6760   -1.8560 O.3   258  THR258     -0.2211
     56  CG2       30.3660   24.8810   -1.0430 C.3   258  THR258      0.0375
     57  N         32.3660   20.3050   -4.8620 N.3   261  SER261     -0.1202
     58  CA        33.1120   21.3190   -5.6020 C.3   261  SER261      0.2020
     59  C         34.5130   21.5160   -5.0220 C.2   261  SER261      0.2618
     60  O         35.5110   21.5060   -5.7540 O.2   261  SER261     -0.2717
     61  CB        32.3320   22.6370   -5.6160 C.3   261  SER261      0.2103
     62  OG        32.9790   23.6090   -6.4190 O.3   261  SER261     -0.2182
     63  N         34.6090   21.6690   -3.6970 N.am  262  LEU262     -0.1979
     64  CA        35.9080   21.8920   -3.0760 C.3   262  LEU262      0.1596
     65  C         36.7770   20.6440   -3.1440 C.2   262  LEU262      0.2287
     66  O         37.9860   20.7380   -3.3750 O.2   262  LEU262     -0.2864
     67  CB        35.7200   22.3480   -1.6210 C.3   262  LEU262      0.0297
     68  CG        36.9740   22.5630   -0.7710 C.3   262  LEU262      0.0022
     69  CD1       37.7840   23.7330   -1.3260 C.3   262  LEU262      0.0001
     70  CD2       36.6170   22.8080    0.6890 C.3   262  LEU262      0.0001
     71  N         38.0900   20.3150   -6.6890 N.3   265  GLU265     -0.1245
     72  CA        39.0890   21.3290   -7.0020 C.3   265  GLU265      0.1567
     73  C         40.3980   21.0920   -6.2510 C.2   265  GLU265      0.2260
     74  O         41.4720   21.4330   -6.7620 O.2   265  GLU265     -0.2867
     75  CB        38.5340   22.7250   -6.7200 C.3   265  GLU265      0.0388
     76  CG        37.6460   23.2390   -7.8510 C.3   265  GLU265      0.1160
     77  CD        37.7760   24.7370   -8.0760 C.2   265  GLU265      0.3649
     78  OE1       38.3960   25.4150   -7.2220 O.co2 265  GLU265     -0.2457
     79  OE2       37.2560   25.2310   -9.1090 O.co2 265  GLU265     -0.2457
@<TRIPOS>BOND
     1    79    77   ar
     2    77    76    1
     3    77    78   ar
     4    76    75    1
     5    72    75    1
     6    72    71    1
     7    72    73    1
     8    74    73    2
     9    62    61    1
    10    60    59    2
    11    61    58    1
    12    58    59    1
    13    58    57    1
    14    59    63   am
    15    63    64    1
    16    66    65    2
    17    65    64    1
    18    64    67    1
    19    50    51    1
    20    51    52    1
    21    51    54    1
    22    53    52    2
    23    31    30    1
    24    55    54    1
    25    67    68    1
    26    54    56    1
    27    69    68    1
    28    47    45   ar
    29    47    49   ar
    30    30    29    1
    31    68    70    1
    32    45    44   ar
    33    49    48   ar
    34    29    28    1
    35    17    16    1
    36    44    43    1
    37    44    46   ar
    38     8     7   ar
    39     6     5    1
    40     6     7    1
    41    48    46   ar
    42    38    36    1
    43    37    36    1
    44    36    33    1
    45    43    40    1
    46     5     2    1
    47    39    40    1
    48     7     9   ar
    49    28    27    1
    50    40    41    1
    51    16    15    1
    52    27    24    1
    53     2     3    1
    54     2     1    1
    55    33    34    1
    56    33    32    1
    57     4     3    2
    58    34    35    2
    59     3    10   am
    60    24    23    1
    61    24    25    1
    62    41    42    2
    63    15    14    1
    64    22    19    1
    65    26    25    2
    66    10    11    1
    67    23    20   am
    68    21    20    2
    69    20    19    1
    70    11    14    1
    71    11    12    1
    72    19    18    1
    73    12    13    2
