@<TRIPOS>MOLECULE
tmp/5ul3A01.pdb
 99 93 0 0 0
SMALL
GASTEIGER

@<TRIPOS>ATOM
      1  N        -19.3440  -34.0300    6.4510 N.3   313  CYS313     -0.1235
      2  CA       -20.3050  -34.1270    7.5460 C.3   313  CYS313      0.1677
      3  C        -20.8500  -32.7400    7.8640 C.2   313  CYS313      0.2270
      4  O        -20.0920  -31.7750    7.9820 O.2   313  CYS313     -0.2867
      5  CB       -19.6470  -34.7610    8.7760 C.3   313  CYS313      0.0956
      6  SG       -18.9410  -36.3710    8.3730 S.3   313  CYS313     -0.0801
      7  N        -22.2530  -31.2340   10.3290 N.3   315  PHE315     -0.1227
      8  CA       -22.0160  -30.6290   11.6290 C.3   315  PHE315      0.1736
      9  C        -20.5400  -30.3170   11.8840 C.2   315  PHE315      0.2595
     10  O        -20.2050  -29.7890   12.9470 O.2   315  PHE315     -0.2718
     11  CB       -22.5260  -31.5720   12.7320 C.3   315  PHE315      0.0547
     12  CG       -21.8960  -32.9380   12.6700 C.ar  315  PHE315     -0.0202
     13  CD1      -20.6630  -33.1840   13.2730 C.ar  315  PHE315     -0.0042
     14  CD2      -22.5050  -33.9690   11.9530 C.ar  315  PHE315     -0.0042
     15  CE1      -20.0570  -34.4250   13.1910 C.ar  315  PHE315     -0.0003
     16  CE2      -21.9110  -35.2080   11.8600 C.ar  315  PHE315     -0.0003
     17  CZ       -20.6760  -35.4460   12.4810 C.ar  315  PHE315     -0.0000
     18  N        -19.6550  -30.6390   10.9530 N.am  316  CYS316     -0.1970
     19  CA       -18.2140  -30.5270   11.1730 C.3   316  CYS316      0.1712
     20  C        -17.6490  -29.3970   10.3140 C.2   316  CYS316      0.2296
     21  O        -17.4620  -29.5760    9.1020 O.2   316  CYS316     -0.2864
     22  CB       -17.5500  -31.8660   10.8240 C.3   316  CYS316      0.0983
     23  SG       -15.7530  -31.9940   11.1850 S.3   316  CYS316     -0.0798
     24  N         -3.7390  -37.4460   17.4910 N.3   356  ALA356     -0.1231
     25  CA        -4.5780  -36.2660   17.3570 C.3   356  ALA356      0.1694
     26  C         -5.3160  -36.2090   16.0180 C.2   356  ALA356      0.2592
     27  O         -6.2190  -35.3750   15.8790 O.2   356  ALA356     -0.2718
     28  CB        -3.7320  -34.9910   17.5030 C.3   356  ALA356      0.0304
     29  N         -4.9700  -37.0820   15.0690 N.am  357  ASP357     -0.1960
     30  CA        -5.5190  -37.0300   13.7030 C.3   357  ASP357      0.1840
     31  C         -7.0440  -36.9860   13.7020 C.2   357  ASP357      0.2621
     32  O         -7.7080  -37.7860   14.3710 O.2   357  ASP357     -0.2715
     33  CB        -5.0820  -38.2590   12.8980 C.3   357  ASP357      0.1450
     34  CG        -3.5990  -38.4790   12.8940 C.2   357  ASP357      0.3671
     35  OD1       -2.9370  -38.2980   13.9450 O.co2 357  ASP357     -0.2456
     36  OD2       -3.0960  -38.9140   11.8500 O.co2 357  ASP357     -0.2456
     37  N         -7.6040  -36.0720   12.9040 N.am  358  GLU358     -0.1977
     38  CA        -9.0150  -36.1890   12.5480 C.3   358  GLU358      0.1602
     39  C         -9.2760  -37.4820   11.7930 C.2   358  GLU358      0.2287
     40  O        -10.3340  -38.1060   11.9550 O.2   358  GLU358     -0.2864
     41  CB        -9.4430  -34.9880   11.6970 C.3   358  GLU358      0.0415
     42  CG        -9.5760  -33.6920   12.4790 C.3   358  GLU358      0.1163
     43  CD       -10.1410  -32.5840   11.6170 C.2   358  GLU358      0.3649
     44  OE1       -9.5250  -32.3120   10.5620 O.co2 358  GLU358     -0.2457
     45  OE2      -11.2190  -32.0390   11.9700 O.co2 358  GLU358     -0.2457
     46  N         -9.0540  -41.9280   15.8120 N.3   392  ALA392     -0.1231
     47  CA       -10.4380  -41.8250   15.3700 C.3   392  ALA392      0.1694
     48  C        -10.5540  -42.2250   13.9010 C.2   392  ALA392      0.2592
     49  O         -9.6050  -42.0810   13.1290 O.2   392  ALA392     -0.2718
     50  CB       -10.9740  -40.4030   15.5410 C.3   392  ALA392      0.0304
     51  N        -11.7300  -42.7210   13.5250 N.am  393  ALA393     -0.1966
     52  CA       -11.9420  -43.1460   12.1390 C.3   393  ALA393      0.1728
     53  C        -13.4220  -43.1010   11.8010 C.2   393  ALA393      0.2616
     54  O        -14.2750  -43.2520   12.6810 O.2   393  ALA393     -0.2715
     55  CB       -11.4100  -44.5640   11.9010 C.3   393  ALA393      0.0334
     56  N        -13.7210  -42.9140   10.5040 N.am  394  ARG394     -0.1977
     57  CA       -15.0900  -43.0370   10.0210 C.3   394  ARG394      0.1597
     58  C        -15.4670  -44.5040    9.8660 C.2   394  ARG394      0.2287
     59  O        -14.6170  -45.3550    9.5930 O.2   394  ARG394     -0.2864
     60  CB       -15.2800  -42.3650    8.6460 C.3   394  ARG394      0.0334
     61  CG       -14.5640  -41.0730    8.4180 C.3   394  ARG394      0.0492
     62  CD       -15.0370  -40.4060    7.0950 C.3   394  ARG394      0.2205
     63  NE       -14.9210  -41.2450    5.9060 N.pl3 394  ARG394     -0.0865
     64  CZ       -13.8560  -41.2630    5.1100 C.cat 394  ARG394      0.5346
     65  NH1      -13.8360  -42.0460    4.0380 N.pl3 394  ARG394      0.1354
     66  NH2      -12.8030  -40.5010    5.3850 N.pl3 394  ARG394      0.1354
     67  N        -12.0650  -44.4720   18.3180 N.3   427  PHE427     -0.1241
     68  CA       -13.3220  -43.7310   18.2550 C.3   427  PHE427      0.1605
     69  C        -13.8450  -43.8240   16.8260 C.2   427  PHE427      0.2264
     70  O        -13.1270  -43.4690   15.8930 O.2   427  PHE427     -0.2867
     71  CB       -13.1060  -42.2580   18.6270 C.3   427  PHE427      0.0534
     72  CG       -14.3410  -41.4130   18.5380 C.ar  427  PHE427     -0.0203
     73  CD1      -14.6730  -40.7590   17.3490 C.ar  427  PHE427     -0.0042
     74  CD2      -15.1650  -41.2370   19.6370 C.ar  427  PHE427     -0.0042
     75  CE1      -15.8210  -39.9810   17.2650 C.ar  427  PHE427     -0.0003
     76  CE2      -16.3120  -40.4600   19.5620 C.ar  427  PHE427     -0.0003
     77  CZ       -16.6400  -39.8270   18.3760 C.ar  427  PHE427     -0.0000
     78  N        -16.8020  -42.3780   14.3950 N.3   429  GLY429     -0.1225
     79  CA       -17.8490  -41.3770   14.2860 C.3   429  GLY429      0.1811
     80  C        -19.1220  -41.8930   13.6390 C.2   429  GLY429      0.2280
     81  O        -19.4960  -41.4530   12.5480 O.2   429  GLY429     -0.2866
     82  N        -22.3610  -41.5570   14.8020 N.3   431  GLU431     -0.1245
     83  CA       -23.2090  -40.3710   14.9560 C.3   431  GLU431      0.1567
     84  C        -24.7110  -40.6620   14.8780 C.2   431  GLU431      0.2260
     85  O        -25.5050  -39.9700   15.5220 O.2   431  GLU431     -0.2867
     86  CB       -22.8310  -39.2750   13.9310 C.3   431  GLU431      0.0388
     87  CG       -21.3580  -38.7710   13.9800 C.3   431  GLU431      0.1160
     88  CD       -20.7540  -38.6360   15.3760 C.2   431  GLU431      0.3649
     89  OE1      -19.5180  -38.7970   15.5090 O.co2 431  GLU431     -0.2457
     90  OE2      -21.4740  -38.3590   16.3500 O.co2 431  GLU431     -0.2457
     91  N        -23.2220  -37.9390    6.5910 N.3   443  LYS443     -0.1245
     92  CA       -22.2520  -38.9780    6.9320 C.3   443  LYS443      0.1561
     93  C        -21.9660  -39.9250    5.7760 C.2   443  LYS443      0.2260
     94  O        -20.8930  -40.5410    5.7470 O.2   443  LYS443     -0.2867
     95  CB       -22.7350  -39.7940    8.1430 C.3   443  LYS443      0.0271
     96  CG       -22.8300  -39.0350    9.4640 C.3   443  LYS443      0.0035
     97  CD       -21.4740  -38.4840    9.9190 C.3   443  LYS443      0.0206
     98  CE       -20.4190  -39.5690   10.0380 C.3   443  LYS443      0.1093
     99  NZ       -19.2080  -39.0540   10.7510 N.3   443  LYS443     -0.1314
@<TRIPOS>BOND
     1    65    64    1
     2    64    66    1
     3    64    63    2
     4    94    93    2
     5    93    92    1
     6    63    62    1
     7     1     2    1
     8    91    92    1
     9    92    95    1
    10    62    61    1
    11     2     3    1
    12     2     5    1
    13     3     4    2
    14    95    96    1
    15     6     5    1
    16    61    60    1
    17    60    57    1
    18    21    20    2
    19    96    97    1
    20    59    58    2
    21    58    57    1
    22    97    98    1
    23    57    56    1
    24    98    99    1
    25    20    19    1
    26     7     8    1
    27    56    53   am
    28    44    43   ar
    29    22    19    1
    30    22    23    1
    31    18    19    1
    32    18     9   am
    33    43    45   ar
    34    43    42    1
    35     8     9    1
    36     8    11    1
    37    41    42    1
    38    41    38    1
    39    39    40    2
    40    39    38    1
    41    53    52    1
    42    53    54    2
    43    36    34   ar
    44    16    14   ar
    45    16    17   ar
    46     9    10    2
    47    55    52    1
    48    14    12   ar
    49    52    51    1
    50    17    15   ar
    51    81    80    2
    52    38    37    1
    53    12    11    1
    54    12    13   ar
    55    34    33    1
    56    34    35   ar
    57    33    30    1
    58    37    31   am
    59    49    48    2
    60    15    13   ar
    61    51    48   am
    62    80    79    1
    63    31    30    1
    64    31    32    2
    65    30    29    1
    66    48    47    1
    67    86    87    1
    68    86    83    1
    69    87    88    1
    70    79    78    1
    71    82    83    1
    72    84    83    1
    73    84    85    2
    74    29    26   am
    75    47    50    1
    76    47    46    1
    77    88    89   ar
    78    88    90   ar
    79    27    26    2
    80    70    69    2
    81    26    25    1
    82    69    68    1
    83    75    73   ar
    84    75    77   ar
    85    73    72   ar
    86    25    24    1
    87    25    28    1
    88    68    67    1
    89    68    71    1
    90    77    76   ar
    91    72    71    1
    92    72    74   ar
    93    76    74   ar
