@<TRIPOS>MOLECULE
tmp/5ul4A01.pdb
 167 157 0 0 0
SMALL
GASTEIGER

@<TRIPOS>ATOM
      1  N         -9.2110  -33.5710    6.7330 N.3   309  CYS309     -0.1235
      2  CA       -10.1420  -34.6620    6.5290 C.3   309  CYS309      0.1677
      3  C        -10.3820  -34.7480    5.0280 C.2   309  CYS309      0.2270
      4  O        -10.7730  -33.7560    4.4140 O.2   309  CYS309     -0.2867
      5  CB       -11.4600  -34.4270    7.2740 C.3   309  CYS309      0.0956
      6  SG       -12.6200  -35.8380    7.0600 S.3   309  CYS309     -0.0801
      7  N        -22.3790  -31.1690   10.2870 N.3   316  PHE316     -0.1227
      8  CA       -22.1350  -30.5340   11.5770 C.3   316  PHE316      0.1736
      9  C        -20.6630  -30.1910   11.8260 C.2   316  PHE316      0.2595
     10  O        -20.3520  -29.5680   12.8500 O.2   316  PHE316     -0.2718
     11  CB       -22.6380  -31.4510   12.7110 C.3   316  PHE316      0.0547
     12  CG       -22.0080  -32.8320   12.6930 C.ar  316  PHE316     -0.0202
     13  CD1      -20.7670  -33.0640   13.3040 C.ar  316  PHE316     -0.0042
     14  CD2      -22.6280  -33.8900   12.0290 C.ar  316  PHE316     -0.0042
     15  CE1      -20.1720  -34.3290   13.2670 C.ar  316  PHE316     -0.0003
     16  CE2      -22.0450  -35.1500   11.9920 C.ar  316  PHE316     -0.0003
     17  CZ       -20.8000  -35.3680   12.6130 C.ar  316  PHE316     -0.0000
     18  N        -19.7580  -30.5800   10.9370 N.am  317  CYS317     -0.1970
     19  CA       -18.3150  -30.4390   11.1620 C.3   317  CYS317      0.1712
     20  C        -17.7350  -29.3190   10.2900 C.2   317  CYS317      0.2296
     21  O        -17.5360  -29.5120    9.0820 O.2   317  CYS317     -0.2864
     22  CB       -17.6390  -31.7810   10.8470 C.3   317  CYS317      0.0983
     23  SG       -15.8290  -31.8910   11.2120 S.3   317  CYS317     -0.0798
     24  N        -15.2220  -27.0340    8.2300 N.3   319  ARG319     -0.1245
     25  CA       -13.9320  -27.3730    7.6370 C.3   319  ARG319      0.1563
     26  C        -13.0230  -26.1600    7.3890 C.2   319  ARG319      0.2260
     27  O        -11.9180  -26.3270    6.8570 O.2   319  ARG319     -0.2867
     28  CB       -14.1490  -28.1670    6.3450 C.3   319  ARG319      0.0307
     29  CG       -15.0250  -29.4190    6.5680 C.3   319  ARG319      0.0489
     30  CD       -14.5640  -30.2490    7.7960 C.3   319  ARG319      0.2205
     31  NE       -13.1330  -30.5810    7.6810 N.pl3 319  ARG319     -0.0865
     32  CZ       -12.3850  -30.9820    8.7150 C.cat 319  ARG319      0.5346
     33  NH1      -11.0860  -31.2400    8.5420 N.pl3 319  ARG319      0.1354
     34  NH2      -12.9320  -31.0980    9.9110 N.pl3 319  ARG319      0.1354
     35  N         -7.7910  -35.9140   13.0620 N.3   359  GLU359     -0.1245
     36  CA        -9.2180  -35.9750   12.7240 C.3   359  GLU359      0.1567
     37  C         -9.5530  -37.2690   11.9990 C.2   359  GLU359      0.2260
     38  O        -10.6140  -37.8600   12.2270 O.2   359  GLU359     -0.2867
     39  CB        -9.6110  -34.7770   11.8600 C.3   359  GLU359      0.0388
     40  CG        -9.6370  -33.4560   12.6160 C.3   359  GLU359      0.1160
     41  CD       -10.1720  -32.3490   11.7310 C.2   359  GLU359      0.3649
     42  OE1       -9.5370  -32.0870   10.6860 O.co2 359  GLU359     -0.2457
     43  OE2      -11.2710  -31.8350   12.0460 O.co2 359  GLU359     -0.2457
     44  N         -9.0160  -41.9120   15.8960 N.3   393  ALA393     -0.1231
     45  CA       -10.3810  -41.7730   15.4010 C.3   393  ALA393      0.1694
     46  C        -10.4460  -42.1330   13.9190 C.2   393  ALA393      0.2592
     47  O         -9.4760  -41.9350   13.1850 O.2   393  ALA393     -0.2718
     48  CB       -10.9020  -40.3430   15.5830 C.3   393  ALA393      0.0304
     49  N        -11.5960  -42.6550   13.5030 N.am  394  ALA394     -0.1966
     50  CA       -11.8230  -43.0400   12.1070 C.3   394  ALA394      0.1728
     51  C        -13.3120  -43.0780   11.8140 C.2   394  ALA394      0.2616
     52  O        -14.1240  -43.4070   12.6860 O.2   394  ALA394     -0.2715
     53  CB       -11.2420  -44.4150   11.7810 C.3   394  ALA394      0.0334
     54  N        -13.6610  -42.8210   10.5490 N.am  395  ARG395     -0.1977
     55  CA       -15.0480  -42.9510   10.1260 C.3   395  ARG395      0.1597
     56  C        -15.3890  -44.4240    9.9470 C.2   395  ARG395      0.2287
     57  O        -14.5250  -45.2380    9.6200 O.2   395  ARG395     -0.2864
     58  CB       -15.2910  -42.2430    8.7790 C.3   395  ARG395      0.0334
     59  CG       -14.7370  -40.8700    8.6300 C.3   395  ARG395      0.0492
     60  CD       -15.1470  -40.2450    7.2550 C.3   395  ARG395      0.2205
     61  NE       -14.8270  -41.0660    6.0970 N.pl3 395  ARG395     -0.0865
     62  CZ       -13.6660  -41.0430    5.4480 C.cat 395  ARG395      0.5346
     63  NH1      -13.4930  -41.8320    4.3950 N.pl3 395  ARG395      0.1354
     64  NH2      -12.6680  -40.2470    5.8460 N.pl3 395  ARG395      0.1354
     65  N        -12.0860  -44.4660   18.3320 N.3   428  PHE428     -0.1241
     66  CA       -13.3170  -43.6920   18.2890 C.3   428  PHE428      0.1605
     67  C        -13.8320  -43.7330   16.8560 C.2   428  PHE428      0.2264
     68  O        -13.1080  -43.3680   15.9340 O.2   428  PHE428     -0.2867
     69  CB       -13.0780  -42.2310   18.6880 C.3   428  PHE428      0.0534
     70  CG       -14.3060  -41.3790   18.5730 C.ar  428  PHE428     -0.0203
     71  CD1      -14.6660  -40.7900   17.3470 C.ar  428  PHE428     -0.0042
     72  CD2      -15.1220  -41.1800   19.6790 C.ar  428  PHE428     -0.0042
     73  CE1      -15.8310  -40.0400   17.2450 C.ar  428  PHE428     -0.0003
     74  CE2      -16.2950  -40.4330   19.5850 C.ar  428  PHE428     -0.0003
     75  CZ       -16.6470  -39.8650   18.3550 C.ar  428  PHE428     -0.0000
     76  N        -16.9380  -42.2900   14.4730 N.3   430  GLY430     -0.1225
     77  CA       -18.0470  -41.3540   14.3890 C.3   430  GLY430      0.1811
     78  C        -19.3060  -41.9200   13.7590 C.2   430  GLY430      0.2280
     79  O        -19.7020  -41.4960   12.6710 O.2   430  GLY430     -0.2866
     80  N        -22.4870  -41.5800   14.8100 N.3   432  GLU432     -0.1245
     81  CA       -23.3870  -40.4220   14.9300 C.3   432  GLU432      0.1567
     82  C        -24.8670  -40.7620   14.9600 C.2   432  GLU432      0.2260
     83  O        -25.6330  -40.0790   15.6560 O.2   432  GLU432     -0.2867
     84  CB       -23.1790  -39.3860   13.8120 C.3   432  GLU432      0.0388
     85  CG       -21.7830  -39.1440   13.3740 C.3   432  GLU432      0.1160
     86  CD       -20.8340  -38.5950   14.4530 C.2   432  GLU432      0.3649
     87  OE1      -21.1560  -38.5670   15.6620 O.co2 432  GLU432     -0.2457
     88  OE2      -19.7380  -38.1890   14.0350 O.co2 432  GLU432     -0.2457
     89  N        -23.3490  -37.9430    6.6760 N.3   444  LYS444     -0.1245
     90  CA       -22.3390  -38.9300    7.0540 C.3   444  LYS444      0.1561
     91  C        -21.9700  -39.8570    5.9060 C.2   444  LYS444      0.2260
     92  O        -20.8750  -40.4340    5.9220 O.2   444  LYS444     -0.2867
     93  CB       -22.8110  -39.7820    8.2420 C.3   444  LYS444      0.0271
     94  CG       -22.7830  -39.1110    9.6130 C.3   444  LYS444      0.0035
     95  CD       -21.4240  -38.4680    9.9160 C.3   444  LYS444      0.0206
     96  CE       -20.3080  -39.4700   10.1000 C.3   444  LYS444      0.1093
     97  NZ       -19.2130  -38.8410   10.9080 N.3   444  LYS444     -0.1314
     98  N        -15.2050  -46.8330   21.0600 N.3   466  ARG466     -0.1245
     99  CA       -16.0390  -45.7390   21.5230 C.3   466  ARG466      0.1563
    100  C        -16.7300  -45.2100   20.2710 C.2   466  ARG466      0.2260
    101  O        -16.1300  -45.2360   19.1970 O.2   466  ARG466     -0.2867
    102  CB       -15.1530  -44.6880   22.1910 C.3   466  ARG466      0.0307
    103  CG       -15.7880  -43.3860   22.5820 C.3   466  ARG466      0.0489
    104  CD       -14.9000  -42.6930   23.6190 C.3   466  ARG466      0.2205
    105  NE       -14.0840  -41.6210   23.0610 N.pl3 466  ARG466     -0.0865
    106  CZ       -12.8320  -41.7610   22.6400 C.cat 466  ARG466      0.5346
    107  NH1      -12.2340  -42.9400   22.6950 N.pl3 466  ARG466      0.1354
    108  NH2      -12.1800  -40.7100   22.1580 N.pl3 466  ARG466      0.1354
    109  N        -19.1960  -41.9010   18.6510 N.3   468  GLY468     -0.1210
    110  CA       -19.9840  -40.6970   18.8020 C.3   468  GLY468      0.1956
    111  C        -21.4110  -40.9980   18.3580 C.2   468  GLY468      0.2612
    112  O        -21.6470  -41.7650   17.4170 O.2   468  GLY468     -0.2717
    113  N        -22.3670  -40.4310   19.0830 N.am  469  PHE469     -0.1962
    114  CA       -23.7680  -40.6490   18.7460 C.3   469  PHE469      0.1771
    115  C        -24.5400  -39.3900   19.0950 C.2   469  PHE469      0.2619
    116  O        -24.5320  -38.9700   20.2520 O.2   469  PHE469     -0.2715
    117  CB       -24.3310  -41.8570   19.4870 C.3   469  PHE469      0.0574
    118  CG       -25.5770  -42.4180   18.8520 C.ar  469  PHE469     -0.0200
    119  CD1      -26.8260  -41.9190   19.1770 C.ar  469  PHE469     -0.0042
    120  CD2      -25.4890  -43.4320   17.9000 C.ar  469  PHE469     -0.0042
    121  CE1      -27.9670  -42.4210   18.5650 C.ar  469  PHE469     -0.0003
    122  CE2      -26.6220  -43.9490   17.3000 C.ar  469  PHE469     -0.0003
    123  CZ       -27.8640  -43.4480   17.6360 C.ar  469  PHE469     -0.0000
    124  N        -25.1820  -38.7800   18.0930 N.am  470  ILE470     -0.1977
    125  CA       -25.9330  -37.5450   18.2860 C.3   470  ILE470      0.1596
    126  C        -27.4140  -37.8630   18.1450 C.2   470  ILE470      0.2287
    127  O        -27.9600  -37.8390   17.0380 O.2   470  ILE470     -0.2864
    128  CB       -25.5000  -36.4660   17.2780 C.3   470  ILE470      0.0276
    129  CG1      -23.9660  -36.4080   17.2220 C.3   470  ILE470      0.0022
    130  CG2      -26.0900  -35.1270   17.6910 C.3   470  ILE470      0.0022
    131  CD1      -23.4260  -35.5370   16.0690 C.3   470  ILE470      0.0001
    132  N        -27.1020  -37.3870   23.5880 N.3   538  ALA538     -0.1231
    133  CA       -26.5060  -36.1350   23.1480 C.3   538  ALA538      0.1694
    134  C        -27.3860  -35.4240   22.1160 C.2   538  ALA538      0.2593
    135  O        -28.0880  -36.0610   21.3220 O.2   538  ALA538     -0.2718
    136  CB       -25.1190  -36.3710   22.5530 C.3   538  ALA538      0.0304
    137  N        -27.2810  -34.0920   22.1020 N.am  539  SER539     -0.1938
    138  CA       -27.9760  -33.2280   21.1510 C.3   539  SER539      0.2055
    139  C        -26.9990  -32.4730   20.2640 C.2   539  SER539      0.2643
    140  O        -25.8830  -32.1200   20.6790 O.2   539  SER539     -0.2714
    141  CB       -28.8700  -32.2000   21.8670 C.3   539  SER539      0.2130
    142  OG       -29.9840  -32.8280   22.4490 O.3   539  SER539     -0.2179
    143  N        -27.4430  -32.1880   19.0370 N.am  540  MET540     -0.1962
    144  CA       -26.6080  -31.4720   18.0820 C.3   540  MET540      0.1736
    145  C        -26.2200  -30.0850   18.5870 C.2   540  MET540      0.2616
    146  O        -27.0520  -29.3370   19.1050 O.2   540  MET540     -0.2715
    147  CB       -27.3410  -31.3290   16.7450 C.3   540  MET540      0.0427
    148  CG       -26.5650  -30.5140   15.7180 C.3   540  MET540      0.0599
    149  SD       -25.1060  -31.3670   15.1390 S.3   540  MET540     -0.1393
    150  CE       -25.8560  -32.6680   14.1730 C.3   540  MET540      0.0692
    151  N        -24.9560  -29.7340   18.4030 N.am  541  GLU541     -0.1977
    152  CA       -24.4760  -28.3670   18.5630 C.3   541  GLU541      0.1602
    153  C        -24.2060  -27.7920   17.1810 C.2   541  GLU541      0.2287
    154  O        -23.5590  -28.4340   16.3500 O.2   541  GLU541     -0.2864
    155  CB       -23.2070  -28.3000   19.4150 C.3   541  GLU541      0.0415
    156  CG       -23.4330  -28.6270   20.8770 C.3   541  GLU541      0.1163
    157  CD       -22.1320  -28.6670   21.6690 C.2   541  GLU541      0.3649
    158  OE1      -21.2250  -27.8390   21.3900 O.co2 541  GLU541     -0.2457
    159  OE2      -22.0210  -29.5350   22.5660 O.co2 541  GLU541     -0.2457
    160  N        -22.3900  -25.4900   15.0310 N.3   543  LEU543     -0.1245
    161  CA       -21.2060  -24.6480   15.0120 C.3   543  LEU543      0.1561
    162  C        -21.2830  -23.6470   13.8620 C.2   543  LEU543      0.2260
    163  O        -22.0790  -23.7880   12.9250 O.2   543  LEU543     -0.2867
    164  CB       -19.9250  -25.4850   14.8880 C.3   543  LEU543      0.0270
    165  CG       -19.5770  -26.5160   15.9660 C.3   543  LEU543      0.0019
    166  CD1      -18.1390  -27.0050   15.7880 C.3   543  LEU543      0.0001
    167  CD2      -19.7710  -25.9480   17.3690 C.3   543  LEU543      0.0001
@<TRIPOS>BOND
     1    63    62    1
     2     4     3    2
     3     3     2    1
     4    62    64    1
     5    62    61    2
     6    91    92    2
     7    91    90    1
     8    61    60    1
     9    28    29    1
    10    28    25    1
    11     2     1    1
    12     2     5    1
    13    29    30    1
    14    89    90    1
    15    27    26    2
    16    90    93    1
    17     6     5    1
    18    60    59    1
    19    26    25    1
    20    25    24    1
    21    31    30    1
    22    31    32    2
    23    93    94    1
    24    33    32    1
    25    59    58    1
    26    32    34    1
    27    58    55    1
    28    21    20    2
    29    94    95    1
    30    57    56    2
    31    95    96    1
    32    56    55    1
    33    96    97    1
    34    55    54    1
    35     7     8    1
    36    20    19    1
    37    54    51   am
    38    42    41   ar
    39    22    19    1
    40    22    23    1
    41    18    19    1
    42    18     9   am
    43     8     9    1
    44     8    11    1
    45    41    43   ar
    46    41    40    1
    47    53    50    1
    48    51    50    1
    49    51    52    2
    50     9    10    2
    51    39    40    1
    52    39    36    1
    53    16    14   ar
    54    16    17   ar
    55    37    38    2
    56    37    36    1
    57    14    12   ar
    58    50    49    1
    59    17    15   ar
    60    79    78    2
    61    12    11    1
    62    12    13   ar
    63    36    35    1
    64   163   162    2
    65    47    46    2
    66    15    13   ar
    67    85    84    1
    68    85    86    1
    69    49    46   am
    70    78    77    1
    71    84    81    1
    72   162   161    1
    73    46    45    1
    74    88    86   ar
    75   150   149    1
    76    77    76    1
    77    86    87   ar
    78    80    81    1
    79   164   161    1
    80   164   165    1
    81    81    82    1
    82    82    83    2
    83   161   160    1
    84   149   148    1
    85    45    48    1
    86    45    44    1
    87   148   147    1
    88   166   165    1
    89    68    67    2
    90   165   167    1
    91   131   129    1
    92   154   153    2
    93   147   144    1
    94    67    66    1
    95   127   126    2
    96   153   152    1
    97   129   128    1
    98    73    71   ar
    99    73    75   ar
   100   128   130    1
   101   128   125    1
   102   122   123   ar
   103   122   120   ar
   104    71    70   ar
   105   112   111    2
   106   123   121   ar
   107   120   118   ar
   108   144   145    1
   109   144   143    1
   110   124   125    1
   111   124   115   am
   112   126   125    1
   113    66    65    1
   114    66    69    1
   115    75    74   ar
   116   111   110    1
   117   111   113   am
   118   151   152    1
   119   151   145   am
   120   152   155    1
   121   121   119   ar
   122    70    69    1
   123    70    72   ar
   124   145   146    2
   125   109   110    1
   126   114   113    1
   127   114   115    1
   128   114   117    1
   129   118   119   ar
   130   118   117    1
   131   143   139   am
   132   115   116    2
   133   101   100    2
   134   155   156    1
   135    74    72   ar
   136   139   140    2
   137   139   138    1
   138   100    99    1
   139   156   157    1
   140    98    99    1
   141   138   141    1
   142   138   137    1
   143   135   134    2
   144   158   157   ar
   145    99   102    1
   146   157   159   ar
   147   141   142    1
   148   137   134   am
   149   134   133    1
   150   108   106    1
   151   102   103    1
   152   136   133    1
   153   103   104    1
   154   106   107    1
   155   106   105    2
   156   105   104    1
   157   133   132    1
