@<TRIPOS>MOLECULE
tmp/5ul7C00.pdb
 85 84 0 0 0
SMALL
GASTEIGER

@<TRIPOS>ATOM
      1  N         19.6390   32.9010    7.7370 N.3   133  SER133     -0.1202
      2  CA        20.0800   32.0270    8.8230 C.3   133  SER133      0.2020
      3  C         19.1410   30.8380    8.8130 C.2   133  SER133      0.2619
      4  O         18.2650   30.7710    7.9540 O.2   133  SER133     -0.2717
      5  CB        19.9900   32.7470   10.1650 C.3   133  SER133      0.2103
      6  OG        20.3200   31.8820   11.2290 O.3   133  SER133     -0.2182
      7  N         19.3140   29.8900    9.7310 N.am  134  ASN134     -0.1960
      8  CA        18.3340   28.8060    9.8650 C.3   134  ASN134      0.1819
      9  C         17.3380   29.1130   10.9780 C.2   134  ASN134      0.2621
     10  O         16.1220   29.1110   10.7640 O.2   134  ASN134     -0.2715
     11  CB        19.0150   27.4540   10.1110 C.3   134  ASN134      0.1195
     12  CG        19.9260   27.0310    8.9720 C.2   134  ASN134      0.2630
     13  OD1       19.7370   27.4270    7.8210 O.2   134  ASN134     -0.2716
     14  ND2       20.9180   26.2110    9.2890 N.am  134  ASN134     -0.0877
     15  N         17.8840   29.3870   12.1590 N.am  135  THR135     -0.1951
     16  CA        17.1180   29.7110   13.3550 C.3   135  THR135      0.1897
     17  C         16.3020   30.9890   13.1600 C.2   135  THR135      0.2313
     18  O         15.1590   31.0760   13.6120 O.2   135  THR135     -0.2863
     19  CB        18.0610   29.8610   14.5750 C.3   135  THR135      0.1794
     20  OG1       18.8380   28.6670   14.7340 O.3   135  THR135     -0.2208
     21  CG2       17.2760   30.1340   15.8670 C.3   135  THR135      0.0378
     22  N         24.4720   31.4370    5.1000 N.3   182  GLY182     -0.1210
     23  CA        23.2500   30.6760    5.2710 C.3   182  GLY182      0.1956
     24  C         23.2650   29.7500    6.4640 C.2   182  GLY182      0.2613
     25  O         22.2510   29.6090    7.1530 O.2   182  GLY182     -0.2717
     26  N         24.4010   29.0990    6.6960 N.am  183  SER183     -0.1938
     27  CA        24.5770   28.2650    7.8760 C.3   183  SER183      0.2040
     28  C         26.0530   28.0690    8.1360 C.2   183  SER183      0.2485
     29  O         26.8060   27.7640    7.2070 O.2   183  SER183     -0.2729
     30  CB        23.8890   26.9130    7.7070 C.3   183  SER183      0.2129
     31  OG        23.7390   26.2750    8.9640 O.3   183  SER183     -0.2179
     32  N         26.4760   28.2390    9.4000 N.am  184  PRO184     -0.2726
     33  CA        27.8980   28.1930    9.7490 C.3   184  PRO184      0.1402
     34  C         28.7090   26.9940    9.2060 C.2   184  PRO184      0.2269
     35  O         29.8410   27.2010    8.7610 O.2   184  PRO184     -0.2865
     36  CB        27.8830   28.2420   11.2780 C.3   184  PRO184      0.0296
     37  CG        26.6720   29.0500   11.5790 C.3   184  PRO184      0.0237
     38  CD        25.6510   28.6280   10.5560 C.3   184  PRO184      0.0939
     39  N         24.2980   20.2660   17.9040 N.3   360  SER360     -0.1202
     40  CA        24.2120   21.4200   17.0210 C.3   360  SER360      0.2020
     41  C         24.8170   21.1720   15.6290 C.2   360  SER360      0.2619
     42  O         25.8050   20.4540   15.4970 O.2   360  SER360     -0.2717
     43  CB        24.9010   22.5950   17.7200 C.3   360  SER360      0.2103
     44  OG        25.1510   23.6820   16.8500 O.3   360  SER360     -0.2182
     45  N         24.2010   21.7390   14.5910 N.am  361  ASN361     -0.1960
     46  CA        24.7520   21.6640   13.2300 C.3   361  ASN361      0.1819
     47  C         26.1850   22.1270   13.2030 C.2   361  ASN361      0.2621
     48  O         27.0850   21.3650   12.8220 O.2   361  ASN361     -0.2715
     49  CB        23.9490   22.5240   12.2400 C.3   361  ASN361      0.1195
     50  CG        22.5390   22.0070   12.0070 C.2   361  ASN361      0.2630
     51  OD1       22.2770   20.8090   12.1090 O.2   361  ASN361     -0.2716
     52  ND2       21.6220   22.9150   11.6840 N.am  361  ASN361     -0.0877
     53  N         26.3810   23.3780   13.6240 N.am  362  THR362     -0.1951
     54  CA        27.6890   24.0360   13.5510 C.3   362  THR362      0.1897
     55  C         28.6920   23.3490   14.4770 C.2   362  THR362      0.2313
     56  O         29.8050   23.0370   14.0620 O.2   362  THR362     -0.2863
     57  CB        27.6160   25.5590   13.8350 C.3   362  THR362      0.1794
     58  OG1       27.9220   25.8170   15.2050 O.3   362  THR362     -0.2208
     59  CG2       26.2340   26.1310   13.5060 C.3   362  THR362      0.0378
     60  N         18.4540   18.7560   17.8870 N.3   403  ALA403     -0.1231
     61  CA        19.2940   18.5940   16.7080 C.3   403  ALA403      0.1694
     62  C         19.6210   19.9600   16.1010 C.2   403  ALA403      0.2593
     63  O         20.7870   20.2610   15.8170 O.2   403  ALA403     -0.2718
     64  CB        18.6040   17.7020   15.6870 C.3   403  ALA403      0.0304
     65  N         18.5860   20.7760   15.9140 N.am  404  THR404     -0.1940
     66  CA        18.7090   22.1390   15.4010 C.3   404  THR404      0.2013
     67  C         17.6300   22.9720   16.0850 C.2   404  THR404      0.2484
     68  O         16.5780   22.4400   16.4470 O.2   404  THR404     -0.2729
     69  CB        18.5180   22.1810   13.8670 C.3   404  THR404      0.1807
     70  OG1       19.3540   21.1950   13.2580 O.3   404  THR404     -0.2208
     71  CG2       18.9000   23.5230   13.2870 C.3   404  THR404      0.0379
     72  N         17.9000   24.2680   16.3130 N.am  405  PRO405     -0.2715
     73  CA        16.8250   25.1380   16.7820 C.3   405  PRO405      0.1521
     74  C         15.5490   25.1380   15.9120 C.2   405  PRO405      0.2440
     75  O         14.4560   25.1070   16.4760 O.2   405  PRO405     -0.2731
     76  CB        17.4880   26.5180   16.8280 C.3   405  PRO405      0.0310
     77  CG        18.9210   26.2220   17.1300 C.3   405  PRO405      0.0237
     78  CD        19.2300   24.8780   16.5210 C.3   405  PRO405      0.0939
     79  N         15.6730   25.1720   14.5640 N.am  406  PRO406     -0.2727
     80  CA        14.4750   25.0830   13.7180 C.3   406  PRO406      0.1402
     81  C         13.5460   23.9040   14.0170 C.2   406  PRO406      0.2269
     82  O         12.3360   24.0080   13.7980 O.2   406  PRO406     -0.2865
     83  CB        15.0610   24.9480   12.3220 C.3   406  PRO406      0.0296
     84  CG        16.2780   25.7990   12.3880 C.3   406  PRO406      0.0237
     85  CD        16.8260   25.6490   13.7820 C.3   406  PRO406      0.0939
@<TRIPOS>BOND
     1    22    23    1
     2    23    24    1
     3    24    26   am
     4    24    25    2
     5    26    27    1
     6    29    28    2
     7    30    27    1
     8    30    31    1
     9     1     2    1
    10    13    12    2
    11    27    28    1
    12     4     3    2
    13    28    32   am
    14    35    34    2
    15     3     2    1
    16     3     7   am
    17     2     5    1
    18    12    14   am
    19    12    11    1
    20    34    33    1
    21    32    33    1
    22    32    38    1
    23     7     8    1
    24    33    36    1
    25     8    11    1
    26     8     9    1
    27     5     6    1
    28    38    37    1
    29    10     9    2
    30     9    15   am
    31    36    37    1
    32    52    50   am
    33    50    51    2
    34    50    49    1
    35    15    16    1
    36    49    46    1
    37    83    84    1
    38    83    80    1
    39    84    85    1
    40    48    47    2
    41    17    16    1
    42    17    18    2
    43    47    46    1
    44    47    53   am
    45    46    45    1
    46    70    69    1
    47    71    69    1
    48    16    19    1
    49    59    57    1
    50    54    53    1
    51    54    57    1
    52    54    55    1
    53    80    81    1
    54    80    79    1
    55    85    79    1
    56    82    81    2
    57    57    58    1
    58    69    66    1
    59    56    55    2
    60    79    74   am
    61    19    20    1
    62    19    21    1
    63    45    41   am
    64    66    65    1
    65    66    67    1
    66    42    41    2
    67    41    40    1
    68    64    61    1
    69    63    62    2
    70    74    75    2
    71    74    73    1
    72    65    62   am
    73    67    72   am
    74    67    68    2
    75    62    61    1
    76    72    78    1
    77    72    73    1
    78    78    77    1
    79    61    60    1
    80    73    76    1
    81    76    77    1
    82    44    43    1
    83    40    43    1
    84    40    39    1
