@<TRIPOS>MOLECULE
tmp/5ul9C00.pdb
 100 97 0 0 0
SMALL
GASTEIGER

@<TRIPOS>ATOM
      1  N         19.2450   33.0570    7.6680 N.3   133  SER133     -0.1202
      2  CA        19.5850   32.3090    8.8740 C.3   133  SER133      0.2020
      3  C         18.6810   31.0950    8.8430 C.2   133  SER133      0.2619
      4  O         17.9600   30.8970    7.8620 O.2   133  SER133     -0.2717
      5  CB        19.3050   33.1480   10.1230 C.3   133  SER133      0.2103
      6  OG        19.6100   32.4500   11.3140 O.3   133  SER133     -0.2182
      7  N         18.7250   30.2630    9.8770 N.am  134  ASN134     -0.1960
      8  CA        17.7400   29.1910   10.0140 C.3   134  ASN134      0.1819
      9  C         16.8070   29.4990   11.1790 C.2   134  ASN134      0.2621
     10  O         15.5960   29.6370   10.9940 O.2   134  ASN134     -0.2715
     11  CB        18.4150   27.8250   10.1690 C.3   134  ASN134      0.1195
     12  CG        19.2930   27.4670    8.9820 C.2   134  ASN134      0.2630
     13  OD1       18.9690   27.7820    7.8380 O.2   134  ASN134     -0.2716
     14  ND2       20.4140   26.8120    9.2510 N.am  134  ASN134     -0.0877
     15  N         17.3910   29.6360   12.3690 N.am  135  THR135     -0.1951
     16  CA        16.6690   30.0570   13.5710 C.3   135  THR135      0.1897
     17  C         15.8290   31.3050   13.2920 C.2   135  THR135      0.2313
     18  O         14.7220   31.4380   13.8060 O.2   135  THR135     -0.2863
     19  CB        17.6480   30.3390   14.7390 C.3   135  THR135      0.1794
     20  OG1       18.4970   29.2050   14.9420 O.3   135  THR135     -0.2208
     21  CG2       16.9030   30.6550   16.0420 C.3   135  THR135      0.0378
     22  N         24.1420   31.3240    5.2110 N.3   182  GLY182     -0.1210
     23  CA        22.9900   30.4660    5.3870 C.3   182  GLY182      0.1956
     24  C         23.0820   29.7100    6.6870 C.2   182  GLY182      0.2613
     25  O         22.3510   29.9980    7.6420 O.2   182  GLY182     -0.2717
     26  N         23.9640   28.7270    6.7180 N.am  183  SER183     -0.1938
     27  CA        24.2400   28.0200    7.9490 C.3   183  SER183      0.2040
     28  C         25.7490   28.0200    8.1500 C.2   183  SER183      0.2485
     29  O         26.5010   27.8380    7.1900 O.2   183  SER183     -0.2729
     30  CB        23.6730   26.5980    7.8950 C.3   183  SER183      0.2129
     31  OG        23.3230   26.1230    9.1890 O.3   183  SER183     -0.2179
     32  N         26.2030   28.2500    9.3940 N.am  184  PRO184     -0.2726
     33  CA        27.6310   28.2530    9.6840 C.3   184  PRO184      0.1402
     34  C         28.4360   27.0660    9.1220 C.2   184  PRO184      0.2269
     35  O         29.5270   27.2950    8.6000 O.2   184  PRO184     -0.2865
     36  CB        27.6710   28.2790   11.2060 C.3   184  PRO184      0.0296
     37  CG        26.4620   29.0660   11.5680 C.3   184  PRO184      0.0237
     38  CD        25.4150   28.7240   10.5460 C.3   184  PRO184      0.0939
     39  N         25.4180   37.1860   14.9000 N.3   302  ASP302     -0.1239
     40  CA        25.7650   36.2110   15.9300 C.3   302  ASP302      0.1674
     41  C         27.2840   36.1410   16.0990 C.2   302  ASP302      0.2266
     42  O         27.9450   35.2620   15.5470 O.2   302  ASP302     -0.2867
     43  CB        25.1840   34.8340   15.6030 C.3   302  ASP302      0.1410
     44  CG        25.3720   33.8290   16.7330 C.2   302  ASP302      0.3668
     45  OD1       26.1290   34.1050   17.6930 O.co2 302  ASP302     -0.2456
     46  OD2       24.7550   32.7490   16.6530 O.co2 302  ASP302     -0.2456
     47  N         28.9770   32.8990   16.8050 N.3   305  VAL305     -0.1245
     48  CA        29.2500   32.0450   15.6550 C.3   305  VAL305      0.1561
     49  C         30.5310   32.4910   14.9410 C.2   305  VAL305      0.2260
     50  O         31.3190   31.6580   14.5000 O.2   305  VAL305     -0.2867
     51  CB        28.0310   32.0000   14.7010 C.3   305  VAL305      0.0252
     52  CG1       28.4430   31.6970   13.2730 C.3   305  VAL305      0.0019
     53  CG2       27.0380   30.9640   15.1890 C.3   305  VAL305      0.0019
     54  N         24.6180   20.2620   18.4070 N.3   360  SER360     -0.1202
     55  CA        24.5620   21.4790   17.5920 C.3   360  SER360      0.2020
     56  C         25.0430   21.2900   16.1440 C.2   360  SER360      0.2619
     57  O         26.1010   20.7070   15.9100 O.2   360  SER360     -0.2717
     58  CB        25.3690   22.5860   18.2860 C.3   360  SER360      0.2103
     59  OG        25.3710   23.7960   17.5470 O.3   360  SER360     -0.2182
     60  N         24.2500   21.7770   15.1820 N.am  361  ASN361     -0.1960
     61  CA        24.6220   21.7540   13.7580 C.3   361  ASN361      0.1819
     62  C         26.0620   22.1750   13.5290 C.2   361  ASN361      0.2621
     63  O         26.8510   21.4220   12.9540 O.2   361  ASN361     -0.2715
     64  CB        23.7180   22.6820   12.9290 C.3   361  ASN361      0.1195
     65  CG        22.3330   22.1170   12.6920 C.2   361  ASN361      0.2630
     66  OD1       22.1070   20.9120   12.8060 O.2   361  ASN361     -0.2716
     67  ND2       21.3910   22.9930   12.3630 N.am  361  ASN361     -0.0877
     68  N         26.3890   23.3840   13.9820 N.am  362  THR362     -0.1951
     69  CA        27.6890   23.9920   13.6960 C.3   362  THR362      0.1897
     70  C         28.7990   23.4420   14.5860 C.2   362  THR362      0.2313
     71  O         29.9100   23.2280   14.1120 O.2   362  THR362     -0.2863
     72  CB        27.6520   25.5370   13.7530 C.3   362  THR362      0.1794
     73  OG1       27.6900   25.9860   15.1110 O.3   362  THR362     -0.2208
     74  CG2       26.3990   26.0530   13.0970 C.3   362  THR362      0.0378
     75  N         17.6940   19.3490   18.1370 N.3   403  ALA403     -0.1231
     76  CA        18.6250   19.0830   17.0460 C.3   403  ALA403      0.1694
     77  C         19.0250   20.3940   16.3720 C.2   403  ALA403      0.2593
     78  O         20.2170   20.6610   16.1610 O.2   403  ALA403     -0.2718
     79  CB        18.0050   18.1260   16.0380 C.3   403  ALA403      0.0304
     80  N         18.0200   21.1970   16.0350 N.am  404  THR404     -0.1940
     81  CA        18.2050   22.5520   15.5290 C.3   404  THR404      0.2013
     82  C         17.1460   23.4240   16.2160 C.2   404  THR404      0.2484
     83  O         16.1320   22.9040   16.6890 O.2   404  THR404     -0.2729
     84  CB        18.0940   22.5980   13.9900 C.3   404  THR404      0.1807
     85  OG1       19.0490   21.7020   13.4140 O.3   404  THR404     -0.2208
     86  CG2       18.3770   23.9860   13.4510 C.3   404  THR404      0.0379
     87  N         17.4020   24.7400   16.3380 N.am  405  PRO405     -0.2715
     88  CA        16.3300   25.6420   16.7470 C.3   405  PRO405      0.1521
     89  C         15.0590   25.6200   15.8720 C.2   405  PRO405      0.2440
     90  O         13.9640   25.6760   16.4290 O.2   405  PRO405     -0.2731
     91  CB        17.0060   27.0100   16.7210 C.3   405  PRO405      0.0310
     92  CG        18.4140   26.7110   17.1090 C.3   405  PRO405      0.0237
     93  CD        18.7310   25.3500   16.5450 C.3   405  PRO405      0.0939
     94  N         15.1850   25.5460   14.5270 N.am  406  PRO406     -0.2727
     95  CA        13.9700   25.4370   13.7080 C.3   406  PRO406      0.1402
     96  C         13.0320   24.3010   14.1150 C.2   406  PRO406      0.2269
     97  O         11.8120   24.4840   14.1030 O.2   406  PRO406     -0.2865
     98  CB        14.5180   25.1760   12.3120 C.3   406  PRO406      0.0296
     99  CG        15.8100   25.9050   12.2960 C.3   406  PRO406      0.0237
    100  CD        16.3600   25.8550   13.6950 C.3   406  PRO406      0.0939
@<TRIPOS>BOND
     1    22    23    1
     2    23    24    1
     3    24    26   am
     4    24    25    2
     5    26    27    1
     6    29    28    2
     7     1     2    1
     8    13    12    2
     9     4     3    2
    10    30    27    1
    11    30    31    1
    12    27    28    1
    13    28    32   am
    14    35    34    2
    15     3     2    1
    16     3     7   am
    17     2     5    1
    18    12    14   am
    19    12    11    1
    20    34    33    1
    21    32    33    1
    22    32    38    1
    23    33    36    1
    24     7     8    1
    25     8    11    1
    26     8     9    1
    27     5     6    1
    28    38    37    1
    29    10     9    2
    30     9    15   am
    31    36    37    1
    32    99    98    1
    33    99   100    1
    34    98    95    1
    35    67    65   am
    36    15    16    1
    37    65    66    2
    38    65    64    1
    39    64    61    1
    40    63    62    2
    41    74    72    1
    42    52    51    1
    43    17    16    1
    44    17    18    2
    45    85    84    1
    46    86    84    1
    47    62    61    1
    48    62    68   am
    49    16    19    1
    50   100    94    1
    51    69    72    1
    52    69    68    1
    53    69    70    1
    54    95    96    1
    55    95    94    1
    56    72    73    1
    57    61    60    1
    58    84    81    1
    59    97    96    2
    60    71    70    2
    61    50    49    2
    62    94    89   am
    63    51    53    1
    64    51    48    1
    65    19    20    1
    66    19    21    1
    67    39    40    1
    68    49    48    1
    69    60    56   am
    70    81    80    1
    71    81    82    1
    72    42    41    2
    73    43    40    1
    74    43    44    1
    75    48    47    1
    76    89    90    2
    77    89    88    1
    78    57    56    2
    79    40    41    1
    80    80    77   am
    81    79    76    1
    82    56    55    1
    83    78    77    2
    84    82    87   am
    85    82    83    2
    86    87    93    1
    87    87    88    1
    88    77    76    1
    89    93    92    1
    90    46    44   ar
    91    91    88    1
    92    91    92    1
    93    44    45   ar
    94    76    75    1
    95    59    58    1
    96    55    58    1
    97    55    54    1
