@<TRIPOS>MOLECULE
tmp/5ulaA00.pdb
 125 124 0 0 0
SMALL
GASTEIGER

@<TRIPOS>ATOM
      1  N          5.0280   -2.9490   -8.9370 N.3    38  TRP38      -0.1228
      2  CA         5.0270   -4.4130   -8.9090 C.3    38  TRP38       0.1722
      3  C          5.7210   -5.0730   -7.6990 C.2    38  TRP38       0.2437
      4  O          5.1560   -6.0370   -7.2180 O.2    38  TRP38      -0.2733
      5  CB         5.4470   -5.0460  -10.2550 C.3    38  TRP38       0.0563
      6  CG         6.8520   -4.8420  -10.6240 C.ar   38  TRP38       0.0003
      7  CD1        7.3800   -3.7940  -11.3790 C.ar   38  TRP38       0.0946
      8  CD2        7.9870   -5.6390  -10.2460 C.ar   38  TRP38       0.0152
      9  NE1        8.7070   -3.9140  -11.5220 N.ar   38  TRP38      -0.2442
     10  CE2        9.1200   -5.0410  -10.8590 C.ar   38  TRP38       0.0810
     11  CE3        8.1500   -6.8270   -9.5160 C.ar   38  TRP38       0.0012
     12  CZ2       10.4010   -5.5510  -10.7050 C.ar   38  TRP38       0.0191
     13  CZ3        9.4350   -7.3290   -9.3560 C.ar   38  TRP38       0.0001
     14  CH2       10.5350   -6.7040   -9.9670 C.ar   38  TRP38       0.0015
     15  N          6.8360   -4.5400   -7.2230 N.am   39  PRO39      -0.2718
     16  CA         7.4530   -5.2520   -6.0270 C.3    39  PRO39       0.1535
     17  C          6.5830   -5.1190   -4.7820 C.2    39  PRO39       0.2598
     18  O          6.8880   -5.8030   -3.7990 O.2    39  PRO39      -0.2715
     19  CB         8.7590   -4.4800   -5.8220 C.3    39  PRO39       0.0310
     20  CG         9.0420   -3.8790   -7.1920 C.3    39  PRO39       0.0237
     21  CD         7.7040   -3.4350   -7.6820 C.3    39  PRO39       0.0939
     22  N          5.6290   -4.2140   -4.8270 N.am   40  PHE40      -0.1974
     23  CA         4.7660   -3.8600   -3.7040 C.3    40  PHE40       0.1639
     24  C          3.3490   -4.3720   -3.7900 C.2    40  PHE40       0.2290
     25  O          2.5340   -4.1290   -2.9230 O.2    40  PHE40      -0.2864
     26  CB         4.7680   -2.3440   -3.4840 C.3    40  PHE40       0.0560
     27  CG         6.1400   -1.7400   -3.4240 C.ar   40  PHE40      -0.0200
     28  CD1        6.9450   -1.8260   -2.2620 C.ar   40  PHE40      -0.0042
     29  CD2        6.7080   -1.1350   -4.5510 C.ar   40  PHE40      -0.0042
     30  CE1        8.2080   -1.3770   -2.2930 C.ar   40  PHE40      -0.0003
     31  CE2        8.0040   -0.6800   -4.5310 C.ar   40  PHE40      -0.0003
     32  CZ         8.7860   -0.7750   -3.4010 C.ar   40  PHE40      -0.0000
     33  N          2.2720   -7.6100   -3.8070 N.3    42  GLN42      -0.1231
     34  CA         2.0470   -8.8980   -3.1380 C.3    42  GLN42       0.1683
     35  C          2.9960   -8.9580   -1.9150 C.2    42  GLN42       0.2434
     36  O          3.9810   -8.2660   -1.8560 O.2    42  GLN42      -0.2733
     37  CB         2.4560  -10.0500   -4.0590 C.3    42  GLN42       0.0380
     38  CG         1.7130  -10.2190   -5.3840 C.3    42  GLN42       0.0905
     39  CD         2.0990  -11.5260   -6.0860 C.2    42  GLN42       0.2608
     40  OE1        3.1710  -11.6350   -6.6840 O.2    42  GLN42      -0.2717
     41  NE2        1.2340  -12.5510   -5.9350 N.am   42  GLN42      -0.0878
     42  N          2.5360   -9.6930   -0.8620 N.am   43  PRO43      -0.2718
     43  CA         3.4300   -9.9020    0.2840 C.3    43  PRO43       0.1535
     44  C          4.7540  -10.4870   -0.1510 C.2    43  PRO43       0.2598
     45  O          4.8450  -11.3820   -1.0150 O.2    43  PRO43      -0.2715
     46  CB         2.6470  -10.8900    1.1420 C.3    43  PRO43       0.0310
     47  CG         1.2000  -10.7570    0.7080 C.3    43  PRO43       0.0237
     48  CD         1.2870  -10.3910   -0.7570 C.3    43  PRO43       0.0939
     49  N          5.8040  -10.0700    0.4870 N.am   44  VAL44      -0.1964
     50  CA         7.1500  -10.5530    0.1730 C.3    44  VAL44       0.1727
     51  C          7.2490  -12.0470    0.4100 C.2    44  VAL44       0.2616
     52  O          6.9560  -12.5400    1.4950 O.2    44  VAL44      -0.2715
     53  CB         8.2700   -9.8210    0.9710 C.3    44  VAL44       0.0290
     54  CG1        9.6680  -10.4860    0.8120 C.3    44  VAL44       0.0023
     55  CG2        8.3180   -8.3580    0.5870 C.3    44  VAL44       0.0023
     56  N          7.6640  -12.7940   -0.6080 N.am   45  ASP45      -0.1971
     57  CA         7.9160  -14.2110   -0.5020 C.3    45  ASP45       0.1709
     58  C          9.4060  -14.4350   -0.3110 C.2    45  ASP45       0.2293
     59  O         10.1640  -14.4770   -1.3080 O.2    45  ASP45      -0.2864
     60  CB         7.3550  -15.0040   -1.6620 C.3    45  ASP45       0.1436
     61  CG         7.3590  -16.5500   -1.3660 C.2    45  ASP45       0.3671
     62  OD1        8.3670  -17.0390   -0.8020 O.co2  45  ASP45      -0.2456
     63  OD2        6.3130  -17.2040   -1.5820 O.co2  45  ASP45      -0.2456
     64  N         12.2260  -15.6770   -3.2020 N.3    49  LEU49      -0.1245
     65  CA        13.2300  -14.6690   -3.5080 C.3    49  LEU49       0.1561
     66  C         14.6420  -14.8640   -2.8720 C.2    49  LEU49       0.2260
     67  O         15.5850  -14.0490   -3.0850 O.2    49  LEU49      -0.2867
     68  CB        12.7350  -13.2800   -3.1590 C.3    49  LEU49       0.0270
     69  CG        11.4590  -12.8080   -3.8750 C.3    49  LEU49       0.0019
     70  CD1       10.8510  -11.5330   -3.2130 C.3    49  LEU49       0.0001
     71  CD2       11.7740  -12.5360   -5.3290 C.3    49  LEU49       0.0001
     72  N         15.4700  -14.6070    0.2660 N.3    51  LEU51      -0.1245
     73  CA        15.7450  -13.5020    1.2030 C.3    51  LEU51       0.1561
     74  C         15.4820  -14.0340    2.6290 C.2    51  LEU51       0.2260
     75  O         14.5250  -13.6020    3.2910 O.2    51  LEU51      -0.2867
     76  CB        14.8910  -12.2590    0.9750 C.3    51  LEU51       0.0270
     77  CG        14.9790  -11.6880   -0.4580 C.3    51  LEU51       0.0019
     78  CD1       13.9130  -10.6330   -0.5710 C.3    51  LEU51       0.0001
     79  CD2       16.3480  -11.0960   -0.6630 C.3    51  LEU51       0.0001
     80  N         14.5240  -11.6910    5.5880 N.3    54  TYR54      -0.1241
     81  CA        13.5080  -10.6410    5.4600 C.3    54  TYR54       0.1605
     82  C         12.6050  -10.5660    6.6950 C.2    54  TYR54       0.2264
     83  O         12.4580   -9.4800    7.2750 O.2    54  TYR54      -0.2867
     84  CB        12.6770  -10.8300    4.1880 C.3    54  TYR54       0.0534
     85  CG        11.7370   -9.6620    3.9830 C.ar   54  TYR54      -0.0201
     86  CD1       12.1720   -8.4780    3.3700 C.ar   54  TYR54      -0.0009
     87  CD2       10.4370   -9.7250    4.4430 C.ar   54  TYR54      -0.0009
     88  CE1       11.3790   -7.4140    3.2500 C.ar   54  TYR54       0.0417
     89  CE2        9.6090   -8.5740    4.3980 C.ar   54  TYR54       0.0417
     90  CZ        10.0670   -7.4420    3.7720 C.ar   54  TYR54       0.1957
     91  OH         9.2930   -6.3300    3.7150 O.3    54  TYR54      -0.2866
     92  N         10.4780   -1.2400    3.5360 N.3    93  CYS93      -0.1235
     93  CA        11.3910   -1.2920    2.3760 C.3    93  CYS93       0.1677
     94  C         12.7050   -0.5670    2.7310 C.2    93  CYS93       0.2270
     95  O         13.7980   -1.0720    2.3980 O.2    93  CYS93      -0.2867
     96  CB        10.6610   -0.6640    1.1720 C.3    93  CYS93       0.0956
     97  SG        11.6510   -0.7140   -0.3470 S.3    93  CYS93      -0.0801
     98  N         14.7810   -2.7250    5.3560 N.3    96  TYR96      -0.1227
     99  CA        15.3490   -3.9400    4.8720 C.3    96  TYR96       0.1736
    100  C         16.4730   -3.7540    3.8100 C.2    96  TYR96       0.2595
    101  O         17.4930   -4.4630    3.8100 O.2    96  TYR96      -0.2718
    102  CB        14.3150   -4.9300    4.3390 C.3    96  TYR96       0.0548
    103  CG        14.9160   -6.2030    3.8610 C.ar   96  TYR96      -0.0200
    104  CD1       15.4200   -7.1260    4.7570 C.ar   96  TYR96      -0.0009
    105  CD2       15.1170   -6.4560    2.5230 C.ar   96  TYR96      -0.0009
    106  CE1       16.0610   -8.2570    4.3600 C.ar   96  TYR96       0.0417
    107  CE2       15.7510   -7.6010    2.0710 C.ar   96  TYR96       0.0417
    108  CZ        16.2330   -8.5240    2.9920 C.ar   96  TYR96       0.1957
    109  OH        16.9390   -9.6230    2.6420 O.3    96  TYR96      -0.2866
    110  N         16.2560   -2.7920    2.8880 N.am   97  ASN97      -0.1974
    111  CA        17.1110   -2.6370    1.7300 C.3    97  ASN97       0.1688
    112  C         18.2040   -1.5620    1.9450 C.2    97  ASN97       0.2292
    113  O         18.1730   -0.8060    2.8780 O.2    97  ASN97      -0.2864
    114  CB        16.2590   -2.3670    0.5140 C.3    97  ASN97       0.1181
    115  CG        15.3410   -3.5390    0.1850 C.2    97  ASN97       0.2629
    116  OD1       15.7680   -4.5970   -0.3710 O.2    97  ASN97      -0.2716
    117  ND2       14.0390   -3.3840    0.5730 N.am   97  ASN97      -0.0877
    118  N         14.9140   -0.8080   -5.5650 N.3   103  ILE103     -0.1245
    119  CA        13.6200   -0.9670   -4.8940 C.3   103  ILE103      0.1561
    120  C         13.3760    0.2050   -3.9440 C.2   103  ILE103      0.2260
    121  O         12.2250    0.6580   -3.7750 O.2   103  ILE103     -0.2867
    122  CB        13.5080   -2.3200   -4.1940 C.3   103  ILE103      0.0252
    123  CG1       12.0400   -2.5930   -3.8770 C.3   103  ILE103      0.0019
    124  CG2       14.4480   -2.3840   -2.9470 C.3   103  ILE103      0.0019
    125  CD1       11.7490   -3.9510   -3.4300 C.3   103  ILE103      0.0001
@<TRIPOS>BOND
     1     9     7   ar
     2     9    10   ar
     3     7     6   ar
     4    10    12   ar
     5    10     8   ar
     6    12    14   ar
     7     6     5    1
     8     6     8   ar
     9     5     2    1
    10     8    11   ar
    11    14    13   ar
    12    11    13   ar
    13     1     2    1
    14     2     3    1
    15     3    15   am
    16     3     4    2
    17    21    15    1
    18    21    20    1
    19    15    16    1
    20    20    19    1
    21    40    39    2
    22    39    41   am
    23    39    38    1
    24    16    19    1
    25    16    17    1
    26   118   119    1
    27    38    37    1
    28    71    69    1
    29   119   122    1
    30   119   120    1
    31    22    17   am
    32    22    23    1
    33    17    18    2
    34    29    31   ar
    35    29    27   ar
    36    31    32   ar
    37   122   123    1
    38   122   124    1
    39    37    34    1
    40   120   121    2
    41   123   125    1
    42    69    70    1
    43    69    68    1
    44    33    34    1
    45    24    23    1
    46    24    25    2
    47    23    26    1
    48    65    64    1
    49    65    68    1
    50    65    66    1
    51    26    27    1
    52    27    28   ar
    53    32    30   ar
    54    34    35    1
    55    67    66    2
    56    30    28   ar
    57    35    36    2
    58    35    42   am
    59    60    61    1
    60    60    57    1
    61    63    61   ar
    62    61    62   ar
    63    59    58    2
    64    45    44    2
    65    42    48    1
    66    42    43    1
    67    48    47    1
    68    79    77    1
    69    56    57    1
    70    56    51   am
    71    78    77    1
    72    57    58    1
    73    77    76    1
    74   116   115    2
    75    97    96    1
    76    44    43    1
    77    44    49   am
    78    50    51    1
    79    50    49    1
    80    50    53    1
    81   115   114    1
    82   115   117   am
    83    72    73    1
    84    43    46    1
    85    51    52    2
    86   114   111    1
    87    55    53    1
    88    47    46    1
    89    54    53    1
    90    76    73    1
    91    96    93    1
    92    73    74    1
    93   111   112    1
    94   111   110    1
    95   112   113    2
    96   107   105   ar
    97   107   108   ar
    98    93    94    1
    99    93    92    1
   100    95    94    2
   101   105   103   ar
   102    74    75    2
   103   109   108    1
   104   110   100   am
   105   108   106   ar
   106    88    86   ar
   107    88    90   ar
   108    86    85   ar
   109    91    90    1
   110    90    89   ar
   111   101   100    2
   112   100    99    1
   113   103   102    1
   114   103   104   ar
   115    85    84    1
   116    85    87   ar
   117    84    81    1
   118   102    99    1
   119   106   104   ar
   120    89    87   ar
   121    99    98    1
   122    81    80    1
   123    81    82    1
   124    82    83    2
