@<TRIPOS>MOLECULE
tmp/5ulbA01.pdb
 125 118 0 0 0
SMALL
GASTEIGER

@<TRIPOS>ATOM
      1  N         39.8920   39.7070   12.9180 N.3    25  LEU25      -0.1245
      2  CA        39.9750   39.8610   11.5010 C.3    25  LEU25       0.1561
      3  C         39.2150   41.1030   11.0940 C.2    25  LEU25       0.2260
      4  O         38.6280   41.7900   11.9580 O.2    25  LEU25      -0.2867
      5  CB        39.4860   38.5960   10.7370 C.3    25  LEU25       0.0270
      6  CG        40.3080   37.3190   10.9510 C.3    25  LEU25       0.0019
      7  CD1       39.5990   36.1820   10.2800 C.3    25  LEU25       0.0001
      8  CD2       41.6760   37.4920   10.3230 C.3    25  LEU25       0.0001
      9  N         34.2390   35.3330    5.1130 N.3    30  ASN30      -0.1240
     10  CA        34.1330   34.2960    6.1460 C.3    30  ASN30       0.1653
     11  C         33.6810   34.9220    7.4580 C.2    30  ASN30       0.2266
     12  O         32.7950   34.4220    8.1190 O.2    30  ASN30      -0.2867
     13  CB        35.5000   33.5950    6.2940 C.3    30  ASN30       0.1155
     14  CG        35.4120   32.3620    7.1800 C.2    30  ASN30       0.2627
     15  OD1       35.7070   32.4270    8.3590 O.2    30  ASN30      -0.2716
     16  ND2       35.1310   31.2070    6.5000 N.am   30  ASN30      -0.0877
     17  N         39.8980   33.7760   16.3760 N.3    80  GLN80      -0.1245
     18  CA        41.2000   34.0960   15.8800 C.3    80  GLN80       0.1566
     19  C         42.0940   34.8500   16.8540 C.2    80  GLN80       0.2260
     20  O         43.0400   35.5400   16.4700 O.2    80  GLN80      -0.2867
     21  CB        41.2030   34.8010   14.4960 C.3    80  GLN80       0.0367
     22  CG        40.7630   33.8800   13.2880 C.3    80  GLN80       0.0905
     23  CD        39.3420   33.7350   13.1300 C.2    80  GLN80       0.2608
     24  OE1       38.5890   34.6020   13.5780 O.2    80  GLN80      -0.2717
     25  NE2       38.8880   32.6450   12.5290 N.am   80  GLN80      -0.0878
     26  N         36.8890   30.2140   19.1800 N.3   103  PHE103     -0.1227
     27  CA        37.0200   29.5980   17.8570 C.3   103  PHE103      0.1736
     28  C         38.3630   29.9890   17.2610 C.2   103  PHE103      0.2595
     29  O         38.7160   31.1780   17.2680 O.2   103  PHE103     -0.2718
     30  CB        35.9030   30.0170   16.9460 C.3   103  PHE103      0.0547
     31  CG        36.0360   29.4860   15.5390 C.ar  103  PHE103     -0.0202
     32  CD1       35.9860   28.1020   15.2640 C.ar  103  PHE103     -0.0042
     33  CD2       36.2810   30.3180   14.5220 C.ar  103  PHE103     -0.0042
     34  CE1       36.2120   27.6670   13.9860 C.ar  103  PHE103     -0.0003
     35  CE2       36.4850   29.8380   13.2390 C.ar  103  PHE103     -0.0003
     36  CZ        36.5280   28.5080   12.9490 C.ar  103  PHE103     -0.0000
     37  N         39.1480   29.0420   16.7730 N.am  104  ASP104     -0.1974
     38  CA        40.4290   29.3130   16.1290 C.3   104  ASP104      0.1709
     39  C         41.3180   30.2120   16.9610 C.2   104  ASP104      0.2293
     40  O         42.0250   31.0620   16.3740 O.2   104  ASP104     -0.2864
     41  CB        40.1780   29.9480   14.7340 C.3   104  ASP104      0.1436
     42  CG        39.9640   28.9260   13.6560 C.2   104  ASP104      0.3671
     43  OD1       40.0960   27.6950   13.8870 O.co2 104  ASP104     -0.2456
     44  OD2       39.6910   29.4250   12.4840 O.co2 104  ASP104     -0.2456
     45  N         37.8740   24.0400   13.2080 N.3   119  GLN119     -0.1245
     46  CA        37.5960   23.1230   12.1230 C.3   119  GLN119      0.1566
     47  C         38.6630   22.0530   12.1350 C.2   119  GLN119      0.2260
     48  O         39.6530   22.1340   12.8200 O.2   119  GLN119     -0.2867
     49  CB        37.5600   23.8880   10.7650 C.3   119  GLN119      0.0367
     50  CG        36.5030   25.0100   10.7240 C.3   119  GLN119      0.0905
     51  CD        36.7080   26.0540    9.6870 C.2   119  GLN119      0.2608
     52  OE1       35.8420   26.2050    8.7530 O.2   119  GLN119     -0.2717
     53  NE2       37.7820   26.7510    9.7650 N.am  119  GLN119     -0.0878
     54  N         48.9220   32.9300    5.4730 N.3   147  VAL147     -0.1245
     55  CA        49.5000   33.9290    6.4530 C.3   147  VAL147      0.1561
     56  C         49.8800   33.2290    7.7300 C.2   147  VAL147      0.2260
     57  O         49.1040   32.4620    8.2740 O.2   147  VAL147     -0.2867
     58  CB        48.5530   35.1180    6.6410 C.3   147  VAL147      0.0252
     59  CG1       47.2080   34.7370    7.2170 C.3   147  VAL147      0.0019
     60  CG2       49.1850   36.2050    7.4660 C.3   147  VAL147      0.0019
     61  N         48.2150   32.4910   12.8660 N.3   150  PHE150     -0.1241
     62  CA        46.8930   32.1830   13.2850 C.3   150  PHE150      0.1605
     63  C         46.7750   30.6830   13.4990 C.2   150  PHE150      0.2264
     64  O         47.2840   29.9280   12.6650 O.2   150  PHE150     -0.2867
     65  CB        45.8750   32.6460   12.2660 C.3   150  PHE150      0.0534
     66  CG        45.7480   34.1440   12.1510 C.ar  150  PHE150     -0.0203
     67  CD1       46.6010   34.8560   11.3110 C.ar  150  PHE150     -0.0042
     68  CD2       44.7860   34.8400   12.7900 C.ar  150  PHE150     -0.0042
     69  CE1       46.5210   36.2400   11.2130 C.ar  150  PHE150     -0.0003
     70  CE2       44.6690   36.1800   12.7110 C.ar  150  PHE150     -0.0003
     71  CZ        45.5320   36.8860   11.9770 C.ar  150  PHE150     -0.0000
     72  N         44.5030   28.2950   12.7950 N.3   152  PRO152     -0.2116
     73  CA        44.1520   27.4750   11.6410 C.3   152  PRO152      0.1372
     74  C         45.2560   27.4610   10.6100 C.2   152  PRO152      0.2244
     75  O         45.4450   26.4280    9.9080 O.2   152  PRO152     -0.2868
     76  CB        42.8980   28.1600   11.1110 C.3   152  PRO152      0.0268
     77  CG        42.9250   29.5810   11.6720 C.3   152  PRO152      0.0207
     78  CD        43.4800   29.3540   12.9880 C.3   152  PRO152      0.0892
     79  N         47.0330   24.1430    9.0930 N.3   155  ARG155     -0.1245
     80  CA        47.0030   23.8890    7.6230 C.3   155  ARG155      0.1563
     81  C         48.4010   23.7650    7.0800 C.2   155  ARG155      0.2260
     82  O         48.6700   22.8770    6.2490 O.2   155  ARG155     -0.2867
     83  CB        46.2400   24.9730    6.9290 C.3   155  ARG155      0.0307
     84  CG        44.7600   24.9420    7.2900 C.3   155  ARG155      0.0489
     85  CD        43.9290   26.1550    6.9510 C.3   155  ARG155      0.2205
     86  NE        42.6480   26.1040    7.5740 N.pl3 155  ARG155     -0.0865
     87  CZ        41.7560   27.0730    7.5820 C.cat 155  ARG155      0.5346
     88  NH1       41.8710   28.1390    6.7840 N.pl3 155  ARG155      0.1354
     89  NH2       40.7270   27.0040    8.3820 N.pl3 155  ARG155      0.1354
     90  N         46.8710   39.7180    6.2540 N.3   178  VAL178     -0.1245
     91  CA        45.6050   40.2770    6.6600 C.3   178  VAL178      0.1561
     92  C         45.6630   41.8190    6.5590 C.2   178  VAL178      0.2260
     93  O         46.6460   42.4090    6.9830 O.2   178  VAL178     -0.2867
     94  CB        45.2960   39.9060    8.1360 C.3   178  VAL178      0.0252
     95  CG1       43.9870   40.5570    8.6290 C.3   178  VAL178      0.0019
     96  CG2       45.2280   38.3930    8.2920 C.3   178  VAL178      0.0019
     97  N         44.4380   29.0610    1.2290 N.3   208  THR208     -0.1203
     98  CA        44.0890   28.5490    2.5520 C.3   208  THR208      0.1994
     99  C         42.9800   29.2960    3.2380 C.2   208  THR208      0.2617
    100  O         42.5040   28.8870    4.2540 O.2   208  THR208     -0.2717
    101  CB        45.3020   28.5310    3.4460 C.3   208  THR208      0.1784
    102  OG1       45.7700   29.8590    3.7010 O.3   208  THR208     -0.2211
    103  CG2       46.4040   27.6650    2.8900 C.3   208  THR208      0.0376
    104  N         42.4820   30.3530    2.5670 N.am  209  TRP209     -0.1975
    105  CA        41.3650   31.1610    3.0420 C.3   209  TRP209      0.1640
    106  C         40.7040   31.7450    1.8090 C.2   209  TRP209      0.2290
    107  O         41.4130   32.2250    0.9280 O.2   209  TRP209     -0.2864
    108  CB        41.8650   32.3180    3.9180 C.3   209  TRP209      0.0576
    109  CG        40.9430   33.3830    4.4130 C.ar  209  TRP209      0.0006
    110  CD1       39.6240   33.3830    4.6460 C.ar  209  TRP209      0.0946
    111  CD2       41.4510   34.6250    4.9770 C.ar  209  TRP209      0.0152
    112  NE1       39.2360   34.6000    5.2690 N.ar  209  TRP209     -0.2442
    113  CE2       40.3480   35.3500    5.4870 C.ar  209  TRP209      0.0810
    114  CE3       42.7050   35.2190    4.9660 C.ar  209  TRP209      0.0012
    115  CZ2       40.5530   36.6140    6.0730 C.ar  209  TRP209      0.0191
    116  CZ3       42.8870   36.4580    5.5920 C.ar  209  TRP209      0.0001
    117  CH2       41.7690   37.1150    6.1060 C.ar  209  TRP209      0.0015
    118  N         37.2660   27.1650    2.5170 N.3   234  ASP234     -0.1239
    119  CA        36.1650   28.0800    2.7980 C.3   234  ASP234      0.1674
    120  C         35.1470   28.2470    1.6800 C.2   234  ASP234      0.2266
    121  O         35.4760   27.9490    0.5420 O.2   234  ASP234     -0.2867
    122  CB        36.5680   29.4750    3.2980 C.3   234  ASP234      0.1410
    123  CG        37.5280   29.4990    4.4280 C.2   234  ASP234      0.3668
    124  OD1       37.3350   28.7130    5.4170 O.co2 234  ASP234     -0.2456
    125  OD2       38.4970   30.3430    4.3740 O.co2 234  ASP234     -0.2456
@<TRIPOS>BOND
     1   121   120    2
     2   107   106    2
     3    97    98    1
     4   120   119    1
     5   106   105    1
     6   118   119    1
     7    98    99    1
     8    98   101    1
     9   104   105    1
    10   104    99   am
    11   119   122    1
    12   103   101    1
    13   105   108    1
    14    99   100    2
    15   122   123    1
    16   101   102    1
    17   108   109    1
    18   125   123   ar
    19   109   110   ar
    20   109   111   ar
    21   123   124   ar
    22   110   112   ar
    23   114   111   ar
    24   114   116   ar
    25   111   113   ar
    26     9    10    1
    27   112   113   ar
    28    54    55    1
    29   113   115   ar
    30   116   117   ar
    31   115   117   ar
    32    10    13    1
    33    10    11    1
    34    82    81    2
    35    90    91    1
    36    13    14    1
    37    55    58    1
    38    55    56    1
    39    16    14   am
    40    92    91    1
    41    92    93    2
    42    58    59    1
    43    58    60    1
    44    91    94    1
    45    88    87    1
    46    83    84    1
    47    83    80    1
    48    85    84    1
    49    85    86    1
    50    81    80    1
    51    14    15    2
    52    11    12    2
    53    86    87    2
    54    87    89    1
    55    80    79    1
    56    56    57    2
    57    94    96    1
    58    94    95    1
    59    52    51    2
    60    51    53   am
    61    51    50    1
    62    75    74    2
    63     7     6    1
    64     8     6    1
    65    74    73    1
    66    50    49    1
    67     5     6    1
    68     5     2    1
    69    49    46    1
    70     3     2    1
    71     3     4    2
    72    76    73    1
    73    76    77    1
    74    69    67   ar
    75    69    71   ar
    76    67    66   ar
    77     2     1    1
    78    73    72    1
    79    77    78    1
    80    71    70   ar
    81    46    47    1
    82    46    45    1
    83    47    48    2
    84    66    65    1
    85    66    68   ar
    86    65    62    1
    87    44    42   ar
    88    25    23   am
    89    64    63    2
    90    70    68   ar
    91    72    78    1
    92    61    62    1
    93    36    35   ar
    94    36    34   ar
    95    23    22    1
    96    23    24    2
    97    35    33   ar
    98    62    63    1
    99    22    21    1
   100    42    43   ar
   101    42    41    1
   102    34    32   ar
   103    21    18    1
   104    33    31   ar
   105    41    38    1
   106    32    31   ar
   107    31    30    1
   108    18    17    1
   109    18    19    1
   110    38    37    1
   111    38    39    1
   112    40    39    2
   113    20    19    2
   114    37    28   am
   115    30    27    1
   116    28    29    2
   117    28    27    1
   118    27    26    1
