@<TRIPOS>MOLECULE
tmp/5ulgB01.pdb
 200 194 0 0 0
SMALL
GASTEIGER

@<TRIPOS>ATOM
      1  N        -44.8740  114.6030  -45.0430 N.3    61  PHE61      -0.1241
      2  CA       -45.9030  113.5860  -44.9180 C.3    61  PHE61       0.1605
      3  C        -46.8100  113.5040  -46.1700 C.2    61  PHE61       0.2264
      4  O        -47.9250  112.9650  -46.0820 O.2    61  PHE61      -0.2867
      5  CB       -46.7730  113.8570  -43.6920 C.3    61  PHE61       0.0534
      6  CG       -46.0140  113.9410  -42.4050 C.ar   61  PHE61      -0.0203
      7  CD1      -45.0340  113.0020  -42.0830 C.ar   61  PHE61      -0.0042
      8  CD2      -46.3100  114.9190  -41.4890 C.ar   61  PHE61      -0.0042
      9  CE1      -44.3440  113.0700  -40.8760 C.ar   61  PHE61      -0.0003
     10  CE2      -45.6040  115.0090  -40.2790 C.ar   61  PHE61      -0.0003
     11  CZ       -44.6250  114.0880  -39.9810 C.ar   61  PHE61      -0.0000
     12  N        -52.7490  116.1360  -50.3120 N.3   102  GLU102     -0.1231
     13  CA       -51.9850  115.5340  -49.2260 C.3   102  GLU102      0.1699
     14  C        -51.9060  116.4920  -48.0340 C.2   102  GLU102      0.2592
     15  O        -52.3460  117.6580  -48.0910 O.2   102  GLU102     -0.2718
     16  CB       -50.5890  115.1330  -49.6950 C.3   102  GLU102      0.0402
     17  CG       -50.5660  114.1030  -50.8370 C.3   102  GLU102      0.1161
     18  CD       -51.1640  112.7030  -50.5020 C.2   102  GLU102      0.3649
     19  OE1      -51.4750  112.4070  -49.3120 O.co2 102  GLU102     -0.2457
     20  OE2      -51.3070  111.8790  -51.4460 O.co2 102  GLU102     -0.2457
     21  N        -51.3620  115.9710  -46.9430 N.am  103  PHE103     -0.1976
     22  CA       -51.2280  116.6920  -45.6880 C.3   103  PHE103      0.1639
     23  C        -50.8370  118.1730  -45.8540 C.2   103  PHE103      0.2290
     24  O        -51.5160  119.0640  -45.3500 O.2   103  PHE103     -0.2864
     25  CB       -50.1810  115.9830  -44.8200 C.3   103  PHE103      0.0560
     26  CG       -50.1160  116.5130  -43.4550 C.ar  103  PHE103     -0.0200
     27  CD1      -51.1920  116.3260  -42.6020 C.ar  103  PHE103     -0.0042
     28  CD2      -49.0170  117.2380  -43.0330 C.ar  103  PHE103     -0.0042
     29  CE1      -51.1700  116.8420  -41.3200 C.ar  103  PHE103     -0.0003
     30  CE2      -48.9870  117.7440  -41.7480 C.ar  103  PHE103     -0.0003
     31  CZ       -50.0720  117.5470  -40.8980 C.ar  103  PHE103     -0.0000
     32  N        -57.2260  111.8060  -48.4990 N.3   112  THR112     -0.1218
     33  CA       -56.0740  110.9850  -48.8810 C.3   112  THR112      0.1862
     34  C        -56.0600  109.6270  -48.1780 C.2   112  THR112      0.2287
     35  O        -56.4800  109.4830  -46.9960 O.2   112  THR112     -0.2866
     36  CB       -54.7340  111.6950  -48.6500 C.3   112  THR112      0.1770
     37  OG1      -53.6660  110.8710  -49.1350 O.3   112  THR112     -0.2211
     38  CG2      -54.4900  112.0310  -47.1710 C.3   112  THR112      0.0375
     39  N        -48.4510  106.1410  -45.7910 N.3   116  LEU116     -0.1231
     40  CA       -46.9930  106.2490  -45.7850 C.3   116  LEU116      0.1693
     41  C        -46.3360  106.0730  -44.4100 C.2   116  LEU116      0.2591
     42  O        -45.1290  106.0740  -44.3220 O.2   116  LEU116     -0.2718
     43  CB       -46.5800  107.6000  -46.3780 C.3   116  LEU116      0.0284
     44  CG       -46.6420  108.8900  -45.5470 C.3   116  LEU116      0.0019
     45  CD1      -45.7090  109.9110  -46.1790 C.3   116  LEU116      0.0001
     46  CD2      -48.0430  109.4630  -45.4210 C.3   116  LEU116      0.0001
     47  N        -47.1410  105.9140  -43.3660 N.am  117  VAL117     -0.1980
     48  CA       -46.7100  106.0740  -41.9820 C.3   117  VAL117      0.1595
     49  C        -46.3780  104.7680  -41.2740 C.2   117  VAL117      0.2287
     50  O        -45.3180  104.6610  -40.6820 O.2   117  VAL117     -0.2864
     51  CB       -47.7720  106.8210  -41.1510 C.3   117  VAL117      0.0276
     52  CG1      -47.2210  107.1110  -39.7700 C.3   117  VAL117      0.0022
     53  CG2      -48.1600  108.1180  -41.8590 C.3   117  VAL117      0.0022
     54  N        -52.1380  105.7520  -42.8270 N.3   130  THR130     -0.1203
     55  CA       -51.7770  107.1140  -42.4850 C.3   130  THR130      0.1994
     56  C        -52.6370  107.4220  -41.2610 C.2   130  THR130      0.2618
     57  O        -52.7340  106.5600  -40.3700 O.2   130  THR130     -0.2717
     58  CB       -51.8780  108.0830  -43.6960 C.3   130  THR130      0.1784
     59  OG1      -51.7270  109.4520  -43.2730 O.3   130  THR130     -0.2211
     60  CG2      -53.2000  107.9170  -44.4980 C.3   130  THR130      0.0376
     61  N        -53.2710  108.5850  -41.1850 N.am  131  GLU131     -0.1965
     62  CA       -54.1020  108.9170  -40.0260 C.3   131  GLU131      0.1733
     63  C        -55.5540  109.2530  -40.3770 C.2   131  GLU131      0.2617
     64  O        -56.2900  109.7970  -39.5410 O.2   131  GLU131     -0.2715
     65  CB       -53.4700  110.0890  -39.2680 C.3   131  GLU131      0.0429
     66  CG       -52.1380  109.7170  -38.6740 C.3   131  GLU131      0.1163
     67  CD       -51.4220  110.8790  -37.9860 C.2   131  GLU131      0.3649
     68  OE1      -52.0130  111.9480  -37.8030 O.co2 131  GLU131     -0.2457
     69  OE2      -50.2520  110.7060  -37.6560 O.co2 131  GLU131     -0.2457
     70  N        -55.9630  108.9230  -41.6020 N.am  132  THR132     -0.1951
     71  CA       -57.3200  109.2150  -42.0800 C.3   132  THR132      0.1897
     72  C        -58.2390  108.0000  -41.8810 C.2   132  THR132      0.2313
     73  O        -57.8770  107.0230  -41.1880 O.2   132  THR132     -0.2863
     74  CB       -57.2590  109.5950  -43.5570 C.3   132  THR132      0.1794
     75  OG1      -56.7930  108.4580  -44.3280 O.3   132  THR132     -0.2208
     76  CG2      -56.3160  110.7750  -43.7270 C.3   132  THR132      0.0378
     77  N        -63.7600  109.7670  -37.6380 N.3   158  ASN158     -0.1225
     78  CA       -63.3530  110.4380  -38.8870 C.3   158  ASN158      0.1785
     79  C        -61.9850  110.0260  -39.3710 C.2   158  ASN158      0.2597
     80  O        -61.6380  110.2300  -40.5270 O.2   158  ASN158     -0.2718
     81  CB       -63.4630  111.9470  -38.7270 C.3   158  ASN158      0.1169
     82  CG       -64.9260  112.3790  -38.6500 C.2   158  ASN158      0.2627
     83  OD1      -65.5940  112.1700  -37.6410 O.2   158  ASN158     -0.2716
     84  ND2      -65.4470  112.9160  -39.7500 N.am  158  ASN158     -0.0877
     85  N        -61.1970  109.4670  -38.4740 N.am  159  GLY159     -0.1957
     86  CA       -59.9370  108.8870  -38.8320 C.3   159  GLY159      0.1869
     87  C        -59.4680  108.1070  -37.6300 C.2   159  GLY159      0.2309
     88  O        -60.1480  108.0610  -36.6240 O.2   159  GLY159     -0.2863
     89  N        -60.6400  111.0490  -33.8740 N.3   177  ASN177     -0.1240
     90  CA       -61.5770  112.1740  -33.7200 C.3   177  ASN177      0.1653
     91  C        -62.9470  111.6960  -34.1870 C.2   177  ASN177      0.2266
     92  O        -63.0390  110.9530  -35.1620 O.2   177  ASN177     -0.2867
     93  CB       -61.1560  113.4240  -34.5650 C.3   177  ASN177      0.1155
     94  CG       -59.7180  113.8630  -34.3040 C.2   177  ASN177      0.2627
     95  OD1      -58.7980  113.5810  -35.0830 O.2   177  ASN177     -0.2716
     96  ND2      -59.5120  114.5180  -33.1740 N.am  177  ASN177     -0.0877
     97  N        -66.5670  113.6360  -35.1940 N.3   179  PHE179     -0.1241
     98  CA       -67.2350  114.9590  -35.4730 C.3   179  PHE179      0.1605
     99  C        -68.7670  114.8990  -35.5250 C.2   179  PHE179      0.2264
    100  O        -69.3950  114.3010  -34.6560 O.2   179  PHE179     -0.2867
    101  CB       -66.7560  115.6160  -36.8000 C.3   179  PHE179      0.0534
    102  CG       -65.2290  115.7240  -36.9790 C.ar  179  PHE179     -0.0203
    103  CD1      -64.3350  115.8240  -35.9010 C.ar  179  PHE179     -0.0042
    104  CD2      -64.6900  115.7820  -38.2670 C.ar  179  PHE179     -0.0042
    105  CE1      -62.9540  115.9340  -36.1200 C.ar  179  PHE179     -0.0003
    106  CE2      -63.3170  115.8910  -38.4810 C.ar  179  PHE179     -0.0003
    107  CZ       -62.4460  115.9740  -37.4130 C.ar  179  PHE179     -0.0000
    108  N        -55.3560  117.5090  -32.2440 N.3   217  TYR217     -0.1241
    109  CA       -54.6060  116.5270  -32.9970 C.3   217  TYR217      0.1605
    110  C        -54.1610  115.3980  -32.0760 C.2   217  TYR217      0.2264
    111  O        -53.6570  115.6480  -30.9880 O.2   217  TYR217     -0.2867
    112  CB       -53.3850  117.1830  -33.6120 C.3   217  TYR217      0.0534
    113  CG       -52.5710  116.2240  -34.4120 C.ar  217  TYR217     -0.0201
    114  CD1      -53.0530  115.6990  -35.5990 C.ar  217  TYR217     -0.0009
    115  CD2      -51.3140  115.8140  -33.9680 C.ar  217  TYR217     -0.0009
    116  CE1      -52.3010  114.7680  -36.3140 C.ar  217  TYR217      0.0417
    117  CE2      -50.5450  114.9110  -34.6890 C.ar  217  TYR217      0.0417
    118  CZ       -51.0360  114.3850  -35.8600 C.ar  217  TYR217      0.1957
    119  OH       -50.2770  113.4900  -36.5690 O.3   217  TYR217     -0.2866
    120  N        -52.0310  111.6450  -32.1060 N.3   219  HIS219     -0.1241
    121  CA       -51.0790  110.8320  -32.8360 C.3   219  HIS219      0.1621
    122  C        -50.9050  109.4320  -32.2610 C.2   219  HIS219      0.2264
    123  O        -50.5820  108.5100  -33.0010 O.2   219  HIS219     -0.2867
    124  CB       -49.7320  111.5610  -32.8360 C.3   219  HIS219      0.0745
    125  CG       -48.7390  110.9650  -33.7630 C.ar  219  HIS219      0.0817
    126  ND1      -48.7380  111.2510  -35.1120 N.ar  219  HIS219     -0.2268
    127  CD2      -47.7680  110.0370  -33.5740 C.ar  219  HIS219      0.1154
    128  CE1      -47.7960  110.5550  -35.7100 C.ar  219  HIS219      0.1986
    129  NE2      -47.1910  109.8100  -34.7980 N.ar  219  HIS219     -0.2212
    130  N        -57.3370  121.2690  -34.3300 N.3   237  ILE237     -0.1245
    131  CA       -57.8200  121.2350  -35.7060 C.3   237  ILE237      0.1561
    132  C        -58.9910  122.1790  -35.7760 C.2   237  ILE237      0.2260
    133  O        -59.9580  122.0080  -35.0450 O.2   237  ILE237     -0.2867
    134  CB       -58.2800  119.8200  -36.0810 C.3   237  ILE237      0.0252
    135  CG1      -57.0690  118.8900  -36.0330 C.3   237  ILE237      0.0019
    136  CG2      -58.9230  119.8070  -37.4760 C.3   237  ILE237      0.0019
    137  CD1      -57.4160  117.4220  -35.9450 C.3   237  ILE237      0.0001
    138  N        -61.6540  123.4460  -41.6240 N.3   242  PHE242     -0.1241
    139  CA       -61.5630  122.0210  -42.0910 C.3   242  PHE242      0.1605
    140  C        -62.7080  121.6390  -43.0550 C.2   242  PHE242      0.2264
    141  O        -62.4550  121.2320  -44.2020 O.2   242  PHE242     -0.2867
    142  CB       -61.4770  121.0030  -40.8920 C.3   242  PHE242      0.0534
    143  CG       -60.9990  119.5790  -41.2730 C.ar  242  PHE242     -0.0203
    144  CD1      -59.9490  119.3640  -42.1970 C.ar  242  PHE242     -0.0042
    145  CD2      -61.5690  118.4400  -40.6710 C.ar  242  PHE242     -0.0042
    146  CE1      -59.5210  118.0630  -42.5230 C.ar  242  PHE242     -0.0003
    147  CE2      -61.1290  117.1430  -41.0030 C.ar  242  PHE242     -0.0003
    148  CZ       -60.1120  116.9580  -41.9260 C.ar  242  PHE242     -0.0000
    149  N        -54.3790  120.0610  -45.2750 N.3   248  TYR248     -0.1241
    150  CA       -54.5850  119.6550  -43.8780 C.3   248  TYR248      0.1605
    151  C        -53.7950  120.5790  -42.9200 C.2   248  TYR248      0.2264
    152  O        -54.3600  121.0630  -41.9490 O.2   248  TYR248     -0.2867
    153  CB       -54.2270  118.1810  -43.6600 C.3   248  TYR248      0.0534
    154  CG       -55.0970  117.1990  -44.4370 C.ar  248  TYR248     -0.0201
    155  CD1      -56.1720  116.5420  -43.8350 C.ar  248  TYR248     -0.0009
    156  CD2      -54.8230  116.9040  -45.7680 C.ar  248  TYR248     -0.0009
    157  CE1      -56.9800  115.6460  -44.5670 C.ar  248  TYR248      0.0417
    158  CE2      -55.5980  116.0090  -46.4880 C.ar  248  TYR248      0.0417
    159  CZ       -56.6670  115.3820  -45.8730 C.ar  248  TYR248      0.1957
    160  OH       -57.3910  114.5140  -46.6170 O.3   248  TYR248     -0.2866
    161  N        -55.3160  123.7250  -41.4800 N.3   251  CYS251     -0.1221
    162  CA       -56.3850  123.6740  -40.4880 C.3   251  CYS251      0.1808
    163  C        -55.8900  123.6760  -39.0450 C.2   251  CYS251      0.2601
    164  O        -56.7190  123.7820  -38.1340 O.2   251  CYS251     -0.2717
    165  CB       -57.2750  122.4550  -40.7760 C.3   251  CYS251      0.0970
    166  SG       -57.8270  122.4900  -42.5160 S.3   251  CYS251     -0.0800
    167  N        -54.5750  123.5910  -38.8160 N.am  252  PHE252     -0.1976
    168  CA       -54.0680  123.5380  -37.4290 C.3   252  PHE252      0.1639
    169  C        -53.9130  124.9000  -36.8280 C.2   252  PHE252      0.2290
    170  O        -53.5950  125.8330  -37.5280 O.2   252  PHE252     -0.2864
    171  CB       -52.7480  122.7830  -37.3180 C.3   252  PHE252      0.0560
    172  CG       -52.8700  121.3380  -37.6630 C.ar  252  PHE252     -0.0200
    173  CD1      -52.5940  120.9210  -38.9350 C.ar  252  PHE252     -0.0042
    174  CD2      -53.2820  120.4030  -36.7210 C.ar  252  PHE252     -0.0042
    175  CE1      -52.6930  119.5740  -39.2880 C.ar  252  PHE252     -0.0003
    176  CE2      -53.3900  119.0680  -37.0560 C.ar  252  PHE252     -0.0003
    177  CZ       -53.0960  118.6460  -38.3450 C.ar  252  PHE252     -0.0000
    178  N        -44.9620  120.1800  -36.5990 N.3   311  TYR311     -0.1241
    179  CA       -45.0440  119.8640  -38.0300 C.3   311  TYR311      0.1605
    180  C        -44.7560  121.0650  -38.9470 C.2   311  TYR311      0.2264
    181  O        -44.4020  120.8700  -40.0950 O.2   311  TYR311     -0.2867
    182  CB       -46.3930  119.2080  -38.4030 C.3   311  TYR311      0.0534
    183  CG       -46.6180  117.7930  -37.8990 C.ar  311  TYR311     -0.0201
    184  CD1      -45.6400  117.0740  -37.2270 C.ar  311  TYR311     -0.0009
    185  CD2      -47.8080  117.1440  -38.1750 C.ar  311  TYR311     -0.0009
    186  CE1      -45.8610  115.7680  -36.8230 C.ar  311  TYR311      0.0417
    187  CE2      -48.0440  115.8450  -37.7740 C.ar  311  TYR311      0.0417
    188  CZ       -47.0760  115.1600  -37.0840 C.ar  311  TYR311      0.1957
    189  OH       -47.3280  113.8750  -36.6690 O.3   311  TYR311     -0.2866
    190  N        -40.8350  105.9180  -41.5380 N.3   499  PHE499     -0.1241
    191  CA       -41.3960  106.3310  -40.2620 C.3   499  PHE499      0.1605
    192  C        -41.5170  105.1780  -39.2790 C.2   499  PHE499      0.2264
    193  O        -40.7730  105.1050  -38.2760 O.2   499  PHE499     -0.2867
    194  CB       -42.7230  107.0600  -40.4830 C.3   499  PHE499      0.0534
    195  CG       -42.5860  108.3060  -41.3290 C.ar  499  PHE499     -0.0203
    196  CD1      -41.6360  109.2790  -41.0300 C.ar  499  PHE499     -0.0042
    197  CD2      -43.4080  108.5100  -42.4370 C.ar  499  PHE499     -0.0042
    198  CE1      -41.4750  110.3860  -41.8580 C.ar  499  PHE499     -0.0003
    199  CE2      -43.2790  109.6410  -43.2320 C.ar  499  PHE499     -0.0003
    200  CZ       -42.2990  110.5720  -42.9660 C.ar  499  PHE499     -0.0000
@<TRIPOS>BOND
     1    20    18   ar
     2    17    18    1
     3    17    16    1
     4    18    19   ar
     5    12    13    1
     6    16    13    1
     7    13    14    1
     8    37    36    1
     9    33    36    1
    10    33    32    1
    11    33    34    1
    12    36    38    1
    13    34    35    2
    14    15    14    2
    15    14    21   am
    16    21    22    1
    17   160   159    1
    18   158   159   ar
    19   158   156   ar
    20    43    40    1
    21    43    44    1
    22    45    44    1
    23     3     4    2
    24     3     2    1
    25   159   157   ar
    26    23    22    1
    27    23    24    2
    28    39    40    1
    29    40    41    1
    30   156   154   ar
    31    22    25    1
    32    44    46    1
    33   149   150    1
    34     1     2    1
    35     2     5    1
    36    25    26    1
    37   157   155   ar
    38    60    58    1
    39   154   155   ar
    40   154   153    1
    41    41    42    2
    42    41    47   am
    43    75    74    1
    44   141   140    2
    45   150   153    1
    46   150   151    1
    47    76    74    1
    48    58    59    1
    49    58    55    1
    50     5     6    1
    51    74    71    1
    52    26    28   ar
    53    26    27   ar
    54    47    48    1
    55   199   200   ar
    56   199   197   ar
    57   140   139    1
    58    28    30   ar
    59   200   198   ar
    60   151   152    2
    61    54    55    1
    62    27    29   ar
    63   146   144   ar
    64   146   148   ar
    65   166   165    1
    66    55    56    1
    67   197   195   ar
    68     6     7   ar
    69     6     8   ar
    70   144   143   ar
    71   139   138    1
    72   139   142    1
    73     7     9   ar
    74    71    72    1
    75    71    70    1
    76    48    49    1
    77    48    51    1
    78   148   147   ar
    79    72    73    2
    80    53    51    1
    81   198   196   ar
    82    30    31   ar
    83    70    63   am
    84   190   191    1
    85     8    10   ar
    86   161   162    1
    87   195   196   ar
    88   195   194    1
    89    29    31   ar
    90    49    50    2
    91   143   142    1
    92   143   145   ar
    93    56    61   am
    94    56    57    2
    95    61    62    1
    96    51    52    1
    97   147   145   ar
    98     9    11   ar
    99   165   162    1
   100    80    79    2
   101   162   163    1
   102   194   191    1
   103    63    62    1
   104    63    64    2
   105    10    11   ar
   106   191   192    1
   107   181   180    2
   108    62    65    1
   109    84    82   am
   110    79    78    1
   111    79    85   am
   112   175   173   ar
   113   175   177   ar
   114   192   193    2
   115    65    66    1
   116   163   167   am
   117   163   164    2
   118   180   179    1
   119   173   172   ar
   120    78    81    1
   121    78    77    1
   122    86    85    1
   123    86    87    1
   124   167   168    1
   125    81    82    1
   126    66    67    1
   127    82    83    2
   128   106   104   ar
   129   106   107   ar
   130   182   179    1
   131   182   183    1
   132   177   176   ar
   133   104   102   ar
   134   185   183   ar
   135   185   187   ar
   136   179   178    1
   137    67    68   ar
   138    67    69   ar
   139   183   184   ar
   140   187   188   ar
   141   172   171    1
   142   172   174   ar
   143    87    88    2
   144   170   169    2
   145   136   134    1
   146   168   171    1
   147   168   169    1
   148   107   105   ar
   149   184   186   ar
   150   188   186   ar
   151   188   189    1
   152   176   174   ar
   153   102   101    1
   154   102   103   ar
   155   101    98    1
   156   119   118    1
   157   116   118   ar
   158   116   114   ar
   159   105   103   ar
   160   134   135    1
   161   134   131    1
   162   135   137    1
   163   118   117   ar
   164   132   131    1
   165   132   133    2
   166   128   126   ar
   167   128   129   ar
   168   131   130    1
   169   114   113   ar
   170    99    98    1
   171    99   100    2
   172    98    97    1
   173    92    91    2
   174   126   125   ar
   175    95    94    2
   176   129   127   ar
   177   117   115   ar
   178    93    94    1
   179    93    90    1
   180   113   115   ar
   181   113   112    1
   182    94    96   am
   183    91    90    1
   184    89    90    1
   185   125   127   ar
   186   125   124    1
   187   112   109    1
   188   123   122    2
   189   109   108    1
   190   109   110    1
   191   121   124    1
   192   121   122    1
   193   121   120    1
   194   110   111    2
