@<TRIPOS>MOLECULE
tmp/5ulgB00.pdb
 246 243 0 0 0
SMALL
GASTEIGER

@<TRIPOS>ATOM
      1  N        -32.6460  111.3590  -47.8770 N.3    15  LEU15      -0.1231
      2  CA       -33.8540  110.8870  -47.2060 C.3    15  LEU15       0.1693
      3  C        -35.0940  111.3600  -47.9210 C.2    15  LEU15       0.2592
      4  O        -36.1330  110.7120  -47.8020 O.2    15  LEU15      -0.2718
      5  CB       -33.9160  111.3690  -45.7450 C.3    15  LEU15       0.0284
      6  CG       -32.8160  110.9080  -44.7800 C.3    15  LEU15       0.0019
      7  CD1      -32.7960  111.7600  -43.5150 C.3    15  LEU15       0.0001
      8  CD2      -32.9950  109.4550  -44.4110 C.3    15  LEU15       0.0001
      9  N        -34.9970  112.4720  -48.6620 N.am   16  PHE16      -0.1976
     10  CA       -36.1530  113.1080  -49.2830 C.3    16  PHE16       0.1639
     11  C        -36.0950  113.1380  -50.8110 C.2    16  PHE16       0.2290
     12  O        -36.6600  114.0160  -51.4320 O.2    16  PHE16      -0.2864
     13  CB       -36.2660  114.5130  -48.7260 C.3    16  PHE16       0.0560
     14  CG       -36.0530  114.5670  -47.2410 C.ar   16  PHE16      -0.0200
     15  CD1      -36.8980  113.8660  -46.3880 C.ar   16  PHE16      -0.0042
     16  CD2      -34.9840  115.2610  -46.6980 C.ar   16  PHE16      -0.0042
     17  CE1      -36.6990  113.8880  -45.0210 C.ar   16  PHE16      -0.0003
     18  CE2      -34.7760  115.2760  -45.3300 C.ar   16  PHE16      -0.0003
     19  CZ       -35.6320  114.5930  -44.4940 C.ar   16  PHE16      -0.0000
     20  N        -43.1310  116.7900  -45.5380 N.3    60  LEU60      -0.1231
     21  CA       -42.5850  115.4900  -45.2080 C.3    60  LEU60       0.1693
     22  C        -43.6000  114.3360  -45.2950 C.2    60  LEU60       0.2592
     23  O        -43.2120  113.2290  -45.6110 O.2    60  LEU60      -0.2718
     24  CB       -41.9760  115.5260  -43.7870 C.3    60  LEU60       0.0284
     25  CG       -41.3690  114.2080  -43.2570 C.3    60  LEU60       0.0019
     26  CD1      -40.2650  113.6900  -44.1700 C.3    60  LEU60       0.0001
     27  CD2      -40.8400  114.4010  -41.8490 C.3    60  LEU60       0.0001
     28  N        -44.8740  114.6030  -45.0430 N.am   61  PHE61      -0.1976
     29  CA       -45.9030  113.5860  -44.9180 C.3    61  PHE61       0.1639
     30  C        -46.8100  113.5040  -46.1700 C.2    61  PHE61       0.2290
     31  O        -47.9250  112.9650  -46.0820 O.2    61  PHE61      -0.2864
     32  CB       -46.7730  113.8570  -43.6920 C.3    61  PHE61       0.0560
     33  CG       -46.0140  113.9410  -42.4050 C.ar   61  PHE61      -0.0200
     34  CD1      -45.0340  113.0020  -42.0830 C.ar   61  PHE61      -0.0042
     35  CD2      -46.3100  114.9190  -41.4890 C.ar   61  PHE61      -0.0042
     36  CE1      -44.3440  113.0700  -40.8760 C.ar   61  PHE61      -0.0003
     37  CE2      -45.6040  115.0090  -40.2790 C.ar   61  PHE61      -0.0003
     38  CZ       -44.6250  114.0880  -39.9810 C.ar   61  PHE61      -0.0000
     39  N        -47.1410  105.9140  -43.3660 N.3   117  VAL117     -0.1245
     40  CA       -46.7100  106.0740  -41.9820 C.3   117  VAL117      0.1561
     41  C        -46.3780  104.7680  -41.2740 C.2   117  VAL117      0.2260
     42  O        -45.3180  104.6610  -40.6820 O.2   117  VAL117     -0.2867
     43  CB       -47.7720  106.8210  -41.1510 C.3   117  VAL117      0.0252
     44  CG1      -47.2210  107.1110  -39.7700 C.3   117  VAL117      0.0019
     45  CG2      -48.1600  108.1180  -41.8590 C.3   117  VAL117      0.0019
     46  N        -53.2710  108.5850  -41.1850 N.3   131  GLU131     -0.1245
     47  CA       -54.1020  108.9170  -40.0260 C.3   131  GLU131      0.1567
     48  C        -55.5540  109.2530  -40.3770 C.2   131  GLU131      0.2260
     49  O        -56.2900  109.7970  -39.5410 O.2   131  GLU131     -0.2867
     50  CB       -53.4700  110.0890  -39.2680 C.3   131  GLU131      0.0388
     51  CG       -52.1380  109.7170  -38.6740 C.3   131  GLU131      0.1160
     52  CD       -51.4220  110.8790  -37.9860 C.2   131  GLU131      0.3649
     53  OE1      -52.0130  111.9480  -37.8030 O.co2 131  GLU131     -0.2457
     54  OE2      -50.2520  110.7060  -37.6560 O.co2 131  GLU131     -0.2457
     55  N        -50.9380  104.5360  -34.7920 N.3   163  HIS163     -0.1241
     56  CA       -50.3280  103.8170  -33.6620 C.3   163  HIS163      0.1621
     57  C        -51.3480  103.0720  -32.8310 C.2   163  HIS163      0.2264
     58  O        -51.5070  103.3630  -31.6510 O.2   163  HIS163     -0.2867
     59  CB       -49.5800  104.8120  -32.7610 C.3   163  HIS163      0.0745
     60  CG       -48.3840  105.3950  -33.4160 C.ar  163  HIS163      0.0817
     61  ND1      -47.2880  104.6210  -33.7320 N.ar  163  HIS163     -0.2268
     62  CD2      -48.1200  106.6440  -33.8570 C.ar  163  HIS163      0.1154
     63  CE1      -46.3970  105.3730  -34.3380 C.ar  163  HIS163      0.1986
     64  NE2      -46.8800  106.6020  -34.4260 N.ar  163  HIS163     -0.2212
     65  N        -52.0310  111.6450  -32.1060 N.3   219  HIS219     -0.1241
     66  CA       -51.0790  110.8320  -32.8360 C.3   219  HIS219      0.1621
     67  C        -50.9050  109.4320  -32.2610 C.2   219  HIS219      0.2264
     68  O        -50.5820  108.5100  -33.0010 O.2   219  HIS219     -0.2867
     69  CB       -49.7320  111.5610  -32.8360 C.3   219  HIS219      0.0745
     70  CG       -48.7390  110.9650  -33.7630 C.ar  219  HIS219      0.0817
     71  ND1      -48.7380  111.2510  -35.1120 N.ar  219  HIS219     -0.2268
     72  CD2      -47.7680  110.0370  -33.5740 C.ar  219  HIS219      0.1154
     73  CE1      -47.7960  110.5550  -35.7100 C.ar  219  HIS219      0.1986
     74  NE2      -47.1910  109.8100  -34.7980 N.ar  219  HIS219     -0.2212
     75  N        -46.2250  113.4040  -29.9430 N.3   285  PHE285     -0.1227
     76  CA       -46.4730  112.4350  -30.9980 C.3   285  PHE285      0.1736
     77  C        -46.4990  111.0070  -30.4440 C.2   285  PHE285      0.2595
     78  O        -47.5050  110.2740  -30.6050 O.2   285  PHE285     -0.2718
     79  CB       -45.5010  112.6820  -32.1520 C.3   285  PHE285      0.0547
     80  CG       -45.5680  114.0770  -32.6070 C.ar  285  PHE285     -0.0202
     81  CD1      -46.7000  114.5160  -33.3010 C.ar  285  PHE285     -0.0042
     82  CD2      -44.6240  115.0260  -32.1820 C.ar  285  PHE285     -0.0042
     83  CE1      -46.8540  115.8420  -33.6470 C.ar  285  PHE285     -0.0003
     84  CE2      -44.7770  116.3610  -32.5290 C.ar  285  PHE285     -0.0003
     85  CZ       -45.8940  116.7680  -33.2670 C.ar  285  PHE285     -0.0000
     86  N        -45.4380  110.6180  -29.7450 N.am  286  HIS286     -0.1975
     87  CA       -45.2940  109.2340  -29.3290 C.3   286  HIS286      0.1656
     88  C        -45.2650  109.0170  -27.8490 C.2   286  HIS286      0.2291
     89  O        -44.3680  109.5370  -27.1420 O.2   286  HIS286     -0.2864
     90  CB       -44.0210  108.7120  -29.9030 C.3   286  HIS286      0.0771
     91  CG       -43.9840  108.7910  -31.3800 C.ar  286  HIS286      0.0820
     92  ND1      -43.0720  109.5610  -32.0550 N.ar  286  HIS286     -0.2267
     93  CD2      -44.7820  108.2410  -32.3150 C.ar  286  HIS286      0.1154
     94  CE1      -43.2930  109.4600  -33.3490 C.ar  286  HIS286      0.1986
     95  NE2      -44.3240  108.6650  -33.5310 N.ar  286  HIS286     -0.2212
     96  N        -42.4840  117.6680  -26.8190 N.3   304  TRP304     -0.1241
     97  CA       -41.8780  118.8410  -27.4400 C.3   304  TRP304      0.1605
     98  C        -42.3990  120.0760  -26.6830 C.2   304  TRP304      0.2264
     99  O        -43.5910  120.3430  -26.6790 O.2   304  TRP304     -0.2867
    100  CB       -42.2360  118.8980  -28.9120 C.3   304  TRP304      0.0550
    101  CG       -41.6360  117.7920  -29.7360 C.ar  304  TRP304      0.0003
    102  CD1      -42.1400  116.5470  -29.9090 C.ar  304  TRP304      0.0946
    103  CD2      -40.4150  117.8370  -30.4720 C.ar  304  TRP304      0.0152
    104  NE1      -41.3000  115.8000  -30.6840 N.ar  304  TRP304     -0.2442
    105  CE2      -40.2350  116.5750  -31.0560 C.ar  304  TRP304      0.0810
    106  CE3      -39.4260  118.8160  -30.6660 C.ar  304  TRP304      0.0012
    107  CZ2      -39.1270  116.2700  -31.8670 C.ar  304  TRP304      0.0191
    108  CZ3      -38.3300  118.5150  -31.4680 C.ar  304  TRP304      0.0001
    109  CH2      -38.2060  117.2470  -32.0700 C.ar  304  TRP304      0.0015
    110  N        -45.0970  121.2980  -34.0560 N.3   310  VAL310     -0.1231
    111  CA       -43.7870  120.8560  -34.5480 C.3   310  VAL310      0.1692
    112  C        -43.8060  120.5730  -36.0620 C.2   310  VAL310      0.2592
    113  O        -42.7800  120.7240  -36.7340 O.2   310  VAL310     -0.2718
    114  CB       -43.2820  119.6360  -33.7290 C.3   310  VAL310      0.0266
    115  CG1      -42.0600  118.9670  -34.3480 C.3   310  VAL310      0.0020
    116  CG2      -42.9820  120.0800  -32.2920 C.3   310  VAL310      0.0020
    117  N        -44.9620  120.1800  -36.5990 N.am  311  TYR311     -0.1976
    118  CA       -45.0440  119.8640  -38.0300 C.3   311  TYR311      0.1639
    119  C        -44.7560  121.0650  -38.9470 C.2   311  TYR311      0.2290
    120  O        -44.4020  120.8700  -40.0950 O.2   311  TYR311     -0.2864
    121  CB       -46.3930  119.2080  -38.4030 C.3   311  TYR311      0.0560
    122  CG       -46.6180  117.7930  -37.8990 C.ar  311  TYR311     -0.0198
    123  CD1      -45.6400  117.0740  -37.2270 C.ar  311  TYR311     -0.0009
    124  CD2      -47.8080  117.1440  -38.1750 C.ar  311  TYR311     -0.0009
    125  CE1      -45.8610  115.7680  -36.8230 C.ar  311  TYR311      0.0417
    126  CE2      -48.0440  115.8450  -37.7740 C.ar  311  TYR311      0.0417
    127  CZ       -47.0760  115.1600  -37.0840 C.ar  311  TYR311      0.1957
    128  OH       -47.3280  113.8750  -36.6690 O.3   311  TYR311     -0.2866
    129  N        -41.3560  120.8810  -40.6660 N.3   314  LEU314     -0.1245
    130  CA       -41.0910  119.6540  -41.4600 C.3   314  LEU314      0.1561
    131  C        -41.5410  119.7500  -42.9340 C.2   314  LEU314      0.2260
    132  O        -41.7980  118.7310  -43.5610 O.2   314  LEU314     -0.2867
    133  CB       -41.7340  118.4410  -40.7690 C.3   314  LEU314      0.0270
    134  CG       -41.3930  118.2520  -39.2910 C.3   314  LEU314      0.0019
    135  CD1      -42.1370  117.0420  -38.7620 C.3   314  LEU314      0.0001
    136  CD2      -39.9000  118.0600  -39.0930 C.3   314  LEU314      0.0001
    137  N        -36.2490  120.9200  -44.6560 N.3   319  LEU319     -0.1245
    138  CA       -35.4280  119.7470  -44.4400 C.3   319  LEU319      0.1561
    139  C        -34.3400  119.5250  -45.5140 C.2   319  LEU319      0.2260
    140  O        -33.3770  118.7680  -45.2870 O.2   319  LEU319     -0.2867
    141  CB       -36.3150  118.5050  -44.3130 C.3   319  LEU319      0.0270
    142  CG       -37.3120  118.4720  -43.1530 C.3   319  LEU319      0.0019
    143  CD1      -38.2700  117.3080  -43.2600 C.3   319  LEU319      0.0001
    144  CD2      -36.5850  118.3900  -41.8290 C.3   319  LEU319      0.0001
    145  N        -36.6420  110.1550  -30.1100 N.3   390  GLU390     -0.1231
    146  CA       -37.9180  110.0450  -30.8030 C.3   390  GLU390      0.1699
    147  C        -38.1260  108.6510  -31.3920 C.2   390  GLU390      0.2592
    148  O        -37.2770  107.7740  -31.2560 O.2   390  GLU390     -0.2718
    149  CB       -38.0360  111.1350  -31.8750 C.3   390  GLU390      0.0402
    150  CG       -38.8470  112.3250  -31.3920 C.3   390  GLU390      0.1161
    151  CD       -40.3350  112.0470  -31.2280 C.2   390  GLU390      0.3649
    152  OE1      -41.0780  112.9640  -30.8330 O.co2 390  GLU390     -0.2457
    153  OE2      -40.7760  110.9230  -31.5150 O.co2 390  GLU390     -0.2457
    154  N        -39.2940  108.4490  -31.9900 N.am  391  PHE391     -0.1976
    155  CA       -39.6770  107.1610  -32.5380 C.3   391  PHE391      0.1639
    156  C        -39.3610  106.0670  -31.5570 C.2   391  PHE391      0.2290
    157  O        -38.6410  105.1110  -31.8920 O.2   391  PHE391     -0.2864
    158  CB       -38.9710  106.9390  -33.8550 C.3   391  PHE391      0.0560
    159  CG       -39.3960  107.8900  -34.9400 C.ar  391  PHE391     -0.0200
    160  CD1      -40.3980  107.5360  -35.8320 C.ar  391  PHE391     -0.0042
    161  CD2      -38.7760  109.1220  -35.0910 C.ar  391  PHE391     -0.0042
    162  CE1      -40.7900  108.4180  -36.8560 C.ar  391  PHE391     -0.0003
    163  CE2      -39.1720  110.0110  -36.1050 C.ar  391  PHE391     -0.0003
    164  CZ       -40.1790  109.6560  -36.9970 C.ar  391  PHE391     -0.0000
    165  N        -34.8450  106.7150  -32.0580 N.3   410  LEU410     -0.1245
    166  CA       -34.0940  107.4110  -33.0870 C.3   410  LEU410      0.1561
    167  C        -33.7670  108.8120  -32.5810 C.2   410  LEU410      0.2260
    168  O        -34.6350  109.5380  -32.1330 O.2   410  LEU410     -0.2867
    169  CB       -34.9440  107.5170  -34.3310 C.3   410  LEU410      0.0270
    170  CG       -34.3550  108.2170  -35.5410 C.3   410  LEU410      0.0019
    171  CD1      -33.1180  107.4910  -36.0380 C.3   410  LEU410      0.0001
    172  CD2      -35.4280  108.2680  -36.6240 C.3   410  LEU410      0.0001
    173  N        -32.8000  112.5290  -33.1350 N.3   412  LEU412     -0.1245
    174  CA       -32.8530  113.6340  -34.0810 C.3   412  LEU412      0.1561
    175  C        -31.9790  114.7930  -33.6210 C.2   412  LEU412      0.2260
    176  O        -31.9550  115.1220  -32.4360 O.2   412  LEU412     -0.2867
    177  CB       -34.2800  114.1520  -34.1810 C.3   412  LEU412      0.0270
    178  CG       -35.3520  113.1070  -34.3990 C.3   412  LEU412      0.0019
    179  CD1      -36.6680  113.8330  -34.4390 C.3   412  LEU412      0.0001
    180  CD2      -35.1160  112.3090  -35.6850 C.3   412  LEU412      0.0001
    181  N        -33.8910  118.0000  -35.9810 N.3   415  PHE415     -0.1241
    182  CA       -34.8340  117.2400  -36.8420 C.3   415  PHE415      0.1605
    183  C        -34.2050  116.1870  -37.7730 C.2   415  PHE415      0.2264
    184  O        -34.9110  115.3440  -38.2980 O.2   415  PHE415     -0.2867
    185  CB       -35.8370  118.1420  -37.6030 C.3   415  PHE415      0.0534
    186  CG       -36.6570  119.0330  -36.7020 C.ar  415  PHE415     -0.0203
    187  CD1      -37.5560  118.4850  -35.7970 C.ar  415  PHE415     -0.0042
    188  CD2      -36.5480  120.4220  -36.7620 C.ar  415  PHE415     -0.0042
    189  CE1      -38.3150  119.2950  -34.9690 C.ar  415  PHE415     -0.0003
    190  CE2      -37.2960  121.2310  -35.9480 C.ar  415  PHE415     -0.0003
    191  CZ       -38.1840  120.6670  -35.0440 C.ar  415  PHE415     -0.0000
    192  N        -32.3370  112.8500  -38.4960 N.3   417  PRO417     -0.2116
    193  CA       -32.0620  111.6100  -37.7710 C.3   417  PRO417      0.1372
    194  C        -30.6070  111.1980  -37.9690 C.2   417  PRO417      0.2244
    195  O        -30.2250  110.9130  -39.0810 O.2   417  PRO417     -0.2868
    196  CB       -33.0340  110.5980  -38.4150 C.3   417  PRO417      0.0268
    197  CG       -33.2090  111.1170  -39.8070 C.3   417  PRO417      0.0207
    198  CD       -33.1560  112.6230  -39.7030 C.3   417  PRO417      0.0892
    199  N        -30.0780  107.0520  -39.6750 N.3   440  PRO440     -0.2102
    200  CA       -30.9100  105.8810  -39.3510 C.3   440  PRO440      0.1504
    201  C        -32.4050  106.1370  -39.3180 C.2   440  PRO440      0.2576
    202  O        -32.8560  107.2640  -39.4110 O.2   440  PRO440     -0.2718
    203  CB       -30.4470  105.4700  -37.9380 C.3   440  PRO440      0.0282
    204  CG       -29.3420  106.3750  -37.5710 C.3   440  PRO440      0.0208
    205  CD       -29.4090  107.5710  -38.4680 C.3   440  PRO440      0.0893
    206  N        -33.1550  105.0600  -39.1710 N.am  441  SER441     -0.1953
    207  CA       -34.5850  105.0790  -38.9800 C.3   441  SER441      0.1924
    208  C        -34.9200  104.5760  -37.5770 C.2   441  SER441      0.2314
    209  O        -34.0630  104.0510  -36.8650 O.2   441  SER441     -0.2863
    210  CB       -35.2600  104.1440  -40.0120 C.3   441  SER441      0.2116
    211  OG       -35.1790  102.7650  -39.6090 O.3   441  SER441     -0.2180
    212  N        -36.3900  108.2050  -46.3770 N.3   497  VAL497     -0.1231
    213  CA       -36.8760  108.1910  -45.0070 C.3   497  VAL497      0.1692
    214  C        -38.0430  107.1990  -44.8510 C.2   497  VAL497      0.2593
    215  O        -38.8880  107.0600  -45.7600 O.2   497  VAL497     -0.2718
    216  CB       -37.3070  109.6100  -44.5230 C.3   497  VAL497      0.0266
    217  CG1      -38.5150  110.1650  -45.2870 C.3   497  VAL497      0.0020
    218  CG2      -37.6140  109.6040  -43.0280 C.3   497  VAL497      0.0020
    219  N        -38.0370  106.4760  -43.7240 N.am  498  THR498     -0.1939
    220  CA       -39.1830  105.6900  -43.2770 C.3   498  THR498      0.2028
    221  C        -39.5490  106.0810  -41.8510 C.2   498  THR498      0.2642
    222  O        -38.6860  106.5080  -41.0490 O.2   498  THR498     -0.2714
    223  CB       -38.9210  104.1790  -43.3670 C.3   498  THR498      0.1808
    224  OG1      -37.7620  103.8290  -42.6390 O.3   498  THR498     -0.2208
    225  CG2      -38.7180  103.7660  -44.8170 C.3   498  THR498      0.0379
    226  N        -40.8350  105.9180  -41.5380 N.am  499  PHE499     -0.1959
    227  CA       -41.3960  106.3310  -40.2620 C.3   499  PHE499      0.1771
    228  C        -41.5170  105.1780  -39.2790 C.2   499  PHE499      0.2619
    229  O        -40.7730  105.1050  -38.2760 O.2   499  PHE499     -0.2715
    230  CB       -42.7230  107.0600  -40.4830 C.3   499  PHE499      0.0574
    231  CG       -42.5860  108.3060  -41.3290 C.ar  499  PHE499     -0.0200
    232  CD1      -41.6360  109.2790  -41.0300 C.ar  499  PHE499     -0.0042
    233  CD2      -43.4080  108.5100  -42.4370 C.ar  499  PHE499     -0.0042
    234  CE1      -41.4750  110.3860  -41.8580 C.ar  499  PHE499     -0.0003
    235  CE2      -43.2790  109.6410  -43.2320 C.ar  499  PHE499     -0.0003
    236  CZ       -42.2990  110.5720  -42.9660 C.ar  499  PHE499     -0.0000
    237  N        -42.4420  104.2780  -39.5490 N.am  500  HIS500     -0.1973
    238  CA       -42.7190  103.1900  -38.6480 C.3   500  HIS500      0.1656
    239  C        -42.8070  101.8560  -39.3470 C.2   500  HIS500      0.2291
    240  O        -42.8640  101.7680  -40.5870 O.2   500  HIS500     -0.2864
    241  CB       -44.0010  103.4590  -37.9090 C.3   500  HIS500      0.0771
    242  CG       -43.9850  104.7120  -37.0950 C.ar  500  HIS500      0.0820
    243  ND1      -43.2460  104.8450  -35.9370 N.ar  500  HIS500     -0.2267
    244  CD2      -44.6450  105.8770  -37.2570 C.ar  500  HIS500      0.1154
    245  CE1      -43.4640  106.0350  -35.4190 C.ar  500  HIS500      0.1986
    246  NE2      -44.3070  106.6780  -36.1990 N.ar  500  HIS500     -0.2212
@<TRIPOS>BOND
     1    12    11    2
     2    11    10    1
     3    10    13    1
     4    10     9    1
     5    13    14    1
     6     9     3   am
     7     3     4    2
     8     3     2    1
     9     1     2    1
    10    14    16   ar
    11    14    15   ar
    12     2     5    1
    13    16    18   ar
    14    15    17   ar
    15   212   213    1
    16    30    31    2
    17    30    29    1
    18   215   214    2
    19     5     6    1
    20    23    22    2
    21    20    21    1
    22   139   140    2
    23   139   138    1
    24    18    19   ar
    25    22    21    1
    26    22    28   am
    27   217   216    1
    28    21    24    1
    29    28    29    1
    30    17    19   ar
    31   213   214    1
    32   213   216    1
    33    29    32    1
    34   214   219   am
    35   225   223    1
    36     6     8    1
    37     6     7    1
    38   137   138    1
    39   216   218    1
    40   138   141    1
    41   141   142    1
    42    26    25    1
    43    24    25    1
    44   219   220    1
    45    32    33    1
    46   132   131    2
    47   223   220    1
    48   223   224    1
    49    39    40    1
    50   220   221    1
    51   143   142    1
    52    25    27    1
    53   235   236   ar
    54   235   233   ar
    55   142   144    1
    56   236   234   ar
    57   131   130    1
    58   233   231   ar
    59    33    34   ar
    60    33    35   ar
    61    34    36   ar
    62    40    41    1
    63    40    43    1
    64    45    43    1
    65   234   232   ar
    66   221   226   am
    67   221   222    2
    68   226   227    1
    69    35    37   ar
    70   130   133    1
    71   130   129    1
    72   231   232   ar
    73   231   230    1
    74    41    42    2
    75    46    47    1
    76    43    44    1
    77    36    38   ar
    78   133   134    1
    79   240   239    2
    80   230   227    1
    81    48    47    1
    82    48    49    2
    83    37    38   ar
    84   227   228    1
    85   120   119    2
    86    47    50    1
    87   210   211    1
    88   210   207    1
    89   197   198    1
    90   197   196    1
    91   198   192    1
    92   199   200    1
    93   199   205    1
    94   237   228   am
    95   237   238    1
    96   202   201    2
    97   200   201    1
    98   200   203    1
    99   239   238    1
   100   201   206   am
   101   134   136    1
   102   134   135    1
   103   228   229    2
   104    50    51    1
   105   206   207    1
   106   195   194    2
   107   207   208    1
   108   119   118    1
   109    51    52    1
   110   238   241    1
   111   192   193    1
   112   205   204    1
   113   196   193    1
   114   121   118    1
   115   121   122    1
   116   184   183    2
   117   124   122   ar
   118   124   126   ar
   119   118   117    1
   120    52    53   ar
   121    52    54   ar
   122   194   193    1
   123   203   204    1
   124   241   242    1
   125   122   123   ar
   126   126   127   ar
   127   183   182    1
   128   185   182    1
   129   185   186    1
   130   208   209    2
   131   244   242   ar
   132   244   246   ar
   133   123   125   ar
   134   242   243   ar
   135   127   125   ar
   136   127   128    1
   137   164   162   ar
   138   164   163   ar
   139   162   160   ar
   140   182   181    1
   141   188   186   ar
   142   188   190   ar
   143   113   112    2
   144   186   187   ar
   145   172   170    1
   146   117   112   am
   147   246   245   ar
   148   163   161   ar
   149   112   111    1
   150   171   170    1
   151   190   191   ar
   152   243   245   ar
   153   160   159   ar
   154   187   189   ar
   155    73    71   ar
   156    73    74   ar
   157   180   178    1
   158   170   169    1
   159    71    70   ar
   160   161   159   ar
   161   191   189   ar
   162   159   158    1
   163    74    72   ar
   164    55    56    1
   165   111   110    1
   166   111   114    1
   167   179   178    1
   168    64    63   ar
   169    64    62   ar
   170   178   177    1
   171   115   114    1
   172    63    61   ar
   173   169   166    1
   174   177   174    1
   175   174   175    1
   176   174   173    1
   177    62    60   ar
   178   158   155    1
   179    70    72   ar
   180    70    69    1
   181    61    60   ar
   182   114   116    1
   183    56    57    1
   184    56    59    1
   185    83    81   ar
   186    83    85   ar
   187   175   176    2
   188    95    94   ar
   189    95    93   ar
   190    60    59    1
   191    94    92   ar
   192    81    80   ar
   193    85    84   ar
   194   166   167    1
   195   166   165    1
   196    68    67    2
   197    66    69    1
   198    66    67    1
   199    66    65    1
   200    57    58    2
   201    80    82   ar
   202    80    79    1
   203   167   168    2
   204   155   154    1
   205   155   156    1
   206    84    82   ar
   207    93    91   ar
   208    79    76    1
   209   109   107   ar
   210   109   108   ar
   211    92    91   ar
   212   154   147   am
   213   157   156    2
   214   149   150    1
   215   149   146    1
   216   107   105   ar
   217   153   151   ar
   218   108   106   ar
   219   150   151    1
   220   147   148    2
   221   147   146    1
   222    91    90    1
   223   151   152   ar
   224   105   104   ar
   225   105   103   ar
   226    76    77    1
   227    76    75    1
   228   146   145    1
   229   104   102   ar
   230   106   103   ar
   231    78    77    2
   232   103   101   ar
   233    77    86   am
   234   102   101   ar
   235    90    87    1
   236    86    87    1
   237   101   100    1
   238    87    88    1
   239   100    97    1
   240    88    89    2
   241    97    96    1
   242    97    98    1
   243    98    99    2
