@<TRIPOS>MOLECULE
tmp/5uliA00.pdb
 246 232 0 0 0
SMALL
GASTEIGER

@<TRIPOS>ATOM
      1  N        -13.6200    7.0080   70.1300 N.3    28  LEU28      -0.1245
      2  CA       -12.7720    7.9700   69.4540 C.3    28  LEU28       0.1561
      3  C        -12.6470    9.1360   70.4080 C.2    28  LEU28       0.2260
      4  O        -13.6670    9.6060   70.9080 O.2    28  LEU28      -0.2867
      5  CB       -13.3690    8.4050   68.1080 C.3    28  LEU28       0.0270
      6  CG       -13.7330    7.2090   67.2120 C.3    28  LEU28       0.0019
      7  CD1      -14.4660    7.6500   65.9540 C.3    28  LEU28       0.0001
      8  CD2      -12.4890    6.4190   66.8530 C.3    28  LEU28       0.0001
      9  N         -9.9310   12.6190   67.7400 N.3    32  ARG32      -0.1245
     10  CA       -10.3690   11.6100   66.7720 C.3    32  ARG32       0.1563
     11  C         -9.3960   10.4200   66.7000 C.2    32  ARG32       0.2260
     12  O         -9.3140    9.7340   65.6850 O.2    32  ARG32      -0.2867
     13  CB       -10.5680   12.2430   65.3950 C.3    32  ARG32       0.0307
     14  CG       -11.6030   11.5390   64.4870 C.3    32  ARG32       0.0489
     15  CD       -13.0330   11.5200   65.0590 C.3    32  ARG32       0.2205
     16  NE       -13.9480   10.8690   64.1160 N.pl3  32  ARG32      -0.0865
     17  CZ       -15.2110   10.5280   64.3660 C.cat  32  ARG32       0.5346
     18  NH1      -15.7730   10.7530   65.5550 N.pl3  32  ARG32       0.1354
     19  NH2      -15.9170    9.9550   63.4080 N.pl3  32  ARG32       0.1354
     20  N        -16.2190   18.1190   64.4660 N.3    69  ARG69      -0.1245
     21  CA       -15.4720   17.1600   63.6760 C.3    69  ARG69       0.1563
     22  C        -15.1640   17.7440   62.3070 C.2    69  ARG69       0.2260
     23  O        -16.0030   18.4060   61.7000 O.2    69  ARG69      -0.2867
     24  CB       -16.2820   15.8750   63.5380 C.3    69  ARG69       0.0307
     25  CG       -15.5450   14.7230   62.9430 C.3    69  ARG69       0.0489
     26  CD       -16.5620   13.7060   62.4250 C.3    69  ARG69       0.2205
     27  NE       -17.3800   13.1710   63.5170 N.pl3  69  ARG69      -0.0865
     28  CZ       -18.4010   12.3320   63.3520 C.cat  69  ARG69       0.5346
     29  NH1      -18.7480   11.9510   62.1220 N.pl3  69  ARG69       0.1354
     30  NH2      -19.0730   11.8740   64.4140 N.pl3  69  ARG69       0.1354
     31  N        -15.2990   17.4190   58.8450 N.3    71  GLU71      -0.1245
     32  CA       -16.0720   16.6030   57.9150 C.3    71  GLU71       0.1567
     33  C        -15.4210   16.4170   56.5540 C.2    71  GLU71       0.2260
     34  O        -15.9620   15.7220   55.7040 O.2    71  GLU71      -0.2867
     35  CB       -17.4420   17.2120   57.7050 C.3    71  GLU71       0.0388
     36  CG       -18.3840   17.0500   58.8750 C.3    71  GLU71       0.1160
     37  CD       -19.7540   17.5690   58.5160 C.2    71  GLU71       0.3649
     38  OE1      -19.8090   18.7350   58.0710 O.co2  71  GLU71      -0.2457
     39  OE2      -20.7500   16.8120   58.6210 O.co2  71  GLU71      -0.2457
     40  N        -13.2810    9.0420   56.5590 N.3    75  GLU75      -0.1231
     41  CA       -12.8590    7.9290   57.3980 C.3    75  GLU75       0.1699
     42  C        -13.3280    6.6000   56.8180 C.2    75  GLU75       0.2592
     43  O        -12.7290    5.5750   57.0690 O.2    75  GLU75      -0.2718
     44  CB       -13.4030    8.1140   58.8210 C.3    75  GLU75       0.0402
     45  CG       -12.9240    9.4260   59.4560 C.3    75  GLU75       0.1161
     46  CD       -13.4550    9.6360   60.8800 C.2    75  GLU75       0.3649
     47  OE1      -14.6180    9.2670   61.1390 O.co2  75  GLU75      -0.2457
     48  OE2      -12.6970   10.1330   61.7320 O.co2  75  GLU75      -0.2457
     49  N        -14.4230    6.6370   56.0620 N.am   76  ARG76      -0.1980
     50  CA       -14.9900    5.4430   55.4710 C.3    76  ARG76       0.1597
     51  C        -15.1690    4.3760   56.5600 C.2    76  ARG76       0.2287
     52  O        -15.7710    4.6960   57.6070 O.2    76  ARG76      -0.2864
     53  CB       -14.1230    5.0030   54.2910 C.3    76  ARG76       0.0334
     54  CG       -14.4340    5.9600   53.1710 C.3    76  ARG76       0.0492
     55  CD       -13.7540    5.6970   51.9000 C.3    76  ARG76       0.2205
     56  NE       -12.3560    6.0710   51.9350 N.pl3  76  ARG76      -0.0865
     57  CZ       -11.5900    6.1040   50.8400 C.cat  76  ARG76       0.5346
     58  NH1      -12.1090    5.7970   49.6390 N.pl3  76  ARG76       0.1354
     59  NH2      -10.3160    6.4590   50.9370 N.pl3  76  ARG76       0.1354
     60  N        -12.2580    2.9380   61.0480 N.3    79  HIS79      -0.1241
     61  CA       -12.3550    2.6210   62.4900 C.3    79  HIS79       0.1621
     62  C        -12.9130    1.2470   62.7560 C.2    79  HIS79       0.2264
     63  O        -12.3920    0.4970   63.6060 O.2    79  HIS79      -0.2867
     64  CB       -13.2090    3.6620   63.2330 C.3    79  HIS79       0.0745
     65  CG       -12.6010    5.0210   63.2140 C.ar   79  HIS79       0.0817
     66  ND1      -11.2380    5.2040   63.2960 N.ar   79  HIS79      -0.2268
     67  CD2      -13.1450    6.2460   63.0530 C.ar   79  HIS79       0.1154
     68  CE1      -10.9680    6.4960   63.2060 C.ar   79  HIS79       0.1986
     69  NE2      -12.1040    7.1470   63.0600 N.ar   79  HIS79      -0.2212
     70  N        -21.3710    0.2410   58.4850 N.3   105  TRP105     -0.1227
     71  CA       -21.8310    1.0750   59.5890 C.3   105  TRP105      0.1737
     72  C        -23.3380    0.9610   59.7540 C.2   105  TRP105      0.2595
     73  O        -24.0660    0.8380   58.7670 O.2   105  TRP105     -0.2718
     74  CB       -21.4800    2.5610   59.3460 C.3   105  TRP105      0.0564
     75  CG       -20.0550    2.9160   59.4280 C.ar  105  TRP105      0.0003
     76  CD1      -19.2780    3.4280   58.4160 C.ar  105  TRP105      0.0946
     77  CD2      -19.2020    2.8350   60.5820 C.ar  105  TRP105      0.0152
     78  NE1      -18.0120    3.6670   58.8710 N.ar  105  TRP105     -0.2442
     79  CE2      -17.9320    3.3110   60.1930 C.ar  105  TRP105      0.0810
     80  CE3      -19.3860    2.4110   61.8960 C.ar  105  TRP105      0.0012
     81  CZ2      -16.8610    3.3850   61.0740 C.ar  105  TRP105      0.0191
     82  CZ3      -18.3190    2.4960   62.7780 C.ar  105  TRP105      0.0001
     83  CH2      -17.0720    2.9810   62.3650 C.ar  105  TRP105      0.0015
     84  N        -23.8150    1.0150   60.9960 N.am  106  ARG106     -0.1966
     85  CA       -25.2460    1.0090   61.2540 C.3   106  ARG106      0.1729
     86  C        -25.9720    2.0400   60.3730 C.2   106  ARG106      0.2617
     87  O        -26.9990    1.7450   59.7680 O.2   106  ARG106     -0.2715
     88  CB       -25.5140    1.2820   62.7420 C.3   106  ARG106      0.0348
     89  CG       -27.0010    1.2210   63.1520 C.3   106  ARG106      0.0492
     90  CD       -27.6430    2.5960   63.0200 C.3   106  ARG106      0.2205
     91  NE       -26.8500    3.5830   63.7370 N.pl3 106  ARG106     -0.0865
     92  CZ       -26.8530    3.7430   65.0650 C.cat 106  ARG106      0.5346
     93  NH1      -27.6630    3.0150   65.8510 N.pl3 106  ARG106      0.1354
     94  NH2      -26.0410    4.6520   65.6240 N.pl3 106  ARG106      0.1354
     95  N        -25.4340    3.2500   60.2890 N.am  107  GLY107     -0.1940
     96  CA       -26.0890    4.2910   59.5320 C.3   107  GLY107      0.2014
     97  C        -26.2610    3.9630   58.0480 C.2   107  GLY107      0.2638
     98  O        -27.2170    4.4160   57.4310 O.2   107  GLY107     -0.2714
     99  N        -25.3570    3.1960   57.4550 N.am  108  HIS108     -0.1973
    100  CA       -25.5790    2.7970   56.0610 C.3   108  HIS108      0.1656
    101  C        -26.7870    1.8740   55.9880 C.2   108  HIS108      0.2291
    102  O        -27.5900    1.9660   55.0740 O.2   108  HIS108     -0.2864
    103  CB       -24.3570    2.0880   55.4290 C.3   108  HIS108      0.0771
    104  CG       -23.0700    2.8490   55.5210 C.ar  108  HIS108      0.0820
    105  ND1      -22.9700    4.0990   56.0860 N.ar  108  HIS108     -0.2267
    106  CD2      -21.8100    2.5230   55.1300 C.ar  108  HIS108      0.1154
    107  CE1      -21.7200    4.5180   56.0310 C.ar  108  HIS108      0.1986
    108  NE2      -20.9900    3.5800   55.4460 N.ar  108  HIS108     -0.2212
    109  N        -29.3170    1.8920   58.0130 N.3   110  THR110     -0.1203
    110  CA       -30.4700    2.7850   58.2830 C.3   110  THR110      0.1994
    111  C        -30.9930    3.4160   56.9890 C.2   110  THR110      0.2617
    112  O        -32.2100    3.4590   56.7340 O.2   110  THR110     -0.2717
    113  CB       -30.0900    3.9040   59.2780 C.3   110  THR110      0.1784
    114  OG1      -29.7250    3.3140   60.5310 O.3   110  THR110     -0.2211
    115  CG2      -31.2550    4.9020   59.5160 C.3   110  THR110      0.0376
    116  N        -30.0650    3.8820   56.1550 N.am  111  LYS111     -0.1979
    117  CA       -30.4430    4.4500   54.8830 C.3   111  LYS111      0.1596
    118  C        -31.0840    3.4220   53.9370 C.2   111  LYS111      0.2287
    119  O        -31.9720    3.7750   53.1550 O.2   111  LYS111     -0.2864
    120  CB       -29.2270    5.0980   54.2000 C.3   111  LYS111      0.0298
    121  CG       -28.7550    6.3550   54.9050 C.3   111  LYS111      0.0038
    122  CD       -27.8090    7.1990   54.0510 C.3   111  LYS111      0.0206
    123  CE       -27.5470    8.5390   54.7560 C.3   111  LYS111      0.1093
    124  NZ       -26.9130    9.5430   53.8330 N.3   111  LYS111     -0.1314
    125  N        -20.3680    3.9760   52.4960 N.3   138  GLU138     -0.1245
    126  CA       -21.0610    5.0560   51.8140 C.3   138  GLU138      0.1567
    127  C        -20.1360    6.0160   51.0630 C.2   138  GLU138      0.2260
    128  O        -19.0390    6.3560   51.5190 O.2   138  GLU138     -0.2867
    129  CB       -21.8990    5.8670   52.8080 C.3   138  GLU138      0.0388
    130  CG       -22.7590    6.9190   52.0860 C.3   138  GLU138      0.1160
    131  CD       -23.8670    7.4880   52.9720 C.2   138  GLU138      0.3649
    132  OE1      -23.7070    7.4340   54.2020 O.co2 138  GLU138     -0.2457
    133  OE2      -24.8810    7.9840   52.4340 O.co2 138  GLU138     -0.2457
    134  N        -20.2140    9.8460   49.5650 N.3   140  GLU140     -0.1245
    135  CA       -20.9620   11.1030   49.5350 C.3   140  GLU140      0.1567
    136  C        -21.3590   11.5030   48.1110 C.2   140  GLU140      0.2260
    137  O        -20.5280   11.6200   47.2340 O.2   140  GLU140     -0.2867
    138  CB       -20.1520   12.2310   50.1630 C.3   140  GLU140      0.0388
    139  CG       -21.0000   13.5030   50.3420 C.3   140  GLU140      0.1160
    140  CD       -20.2870   14.5960   51.1210 C.2   140  GLU140      0.3649
    141  OE1      -19.1770   14.9930   50.7050 O.co2 140  GLU140     -0.2457
    142  OE2      -20.8430   15.0530   52.1420 O.co2 140  GLU140     -0.2457
    143  N        -27.4780   21.1010   64.6390 N.3   159  MET159     -0.1245
    144  CA       -26.5960   19.9730   64.8730 C.3   159  MET159      0.1570
    145  C        -25.8650   20.0950   66.1960 C.2   159  MET159      0.2261
    146  O        -25.7170   19.1170   66.9210 O.2   159  MET159     -0.2867
    147  CB       -25.5910   19.8470   63.7370 C.3   159  MET159      0.0387
    148  CG       -26.2550   19.5190   62.4310 C.3   159  MET159      0.0595
    149  SD       -25.0190   19.5490   61.1190 S.3   159  MET159     -0.1393
    150  CE       -26.0690   19.1660   59.7200 C.3   159  MET159      0.0692
    151  N        -26.2190   17.7340   70.0180 N.3   163  TYR163     -0.1241
    152  CA       -25.1110   17.2730   70.8450 C.3   163  TYR163      0.1605
    153  C        -25.1470   17.8940   72.2420 C.2   163  TYR163      0.2264
    154  O        -24.8080   17.2620   73.2420 O.2   163  TYR163     -0.2867
    155  CB       -23.7810   17.6140   70.1790 C.3   163  TYR163      0.0534
    156  CG       -23.3030   16.5870   69.2060 C.ar  163  TYR163     -0.0201
    157  CD1      -22.5620   15.4850   69.6580 C.ar  163  TYR163     -0.0009
    158  CD2      -23.5740   16.7010   67.8410 C.ar  163  TYR163     -0.0009
    159  CE1      -22.0850   14.5240   68.7720 C.ar  163  TYR163      0.0417
    160  CE2      -23.0910   15.7340   66.9280 C.ar  163  TYR163      0.0417
    161  CZ       -22.3460   14.6500   67.4180 C.ar  163  TYR163      0.1957
    162  OH       -21.8550   13.6670   66.5910 O.3   163  TYR163     -0.2866
    163  N        -27.4230   16.0660   74.6010 N.3   166  GLU166     -0.1245
    164  CA       -26.7540   14.9170   75.2300 C.3   166  GLU166      0.1567
    165  C        -25.9100   15.2870   76.4400 C.2   166  GLU166      0.2260
    166  O        -25.8250   14.5470   77.4210 O.2   166  GLU166     -0.2867
    167  CB       -25.8450   14.1950   74.2320 C.3   166  GLU166      0.0388
    168  CG       -26.5750   13.6610   73.0320 C.3   166  GLU166      0.1160
    169  CD       -25.6130   13.0510   72.0140 C.2   166  GLU166      0.3649
    170  OE1      -24.3950   12.9440   72.3090 O.co2 166  GLU166     -0.2457
    171  OE2      -26.0860   12.6870   70.9230 O.co2 166  GLU166     -0.2457
    172  N        -17.3750   17.0000   68.8920 N.3   186  THR186     -0.1218
    173  CA       -17.9990   15.9300   68.1350 C.3   186  THR186      0.1862
    174  C        -16.9850   14.9810   67.4790 C.2   186  THR186      0.2287
    175  O        -17.3550   14.1070   66.6860 O.2   186  THR186     -0.2866
    176  CB       -18.9360   16.4870   67.0580 C.3   186  THR186      0.1770
    177  OG1      -18.2000   17.3550   66.1900 O.3   186  THR186     -0.2211
    178  CG2      -20.1130   17.2480   67.6990 C.3   186  THR186      0.0375
    179  N        -18.6840    3.8120   70.2110 N.3   191  CYS191     -0.1235
    180  CA       -19.3220    2.9300   69.2220 C.3   191  CYS191      0.1677
    181  C        -19.4790    1.4790   69.7020 C.2   191  CYS191      0.2270
    182  O        -18.5430    0.8820   70.2100 O.2   191  CYS191     -0.2867
    183  CB       -18.5160    2.9020   67.9110 C.3   191  CYS191      0.0956
    184  SG       -18.5350    4.4660   67.0260 S.3   191  CYS191     -0.0801
    185  N        -21.2860   -1.5000   63.2250 N.3   206  SER206     -0.1202
    186  CA       -21.0360   -0.7150   64.4080 C.3   206  SER206      0.2020
    187  C        -21.8740    0.5530   64.3140 C.2   206  SER206      0.2619
    188  O        -22.1660    1.0110   63.2100 O.2   206  SER206     -0.2717
    189  CB       -19.5500   -0.4110   64.5140 C.3   206  SER206      0.2103
    190  OG       -19.2780    0.4370   65.5910 O.3   206  SER206     -0.2182
    191  N        -22.3020    1.0920   65.4560 N.am  207  GLY207     -0.1942
    192  CA       -23.0520    2.3390   65.4710 C.3   207  GLY207      0.2014
    193  C        -22.6490    3.1550   66.6810 C.2   207  GLY207      0.2638
    194  O        -22.3290    2.5820   67.7340 O.2   207  GLY207     -0.2714
    195  N        -22.6260    4.4750   66.5390 N.am  208  GLU208     -0.1977
    196  CA       -22.4800    5.3410   67.7090 C.3   208  GLU208      0.1602
    197  C        -23.6490    5.1250   68.6770 C.2   208  GLU208      0.2287
    198  O        -24.7890    4.9630   68.2660 O.2   208  GLU208     -0.2864
    199  CB       -22.4060    6.8330   67.3230 C.3   208  GLU208      0.0415
    200  CG       -21.1570    7.1840   66.4700 C.3   208  GLU208      0.1163
    201  CD       -20.8990    8.6820   66.4030 C.2   208  GLU208      0.3649
    202  OE1      -21.5200    9.4130   67.2190 O.co2 208  GLU208     -0.2457
    203  OE2      -20.0880    9.1250   65.5480 O.co2 208  GLU208     -0.2457
    204  N        -25.3020    6.7130   72.3610 N.3   210  ASP210     -0.1239
    205  CA       -25.2340    7.9390   73.1390 C.3   210  ASP210      0.1674
    206  C        -24.8620    7.7210   74.6000 C.2   210  ASP210      0.2266
    207  O        -24.0530    8.4700   75.1510 O.2   210  ASP210     -0.2867
    208  CB       -26.5630    8.7000   73.0270 C.3   210  ASP210      0.1410
    209  CG       -26.7830    9.2860   71.6240 C.2   210  ASP210      0.3668
    210  OD1      -25.7770    9.5780   70.9400 O.co2 210  ASP210     -0.2456
    211  OD2      -27.9550    9.4210   71.1860 O.co2 210  ASP210     -0.2456
    212  N        -30.8530    6.0360   73.2260 N.3   227  GLU227     -0.1231
    213  CA       -30.6000    7.0180   72.1490 C.3   227  GLU227      0.1699
    214  C        -31.2550    8.3720   72.4970 C.2   227  GLU227      0.2592
    215  O        -32.4330    8.4100   72.8550 O.2   227  GLU227     -0.2718
    216  CB       -31.1400    6.4620   70.8220 C.3   227  GLU227      0.0402
    217  CG       -31.0900    7.3840   69.6510 C.3   227  GLU227      0.1161
    218  CD       -29.6740    7.6430   69.1770 C.2   227  GLU227      0.3649
    219  OE1      -28.8090    6.7120   69.2350 O.co2 227  GLU227     -0.2457
    220  OE2      -29.4370    8.8000   68.7680 O.co2 227  GLU227     -0.2457
    221  N        -30.4830    9.4610   72.4180 N.am  228  LEU228     -0.1966
    222  CA       -30.9790   10.8060   72.7090 C.3   228  LEU228      0.1728
    223  C        -31.2510   11.5930   71.4150 C.2   228  LEU228      0.2616
    224  O        -30.4470   11.5920   70.5020 O.2   228  LEU228     -0.2715
    225  CB       -29.9690   11.5480   73.5950 C.3   228  LEU228      0.0311
    226  CG       -29.6750   10.7830   74.8900 C.3   228  LEU228      0.0022
    227  CD1      -28.5900   11.4150   75.6880 C.3   228  LEU228      0.0001
    228  CD2      -30.9110   10.6580   75.7490 C.3   228  LEU228      0.0001
    229  N        -32.4050   12.2420   71.3370 N.am  229  LYS229     -0.1977
    230  CA       -32.8340   12.9570   70.1330 C.3   229  LYS229      0.1596
    231  C        -33.4030   14.2880   70.5620 C.2   229  LYS229      0.2287
    232  O        -33.8820   14.4180   71.7040 O.2   229  LYS229     -0.2864
    233  CB       -33.9220   12.2000   69.3510 C.3   229  LYS229      0.0298
    234  CG       -33.5190   10.9080   68.6730 C.3   229  LYS229      0.0038
    235  CD       -32.4420   11.1640   67.6100 C.3   229  LYS229      0.0206
    236  CE       -32.1870    9.8870   66.8020 C.3   229  LYS229      0.1093
    237  NZ       -30.9580   10.0040   65.9670 N.3   229  LYS229     -0.1314
    238  N        -32.8540    3.5160   62.8680 N.3   254  GLN254     -0.1245
    239  CA       -31.5680    3.6660   63.5070 C.3   254  GLN254      0.1566
    240  C        -31.4170    2.8590   64.8230 C.2   254  GLN254      0.2260
    241  O        -30.3700    2.2320   65.0550 O.2   254  GLN254     -0.2867
    242  CB       -31.3000    5.1440   63.7740 C.3   254  GLN254      0.0367
    243  CG       -30.0130    5.3910   64.5030 C.3   254  GLN254      0.0905
    244  CD       -29.8710    6.8450   64.9210 C.2   254  GLN254      0.2608
    245  OE1      -30.7500    7.3940   65.6040 O.2   254  GLN254     -0.2717
    246  NE2      -28.7710    7.4750   64.5170 N.am  254  GLN254     -0.0878
@<TRIPOS>BOND
     1   137   136    2
     2   136   135    1
     3   135   134    1
     4   135   138    1
     5    58    57    1
     6   138   139    1
     7   139   140    1
     8   141   140   ar
     9    57    59    1
    10    57    56    2
    11   127   128    2
    12   127   126    1
    13   140   142   ar
    14   126   125    1
    15   126   129    1
    16    55    56    1
    17    55    54    1
    18   130   129    1
    19   130   131    1
    20   133   131   ar
    21   131   132   ar
    22   119   118    2
    23    54    53    1
    24   124   123    1
    25   118   117    1
    26   122   123    1
    27   122   121    1
    28   120   117    1
    29   120   121    1
    30    53    50    1
    31   117   116    1
    32   102   101    2
    33   106   108   ar
    34   106   104   ar
    35   103   104    1
    36   103   100    1
    37   108   107   ar
    38    50    49    1
    39    50    51    1
    40   104   105   ar
    41    34    33    2
    42   101   100    1
    43   107   105   ar
    44   100    99    1
    45    49    42   am
    46   116   111   am
    47    33    32    1
    48    40    41    1
    49    51    52    2
    50   112   111    2
    51    42    43    2
    52    42    41    1
    53   111   110    1
    54    41    44    1
    55    98    97    2
    56    99    97   am
    57    35    32    1
    58    35    36    1
    59    32    31    1
    60   109   110    1
    61    97    96    1
    62    38    37   ar
    63   110   113    1
    64    76    78   ar
    65    76    75   ar
    66    70    71    1
    67    37    39   ar
    68    37    36    1
    69    73    72    2
    70    44    45    1
    71    78    79   ar
    72   113   115    1
    73   113   114    1
    74    74    75    1
    75    74    71    1
    76    75    77   ar
    77    45    46    1
    78    96    95    1
    79    71    72    1
    80   150   149    1
    81    72    84   am
    82    87    86    2
    83    79    77   ar
    84    79    81   ar
    85    95    86   am
    86    86    85    1
    87    77    80   ar
    88    46    47   ar
    89    46    48   ar
    90    84    85    1
    91    60    61    1
    92    81    83   ar
    93   149   148    1
    94    85    88    1
    95    23    22    2
    96    80    82   ar
    97    29    28    1
    98    22    21    1
    99    83    82   ar
   100    26    25    1
   101    26    27    1
   102   148   147    1
   103    61    62    1
   104    61    64    1
   105    88    89    1
   106    62    63    2
   107   238   239    1
   108    25    24    1
   109    90    89    1
   110    90    91    1
   111    67    69   ar
   112    67    65   ar
   113    69    68   ar
   114    68    66   ar
   115   188   187    2
   116    65    64    1
   117    65    66   ar
   118   185   186    1
   119    28    27    2
   120    28    30    1
   121    19    17    1
   122   239   242    1
   123   239   240    1
   124    24    21    1
   125    21    20    1
   126   147   144    1
   127    91    92    2
   128   242   243    1
   129    16    17    2
   130    16    15    1
   131   187   186    1
   132   187   191   am
   133    17    18    1
   134   186   189    1
   135    14    15    1
   136    14    13    1
   137   243   244    1
   138   189   190    1
   139   246   244   am
   140   143   144    1
   141   240   241    2
   142   144   145    1
   143   244   245    2
   144    92    94    1
   145    92    93    1
   146    13    10    1
   147   191   192    1
   148   192   193    1
   149   203   201   ar
   150    12    11    2
   151     7     6    1
   152   237   236    1
   153   177   176    1
   154   145   146    2
   155   201   200    1
   156   201   202   ar
   157   200   199    1
   158   195   193   am
   159   195   196    1
   160   162   161    1
   161   193   194    2
   162   175   174    2
   163    11    10    1
   164    10     9    1
   165   236   235    1
   166     8     6    1
   167   160   161   ar
   168   160   158   ar
   169   184   183    1
   170   176   178    1
   171   176   173    1
   172     6     5    1
   173   199   196    1
   174   161   159   ar
   175   174   173    1
   176   235   234    1
   177   196   197    1
   178   158   156   ar
   179   183   180    1
   180     5     2    1
   181   173   172    1
   182   198   197    2
   183   234   233    1
   184   220   218   ar
   185   159   157   ar
   186   218   219   ar
   187   218   217    1
   188   156   157   ar
   189   156   155    1
   190   180   181    1
   191   180   179    1
   192   233   230    1
   193     2     1    1
   194     2     3    1
   195   217   216    1
   196   181   182    2
   197   151   152    1
   198   230   231    1
   199   230   229    1
   200   155   152    1
   201     3     4    2
   202   224   223    2
   203   231   232    2
   204   216   213    1
   205   152   153    1
   206   171   169   ar
   207   210   209   ar
   208   211   209   ar
   209   229   223   am
   210   223   222    1
   211   209   208    1
   212   169   170   ar
   213   169   168    1
   214   213   214    1
   215   213   212    1
   216   153   154    2
   217   204   205    1
   218   221   214   am
   219   221   222    1
   220   214   215    2
   221   222   225    1
   222   208   205    1
   223   168   167    1
   224   205   206    1
   225   225   226    1
   226   167   164    1
   227   206   207    2
   228   163   164    1
   229   226   227    1
   230   226   228    1
   231   164   165    1
   232   165   166    2
