@<TRIPOS>MOLECULE
tmp/5uljA00.pdb
 157 147 0 0 0
SMALL
GASTEIGER

@<TRIPOS>ATOM
      1  N        -36.6380   24.3200  -41.8220 N.3    75  ASN75      -0.1225
      2  CA       -35.2670   24.2100  -41.3310 C.3    75  ASN75       0.1785
      3  C        -34.2000   24.6570  -42.3320 C.2    75  ASN75       0.2597
      4  O        -33.2900   23.8940  -42.6590 O.2    75  ASN75      -0.2718
      5  CB       -34.9870   22.7710  -40.8940 C.3    75  ASN75       0.1169
      6  CG       -33.8950   22.6850  -39.8470 C.2    75  ASN75       0.2627
      7  OD1      -33.4550   23.7010  -39.3090 O.2    75  ASN75      -0.2716
      8  ND2      -33.4570   21.4680  -39.5470 N.am   75  ASN75      -0.0877
      9  N        -34.3200   25.8990  -42.7980 N.am   76  MET76      -0.1979
     10  CA       -33.3290   26.5240  -43.6780 C.3    76  MET76       0.1605
     11  C        -32.9630   25.6690  -44.8890 C.2    76  MET76       0.2287
     12  O        -31.7850   25.5020  -45.2060 O.2    76  MET76      -0.2864
     13  CB       -32.0590   26.8590  -42.8910 C.3    76  MET76       0.0413
     14  CG       -32.2340   27.9490  -41.8480 C.3    76  MET76       0.0598
     15  SD       -30.7250   28.2420  -40.9030 S.3    76  MET76      -0.1393
     16  CE       -29.5770   28.6560  -42.2130 C.3    76  MET76       0.0692
     17  N        -23.3060   25.8330  -48.1470 N.3   106  TYR106     -0.1227
     18  CA       -23.3370   25.3500  -46.7700 C.3   106  TYR106      0.1736
     19  C        -22.2330   24.3310  -46.5130 C.2   106  TYR106      0.2595
     20  O        -21.8410   23.5860  -47.4110 O.2   106  TYR106     -0.2718
     21  CB       -24.6940   24.7240  -46.4450 C.3   106  TYR106      0.0548
     22  CG       -25.8400   25.7040  -46.3830 C.ar  106  TYR106     -0.0200
     23  CD1      -26.0500   26.4850  -45.2550 C.ar  106  TYR106     -0.0009
     24  CD2      -26.7210   25.8380  -47.4480 C.ar  106  TYR106     -0.0009
     25  CE1      -27.1020   27.3800  -45.1910 C.ar  106  TYR106      0.0417
     26  CE2      -27.7750   26.7290  -47.3940 C.ar  106  TYR106      0.0417
     27  CZ       -27.9610   27.4970  -46.2630 C.ar  106  TYR106      0.1957
     28  OH       -29.0100   28.3850  -46.2060 O.3   106  TYR106     -0.2866
     29  N        -21.7460   24.3000  -45.2760 N.am  107  ARG107     -0.1966
     30  CA       -20.7040   23.3640  -44.8690 C.3   107  ARG107      0.1729
     31  C        -21.1390   21.9140  -45.0630 C.2   107  ARG107      0.2616
     32  O        -20.3800   21.0960  -45.5830 O.2   107  ARG107     -0.2715
     33  CB       -20.3220   23.6100  -43.4030 C.3   107  ARG107      0.0348
     34  CG       -19.1810   22.7470  -42.8690 C.3   107  ARG107      0.0492
     35  CD       -19.6860   21.4740  -42.1930 C.3   107  ARG107      0.2205
     36  NE       -20.8060   21.7310  -41.2910 N.pl3 107  ARG107     -0.0865
     37  CZ       -20.6760   22.0980  -40.0200 C.cat 107  ARG107      0.5346
     38  NH1      -19.4700   22.2530  -39.4920 N.pl3 107  ARG107      0.1354
     39  NH2      -21.7530   22.3060  -39.2760 N.pl3 107  ARG107      0.1354
     40  N        -22.3600   21.6060  -44.6340 N.am  108  GLY108     -0.1955
     41  CA       -22.8740   20.2480  -44.6700 C.3   108  GLY108      0.1869
     42  C        -22.9190   19.6480  -46.0610 C.2   108  GLY108      0.2309
     43  O        -22.7420   18.4430  -46.2350 O.2   108  GLY108     -0.2863
     44  N        -19.4430   18.6730  -46.9110 N.3   111  THR111     -0.1218
     45  CA       -19.1160   17.4840  -46.1320 C.3   111  THR111      0.1862
     46  C        -19.5790   16.2340  -46.8750 C.2   111  THR111      0.2287
     47  O        -18.8970   15.2080  -46.8730 O.2   111  THR111     -0.2866
     48  CB       -19.7600   17.5270  -44.7300 C.3   111  THR111      0.1770
     49  OG1      -19.2420   18.6440  -43.9980 O.3   111  THR111     -0.2211
     50  CG2      -19.4590   16.2500  -43.9590 C.3   111  THR111      0.0375
     51  N        -29.3200   16.0280  -28.8530 N.3   175  TYR175     -0.1241
     52  CA       -29.6960   17.3660  -28.4170 C.3   175  TYR175      0.1605
     53  C        -29.7460   17.4510  -26.8960 C.2   175  TYR175      0.2264
     54  O        -29.4580   18.4970  -26.3160 O.2   175  TYR175     -0.2867
     55  CB       -31.0430   17.7680  -29.0190 C.3   175  TYR175      0.0534
     56  CG       -31.0180   17.8760  -30.5260 C.ar  175  TYR175     -0.0201
     57  CD1      -30.4340   18.9700  -31.1520 C.ar  175  TYR175     -0.0009
     58  CD2      -31.5740   16.8840  -31.3230 C.ar  175  TYR175     -0.0009
     59  CE1      -30.4050   19.0740  -32.5300 C.ar  175  TYR175      0.0417
     60  CE2      -31.5500   16.9790  -32.7030 C.ar  175  TYR175      0.0417
     61  CZ       -30.9650   18.0770  -33.3010 C.ar  175  TYR175      0.1957
     62  OH       -30.9400   18.1770  -34.6730 O.3   175  TYR175     -0.2866
     63  N        -26.1660   17.9770  -25.6550 N.3   178  GLU178     -0.1245
     64  CA       -25.7600   19.3630  -25.8500 C.3   178  GLU178      0.1567
     65  C        -26.3600   20.2690  -24.7800 C.2   178  GLU178      0.2260
     66  O        -25.7340   21.2370  -24.3520 O.2   178  GLU178     -0.2867
     67  CB       -26.1670   19.8500  -27.2410 C.3   178  GLU178      0.0388
     68  CG       -25.4680   19.1220  -28.3750 C.3   178  GLU178      0.1160
     69  CD       -25.9010   19.6190  -29.7380 C.2   178  GLU178      0.3649
     70  OE1      -26.8480   20.4310  -29.8020 O.co2 178  GLU178     -0.2457
     71  OE2      -25.2950   19.1970  -30.7460 O.co2 178  GLU178     -0.2457
     72  N        -34.2320   21.5650  -31.1600 N.3   199  ASN199     -0.1240
     73  CA       -33.3910   21.6750  -32.3440 C.3   199  ASN199      0.1653
     74  C        -33.6990   22.9640  -33.1010 C.2   199  ASN199      0.2266
     75  O        -33.4480   23.0700  -34.3010 O.2   199  ASN199     -0.2867
     76  CB       -33.5630   20.4540  -33.2540 C.3   199  ASN199      0.1155
     77  CG       -34.9560   20.3500  -33.8440 C.2   199  ASN199      0.2627
     78  OD1      -35.9070   20.9410  -33.3350 O.2   199  ASN199     -0.2716
     79  ND2      -35.0810   19.5890  -34.9250 N.am  199  ASN199     -0.0877
     80  N        -29.8160   27.3610  -33.4700 N.3   202  GLN202     -0.1245
     81  CA       -28.7630   27.1010  -34.4420 C.3   202  GLN202      0.1566
     82  C        -27.8450   28.3090  -34.5730 C.2   202  GLN202      0.2260
     83  O        -28.2610   29.3620  -35.0530 O.2   202  GLN202     -0.2867
     84  CB       -29.3610   26.7450  -35.8060 C.3   202  GLN202      0.0367
     85  CG       -30.0970   25.4150  -35.8450 C.3   202  GLN202      0.0905
     86  CD       -29.1540   24.2290  -35.9130 C.2   202  GLN202      0.2608
     87  OE1      -28.6750   23.7420  -34.8890 O.2   202  GLN202     -0.2717
     88  NE2      -28.8820   23.7600  -37.1250 N.am  202  GLN202     -0.0878
     89  N        -24.9710   29.8080  -36.5470 N.3   204  ILE204     -0.1245
     90  CA       -24.3240   29.6080  -37.8370 C.3   204  ILE204      0.1561
     91  C        -23.1210   30.5200  -38.0290 C.2   204  ILE204      0.2260
     92  O        -23.2580   31.7390  -38.1170 O.2   204  ILE204     -0.2867
     93  CB       -25.3000   29.8450  -39.0030 C.3   204  ILE204      0.0252
     94  CG1      -26.5780   29.0240  -38.8100 C.3   204  ILE204      0.0019
     95  CG2      -24.6280   29.5110  -40.3310 C.3   204  ILE204      0.0019
     96  CD1      -26.3480   27.5310  -38.7740 C.3   204  ILE204      0.0001
     97  N        -21.1400   28.2720  -44.8050 N.3   219  ALA219     -0.1231
     98  CA       -21.9690   28.4970  -43.6280 C.3   219  ALA219      0.1694
     99  C        -22.1730   27.1760  -42.8970 C.2   219  ALA219      0.2593
    100  O        -22.6370   26.2010  -43.4870 O.2   219  ALA219     -0.2718
    101  CB       -23.3040   29.1110  -44.0160 C.3   219  ALA219      0.0304
    102  N        -21.8200   27.1400  -41.6160 N.am  220  GLY220     -0.1942
    103  CA       -21.9170   25.9140  -40.8450 C.3   220  GLY220      0.2014
    104  C        -22.3230   26.1170  -39.3980 C.2   220  GLY220      0.2638
    105  O        -21.8800   27.0600  -38.7420 O.2   220  GLY220     -0.2714
    106  N        -23.1670   25.2190  -38.9020 N.am  221  GLU221     -0.1977
    107  CA       -23.6310   25.2690  -37.5200 C.3   221  GLU221      0.1602
    108  C        -22.5050   24.9350  -36.5470 C.2   221  GLU221      0.2287
    109  O        -21.7200   24.0160  -36.7820 O.2   221  GLU221     -0.2864
    110  CB       -24.8100   24.3090  -37.3210 C.3   221  GLU221      0.0415
    111  CG       -25.4620   24.3730  -35.9450 C.3   221  GLU221      0.1163
    112  CD       -24.8340   23.4190  -34.9450 C.2   221  GLU221      0.3649
    113  OE1      -24.0380   22.5510  -35.3630 O.co2 221  GLU221     -0.2457
    114  OE2      -25.1370   23.5390  -33.7400 O.co2 221  GLU221     -0.2457
    115  N        -21.7400   24.1280  -32.3820 N.3   223  ASP223     -0.1239
    116  CA       -22.4190   23.7000  -31.1630 C.3   223  ASP223      0.1674
    117  C        -22.1580   24.6260  -29.9770 C.2   223  ASP223      0.2266
    118  O        -23.0980   25.0930  -29.3350 O.2   223  ASP223     -0.2867
    119  CB       -22.0080   22.2720  -30.8030 C.3   223  ASP223      0.1410
    120  CG       -22.5560   21.2490  -31.7760 C.2   223  ASP223      0.3668
    121  OD1      -23.5970   21.5290  -32.4080 O.co2 223  ASP223     -0.2456
    122  OD2      -21.9490   20.1660  -31.9080 O.co2 223  ASP223     -0.2456
    123  N        -17.3950   21.0620  -31.2970 N.3   242  GLU242     -0.1231
    124  CA       -18.4620   20.2260  -31.8240 C.3   242  GLU242      0.1699
    125  C        -18.8520   19.1810  -30.7830 C.2   242  GLU242      0.2592
    126  O        -17.9880   18.5930  -30.1330 O.2   242  GLU242     -0.2718
    127  CB       -18.0330   19.5520  -33.1270 C.3   242  GLU242      0.0402
    128  CG       -19.1620   18.8510  -33.8600 C.3   242  GLU242      0.1161
    129  CD       -20.1790   19.8200  -34.4340 C.2   242  GLU242      0.3649
    130  OE1      -19.8430   21.0120  -34.6020 O.co2 242  GLU242     -0.2457
    131  OE2      -21.3170   19.3900  -34.7150 O.co2 242  GLU242     -0.2457
    132  N        -20.1520   18.9590  -30.6230 N.am  243  LEU243     -0.1966
    133  CA       -20.6460   17.9860  -29.6550 C.3   243  LEU243      0.1728
    134  C        -21.3750   16.8440  -30.3550 C.2   243  LEU243      0.2616
    135  O        -22.2740   17.0720  -31.1630 O.2   243  LEU243     -0.2715
    136  CB       -21.5680   18.6600  -28.6380 C.3   243  LEU243      0.0311
    137  CG       -20.9400   19.7790  -27.8030 C.3   243  LEU243      0.0022
    138  CD1      -21.9300   20.3080  -26.7780 C.3   243  LEU243      0.0001
    139  CD2      -19.6660   19.2950  -27.1240 C.3   243  LEU243      0.0001
    140  N        -20.9780   15.6140  -30.0450 N.am  244  LYS244     -0.1977
    141  CA       -21.5640   14.4370  -30.6770 C.3   244  LYS244      0.1596
    142  C        -21.8870   13.3540  -29.6550 C.2   244  LYS244      0.2287
    143  O        -21.3070   13.3190  -28.5700 O.2   244  LYS244     -0.2864
    144  CB       -20.6180   13.8690  -31.7370 C.3   244  LYS244      0.0298
    145  CG       -20.2080   14.8450  -32.8260 C.3   244  LYS244      0.0038
    146  CD       -21.3490   15.1230  -33.7850 C.3   244  LYS244      0.0206
    147  CE       -20.8490   15.8580  -35.0160 C.3   244  LYS244      0.1093
    148  NZ       -21.9470   16.1700  -35.9700 N.3   244  LYS244     -0.1314
    149  N        -16.6270   17.2900  -41.1950 N.3   268  GLN268     -0.1245
    150  CA       -17.4840   18.3920  -40.7850 C.3   268  GLN268      0.1566
    151  C        -16.6870   19.5020  -40.1070 C.2   268  GLN268      0.2260
    152  O        -16.8490   20.6800  -40.4220 O.2   268  GLN268     -0.2867
    153  CB       -18.5750   17.8760  -39.8470 C.3   268  GLN268      0.0367
    154  CG       -19.7040   18.8510  -39.5910 C.3   268  GLN268      0.0905
    155  CD       -20.7560   18.2790  -38.6620 C.2   268  GLN268      0.2608
    156  OE1      -20.4590   17.4350  -37.8170 O.2   268  GLN268     -0.2717
    157  NE2      -21.9940   18.7340  -38.8160 N.am  268  GLN268     -0.0878
@<TRIPOS>BOND
     1    17    18    1
     2    24    26   ar
     3    24    22   ar
     4    20    19    2
     5    26    27   ar
     6    44    45    1
     7    46    47    2
     8    46    45    1
     9    18    19    1
    10    18    21    1
    11    19    29   am
    12    21    22    1
    13    22    23   ar
    14    27    28    1
    15    27    25   ar
    16    43    42    2
    17    45    48    1
    18    42    41    1
    19    32    31    2
    20    29    30    1
    21    23    25   ar
    22    12    11    2
    23    31    30    1
    24    31    40   am
    25    11    10    1
    26    30    33    1
    27    97    98    1
    28    48    49    1
    29    48    50    1
    30    41    40    1
    31   101    98    1
    32    10    13    1
    33    10     9    1
    34    98    99    1
    35   100    99    2
    36    33    34    1
    37    99   102   am
    38    13    14    1
    39    34    35    1
    40     9     3   am
    41     4     3    2
    42     3     2    1
    43    16    15    1
    44    35    36    1
    45    14    15    1
    46     1     2    1
    47   102   103    1
    48     2     5    1
    49    36    37    2
    50   149   150    1
    51     5     6    1
    52   103   104    1
    53   150   151    1
    54   150   153    1
    55   152   151    2
    56    95    93    1
    57    37    38    1
    58    37    39    1
    59   153   154    1
    60     6     8   am
    61     6     7    2
    62   154   155    1
    63   104   106   am
    64   104   105    2
    65    93    94    1
    66    93    90    1
    67   106   107    1
    68   157   155   am
    69    94    96    1
    70   155   156    2
    71    92    91    2
    72    91    90    1
    73    90    89    1
    74   107   110    1
    75   107   108    1
    76   110   111    1
    77    88    86   am
    78   109   108    2
    79   148   147    1
    80   111   112    1
    81    86    85    1
    82    86    87    2
    83    85    84    1
    84    84    81    1
    85   113   112   ar
    86    83    82    2
    87   147   146    1
    88   112   114   ar
    89    79    77   am
    90   131   129   ar
    91    62    61    1
    92   130   129   ar
    93    82    81    1
    94    81    80    1
    95   129   128    1
    96    75    74    2
    97   128   127    1
    98    77    78    2
    99    77    76    1
   100   146   145    1
   101    61    60   ar
   102    61    59   ar
   103    76    73    1
   104   127   124    1
   105    74    73    1
   106   145   144    1
   107    60    58   ar
   108    59    57   ar
   109   121   120   ar
   110   115   116    1
   111    73    72    1
   112   122   120   ar
   113   124   123    1
   114   124   125    1
   115   120   119    1
   116   144   141    1
   117    58    56   ar
   118   116   119    1
   119   116   117    1
   120   135   134    2
   121    57    56   ar
   122   125   132   am
   123   125   126    2
   124    71    69   ar
   125   141   140    1
   126   141   142    1
   127   132   133    1
   128    56    55    1
   129   134   140   am
   130   134   133    1
   131   117   118    2
   132    70    69   ar
   133    69    68    1
   134   142   143    2
   135   133   136    1
   136    55    52    1
   137    51    52    1
   138   136   137    1
   139    52    53    1
   140    68    67    1
   141   137   139    1
   142   137   138    1
   143    67    64    1
   144    53    54    2
   145    64    63    1
   146    64    65    1
   147    65    66    2
