@<TRIPOS>MOLECULE
tmp/5uljC00.pdb
 84 78 0 0 0
SMALL
GASTEIGER

@<TRIPOS>ATOM
      1  N        -57.6410   24.1400  -91.3190 N.3    77  SER77      -0.1217
      2  CA       -56.7250   25.1800  -91.6440 C.3    77  SER77       0.1889
      3  C        -57.4810   26.2450  -92.3900 C.2    77  SER77       0.2288
      4  O        -57.8480   26.0540  -93.5270 O.2    77  SER77      -0.2866
      5  CB       -55.5800   24.6080  -92.4800 C.3    77  SER77       0.2089
      6  OG       -54.5210   24.2330  -91.6520 O.3    77  SER77      -0.2183
      7  N        -49.4950   27.6610  -94.6430 N.3   106  TYR106     -0.1227
      8  CA       -49.3540   27.1430  -93.2880 C.3   106  TYR106      0.1736
      9  C        -48.1560   26.2070  -93.1730 C.2   106  TYR106      0.2595
     10  O        -47.7780   25.5410  -94.1390 O.2   106  TYR106     -0.2718
     11  CB       -50.6290   26.4170  -92.8520 C.3   106  TYR106      0.0548
     12  CG       -51.7300   27.3410  -92.3860 C.ar  106  TYR106     -0.0200
     13  CD1      -51.7160   27.8730  -91.1040 C.ar  106  TYR106     -0.0009
     14  CD2      -52.7850   27.6790  -93.2240 C.ar  106  TYR106     -0.0009
     15  CE1      -52.7180   28.7170  -90.6690 C.ar  106  TYR106      0.0417
     16  CE2      -53.7940   28.5240  -92.7970 C.ar  106  TYR106      0.0417
     17  CZ       -53.7540   29.0400  -91.5180 C.ar  106  TYR106      0.1957
     18  OH       -54.7510   29.8810  -91.0830 O.3   106  TYR106     -0.2866
     19  N        -47.5670   26.1630  -91.9830 N.am  107  ARG107     -0.1966
     20  CA       -46.3900   25.3430  -91.7230 C.3   107  ARG107      0.1729
     21  C        -46.6820   23.8560  -91.9110 C.2   107  ARG107      0.2616
     22  O        -45.8820   23.1300  -92.5010 O.2   107  ARG107     -0.2715
     23  CB       -45.8710   25.6100  -90.3050 C.3   107  ARG107      0.0348
     24  CG       -44.5460   24.9380  -89.9580 C.3   107  ARG107      0.0492
     25  CD       -44.7510   23.6010  -89.2590 C.3   107  ARG107      0.2205
     26  NE       -45.7800   23.6710  -88.2250 N.pl3 107  ARG107     -0.0865
     27  CZ       -45.5620   24.0680  -86.9750 C.cat 107  ARG107      0.5346
     28  NH1      -44.3460   24.4370  -86.5960 N.pl3 107  ARG107      0.1354
     29  NH2      -46.5610   24.0980  -86.1030 N.pl3 107  ARG107      0.1354
     30  N        -47.8300   23.4120  -91.4060 N.am  108  GLY108     -0.1955
     31  CA       -48.2040   22.0080  -91.4570 C.3   108  GLY108      0.1869
     32  C        -48.2980   21.4480  -92.8640 C.2   108  GLY108      0.2309
     33  O        -48.0610   20.2600  -93.0860 O.2   108  GLY108     -0.2863
     34  N        -44.7420   20.9360  -94.0520 N.3   111  THR111     -0.1218
     35  CA       -44.2270   19.7820  -93.3230 C.3   111  THR111      0.1862
     36  C        -44.6000   18.4920  -94.0490 C.2   111  THR111      0.2287
     37  O        -43.7990   17.5610  -94.1370 O.2   111  THR111     -0.2866
     38  CB       -44.7640   19.7380  -91.8780 C.3   111  THR111      0.1770
     39  OG1      -44.3250   20.9020  -91.1670 O.3   111  THR111     -0.2211
     40  CG2      -44.2650   18.4950  -91.1540 C.3   111  THR111      0.0375
     41  N        -54.9200   27.9840  -79.2020 N.3   208  GLN208     -0.1245
     42  CA       -53.8010   27.8630  -80.1280 C.3   208  GLN208      0.1566
     43  C        -53.0160   29.1640  -80.2300 C.2   208  GLN208      0.2260
     44  O        -53.5870   30.2250  -80.4680 O.2   208  GLN208     -0.2867
     45  CB       -54.2910   27.4500  -81.5190 C.3   208  GLN208      0.0367
     46  CG       -54.6580   25.9830  -81.6490 C.3   208  GLN208      0.0905
     47  CD       -55.0030   25.5990  -83.0750 C.2   208  GLN208      0.2608
     48  OE1      -55.4790   26.4240  -83.8540 O.2   208  GLN208     -0.2717
     49  NE2      -54.7570   24.3420  -83.4250 N.am  208  GLN208     -0.0878
     50  N        -50.4390   30.9490  -82.5400 N.3   210  ILE210     -0.1245
     51  CA       -49.9300   30.8230  -83.9000 C.3   210  ILE210      0.1561
     52  C        -48.9150   31.9040  -84.2450 C.2   210  ILE210      0.2260
     53  O        -49.2520   33.0840  -84.3450 O.2   210  ILE210     -0.2867
     54  CB       -51.0760   30.8650  -84.9260 C.3   210  ILE210      0.0252
     55  CG1      -52.0360   29.6980  -84.6850 C.3   210  ILE210      0.0019
     56  CG2      -50.5250   30.8140  -86.3440 C.3   210  ILE210      0.0019
     57  CD1      -53.4950   30.0730  -84.7820 C.3   210  ILE210      0.0001
     58  N        -47.3060   30.1820  -91.2690 N.3   225  ALA225     -0.1231
     59  CA       -48.0440   30.2890  -90.0180 C.3   225  ALA225      0.1694
     60  C        -48.0950   28.9250  -89.3370 C.2   225  ALA225      0.2593
     61  O        -48.5520   27.9450  -89.9280 O.2   225  ALA225     -0.2718
     62  CB       -49.4460   30.8210  -90.2620 C.3   225  ALA225      0.0304
     63  N        -47.6170   28.8600  -88.0990 N.am  226  GLY226     -0.1942
     64  CA       -47.5460   27.5970  -87.3880 C.3   226  GLY226      0.2014
     65  C        -47.8200   27.7000  -85.9010 C.2   226  GLY226      0.2638
     66  O        -47.4140   28.6600  -85.2450 O.2   226  GLY226     -0.2714
     67  N        -48.5100   26.6950  -85.3700 N.am  227  GLU227     -0.1977
     68  CA       -48.8310   26.6420  -83.9480 C.3   227  GLU227      0.1602
     69  C        -47.5770   26.4230  -83.1050 C.2   227  GLU227      0.2287
     70  O        -46.7200   25.6090  -83.4510 O.2   227  GLU227     -0.2864
     71  CB       -49.8540   25.5340  -83.6770 C.3   227  GLU227      0.0415
     72  CG       -50.3460   25.4620  -82.2380 C.3   227  GLU227      0.1163
     73  CD       -49.5730   24.4610  -81.3980 C.2   227  GLU227      0.3649
     74  OE1      -48.6910   23.7680  -81.9490 O.co2 227  GLU227     -0.2457
     75  OE2      -49.8520   24.3670  -80.1840 O.co2 227  GLU227     -0.2457
     76  N        -41.2240   19.6340  -88.7850 N.3   271  GLN271     -0.1245
     77  CA       -42.1110   20.6540  -88.2420 C.3   271  GLN271      0.1566
     78  C        -41.3410   21.8150  -87.6150 C.2   271  GLN271      0.2260
     79  O        -41.6350   22.9810  -87.8800 O.2   271  GLN271     -0.2867
     80  CB       -43.0490   20.0260  -87.2100 C.3   271  GLN271      0.0367
     81  CG       -43.8740   21.0170  -86.4170 C.3   271  GLN271      0.0905
     82  CD       -44.7140   20.3400  -85.3520 C.2   271  GLN271      0.2608
     83  OE1      -44.3120   20.2520  -84.1930 O.2   271  GLN271     -0.2717
     84  NE2      -45.8860   19.8540  -85.7420 N.am  271  GLN271     -0.0878
@<TRIPOS>BOND
     1     7     8    1
     2    10     9    2
     3    37    36    2
     4    34    35    1
     5    36    35    1
     6     4     3    2
     7    35    38    1
     8     8     9    1
     9     8    11    1
    10    14    16   ar
    11    14    12   ar
    12     9    19   am
    13    33    32    2
    14    32    31    1
    15    11    12    1
    16    16    17   ar
    17    22    21    2
    18     5     6    1
    19     5     2    1
    20     3     2    1
    21    12    13   ar
    22    19    20    1
    23    21    20    1
    24    21    30   am
    25    38    39    1
    26    38    40    1
    27    20    23    1
    28     2     1    1
    29    17    18    1
    30    17    15   ar
    31    31    30    1
    32    58    59    1
    33    13    15   ar
    34    23    24    1
    35    62    59    1
    36    59    60    1
    37    24    25    1
    38    61    60    2
    39    60    63   am
    40    25    26    1
    41    76    77    1
    42    77    78    1
    43    77    80    1
    44    26    27    2
    45    63    64    1
    46    79    78    2
    47    64    65    1
    48    80    81    1
    49    27    28    1
    50    27    29    1
    51    81    82    1
    52    56    54    1
    53    65    67   am
    54    65    66    2
    55    84    82   am
    56    67    68    1
    57    82    83    2
    58    54    55    1
    59    54    51    1
    60    57    55    1
    61    53    52    2
    62    52    51    1
    63    68    71    1
    64    68    69    1
    65    51    50    1
    66    48    47    2
    67    71    72    1
    68    70    69    2
    69    49    47   am
    70    47    46    1
    71    72    73    1
    72    74    73   ar
    73    46    45    1
    74    45    42    1
    75    73    75   ar
    76    44    43    2
    77    43    42    1
    78    42    41    1
