@<TRIPOS>MOLECULE
tmp/5ulpB00.pdb
 181 176 0 0 0
SMALL
GASTEIGER

@<TRIPOS>ATOM
      1  N         -1.8020   32.8280   20.3370 N.3    52  SER52      -0.1217
      2  CA        -1.5640   32.4360   18.9560 C.3    52  SER52       0.1889
      3  C         -0.0900   32.0930   18.8070 C.2    52  SER52       0.2288
      4  O          0.7140   32.3400   19.7130 O.2    52  SER52      -0.2866
      5  CB        -1.9440   33.5500   17.9860 C.3    52  SER52       0.2089
      6  OG        -0.9210   34.5390   18.0120 O.3    52  SER52      -0.2183
      7  N          1.7560   33.7540   17.0510 N.3    54  GLY54      -0.1225
      8  CA         2.4420   35.0110   16.8430 C.3    54  GLY54       0.1811
      9  C          3.3960   35.3740   17.9650 C.2    54  GLY54       0.2280
     10  O          4.4240   36.0030   17.7170 O.2    54  GLY54      -0.2866
     11  N          0.0390   48.0130   17.9530 N.3    75  ASP75      -0.1239
     12  CA         0.0340   46.7140   17.2740 C.3    75  ASP75       0.1674
     13  C         -1.1010   46.7380   16.2480 C.2    75  ASP75       0.2266
     14  O         -2.2680   46.5510   16.5980 O.2    75  ASP75      -0.2867
     15  CB        -0.1230   45.5920   18.3020 C.3    75  ASP75       0.1410
     16  CG        -0.0740   44.1980   17.6810 C.2    75  ASP75       0.3668
     17  OD1        0.3270   44.0690   16.5000 O.co2  75  ASP75      -0.2456
     18  OD2       -0.4600   43.2360   18.3870 O.co2  75  ASP75      -0.2456
     19  N         -3.3110   45.3800   13.2890 N.3    77  GLY77      -0.1210
     20  CA        -3.7110   44.0470   12.8770 C.3    77  GLY77       0.1956
     21  C         -3.3930   43.0360   13.9640 C.2    77  GLY77       0.2612
     22  O         -2.6770   42.0640   13.7210 O.2    77  GLY77      -0.2717
     23  N         -3.9140   43.2480   15.1730 N.am   78  CYS78      -0.1956
     24  CA        -3.4630   42.4490   16.3080 C.3    78  CYS78       0.1843
     25  C         -4.0850   41.0630   16.3500 C.2    78  CYS78       0.2626
     26  O         -3.5550   40.1930   17.0520 O.2    78  CYS78      -0.2714
     27  CB        -3.7460   43.1840   17.6280 C.3    78  CYS78       0.0997
     28  SG        -5.4950   43.4430   18.0670 S.3    78  CYS78      -0.0797
     29  N         -5.1820   40.8330   15.6220 N.am   79  GLY79      -0.1940
     30  CA        -5.8420   39.5360   15.7000 C.3    79  GLY79       0.2014
     31  C         -6.2110   39.1790   17.1310 C.2    79  GLY79       0.2639
     32  O         -6.7150   40.0020   17.8990 O.2    79  GLY79      -0.2714
     33  N         -5.9290   37.9250   17.5080 N.am   80  ARG80      -0.1963
     34  CA        -6.2070   37.4820   18.8700 C.3    80  ARG80       0.1729
     35  C         -5.3550   38.2140   19.8950 C.2    80  ARG80       0.2617
     36  O         -5.7380   38.2760   21.0640 O.2    80  ARG80      -0.2715
     37  CB        -5.9820   35.9690   18.9940 C.3    80  ARG80       0.0348
     38  CG        -7.1340   35.1150   18.4660 C.3    80  ARG80       0.0492
     39  CD        -6.8810   33.6220   18.6870 C.3    80  ARG80       0.2205
     40  NE        -5.8910   33.0810   17.7580 N.pl3  80  ARG80      -0.0865
     41  CZ        -5.5670   31.7930   17.6770 C.cat  80  ARG80       0.5346
     42  NH1       -6.1500   30.9070   18.4720 N.pl3  80  ARG80       0.1354
     43  NH2       -4.6590   31.3900   16.8000 N.pl3  80  ARG80       0.1354
     44  N         -4.1990   38.7500   19.4850 N.am   81  GLY81      -0.1940
     45  CA        -3.3450   39.5050   20.3900 C.3    81  GLY81       0.2014
     46  C         -1.9640   38.9480   20.6920 C.2    81  GLY81       0.2639
     47  O         -1.3060   39.4350   21.6230 O.2    81  GLY81      -0.2714
     48  N         -1.4930   37.9480   19.9290 N.am   82  GLY82      -0.1939
     49  CA        -0.2330   37.2950   20.2860 C.3    82  GLY82       0.2014
     50  C          0.9580   38.2370   20.4070 C.2    82  GLY82       0.2638
     51  O          1.7830   38.0950   21.3130 O.2    82  GLY82      -0.2714
     52  N          1.0630   39.2190   19.5150 N.am   83  TRP83      -0.1973
     53  CA         2.1760   40.1540   19.6300 C.3    83  TRP83       0.1640
     54  C          1.9600   41.1190   20.7860 C.2    83  TRP83       0.2290
     55  O          2.9150   41.4850   21.4810 O.2    83  TRP83      -0.2864
     56  CB         2.3510   40.9530   18.3420 C.3    83  TRP83       0.0576
     57  CG         2.9840   40.2130   17.2310 C.ar   83  TRP83       0.0006
     58  CD1        3.2060   38.8600   17.1380 C.ar   83  TRP83       0.0946
     59  CD2        3.5190   40.7900   16.0480 C.ar   83  TRP83       0.0152
     60  NE1        3.8360   38.5700   15.9480 N.ar   83  TRP83      -0.2442
     61  CE2        4.0450   39.7470   15.2660 C.ar   83  TRP83       0.0810
     62  CE3        3.6060   42.1050   15.5670 C.ar   83  TRP83       0.0012
     63  CZ2        4.6550   39.9740   14.0330 C.ar   83  TRP83       0.0191
     64  CZ3        4.2130   42.3290   14.3470 C.ar   83  TRP83       0.0001
     65  CH2        4.7180   41.2690   13.5840 C.ar   83  TRP83       0.0015
     66  N         -7.6690   45.6310   15.5140 N.3   100  THR100     -0.1203
     67  CA        -7.9040   44.5910   14.5240 C.3   100  THR100      0.1994
     68  C         -9.3240   44.7230   13.9920 C.2   100  THR100      0.2618
     69  O        -10.1790   45.3500   14.6140 O.2   100  THR100     -0.2717
     70  CB        -7.6180   43.2050   15.1320 C.3   100  THR100      0.1784
     71  OG1       -7.3070   42.2800   14.0870 O.3   100  THR100     -0.2211
     72  CG2       -8.7870   42.6830   15.9730 C.3   100  THR100      0.0376
     73  N         -9.5510   44.1440   12.8120 N.am  101  LYS101     -0.1965
     74  CA       -10.8260   44.3280   12.1180 C.3   101  LYS101      0.1728
     75  C        -11.9350   43.5030   12.7630 C.2   101  LYS101      0.2616
     76  O        -13.0460   44.0020   12.9890 O.2   101  LYS101     -0.2715
     77  CB       -10.6560   43.9500   10.6400 C.3   101  LYS101      0.0311
     78  CG       -11.9170   44.0430    9.8220 C.3   101  LYS101      0.0038
     79  CD       -12.4570   45.4780    9.7190 C.3   101  LYS101      0.0206
     80  CE       -13.7570   45.5240    8.9160 C.3   101  LYS101      0.1093
     81  NZ       -14.4390   44.1820    8.8700 N.3   101  LYS101     -0.1314
     82  N        -11.6570   42.2360   13.0600 N.am  102  GLY102     -0.1955
     83  CA       -12.6540   41.3510   13.6100 C.3   102  GLY102      0.1869
     84  C        -13.7970   41.1380   12.6210 C.2   102  GLY102      0.2309
     85  O        -13.6940   41.4070   11.4210 O.2   102  GLY102     -0.2863
     86  N        -12.9950   36.5620   10.7610 N.3   106  HIS106     -0.1226
     87  CA       -11.7390   37.1800   11.1620 C.3   106  HIS106      0.1752
     88  C        -11.5120   36.9800   12.6540 C.2   106  HIS106      0.2595
     89  O        -12.4620   36.8760   13.4350 O.2   106  HIS106     -0.2718
     90  CB       -11.7190   38.6750   10.8390 C.3   106  HIS106      0.0759
     91  CG       -11.9140   38.9750    9.3880 C.ar  106  HIS106      0.0818
     92  ND1      -11.0380   38.5420    8.4150 N.ar  106  HIS106     -0.2268
     93  CD2      -12.8870   39.6580    8.7400 C.ar  106  HIS106      0.1154
     94  CE1      -11.4620   38.9480    7.2310 C.ar  106  HIS106      0.1986
     95  NE2      -12.5820   39.6270    7.4010 N.ar  106  HIS106     -0.2212
     96  N        -10.2380   36.9340   13.0430 N.am  107  GLU107     -0.1979
     97  CA        -9.8930   36.7260   14.4410 C.3   107  GLU107      0.1602
     98  C        -10.3170   37.9210   15.2930 C.2   107  GLU107      0.2287
     99  O        -10.1000   39.0770   14.9240 O.2   107  GLU107     -0.2864
    100  CB        -8.3860   36.4820   14.5940 C.3   107  GLU107      0.0415
    101  CG        -7.8750   35.1810   13.9660 C.3   107  GLU107      0.1163
    102  CD        -8.3910   33.9150   14.6620 C.2   107  GLU107      0.3649
    103  OE1       -9.0330   34.0000   15.7340 O.co2 107  GLU107     -0.2457
    104  OE2       -8.1480   32.8080   14.1300 O.co2 107  GLU107     -0.2457
    105  N        -11.9220   47.7620   13.9090 N.3   126  VAL126     -0.1231
    106  CA       -11.0970   48.8600   13.4230 C.3   126  VAL126      0.1692
    107  C        -10.4220   48.4330   12.1320 C.2   126  VAL126      0.2592
    108  O         -9.7230   47.4130   12.0980 O.2   126  VAL126     -0.2718
    109  CB       -10.0440   49.2770   14.4680 C.3   126  VAL126      0.0266
    110  CG1       -9.0460   50.2830   13.8750 C.3   126  VAL126      0.0020
    111  CG2      -10.7250   49.8410   15.7150 C.3   126  VAL126      0.0020
    112  N        -10.5950   49.2310   11.0820 N.am  127  ASP127     -0.1960
    113  CA        -9.8400   49.0760    9.8430 C.3   127  ASP127      0.1840
    114  C         -8.6570   50.0320    9.9310 C.2   127  ASP127      0.2622
    115  O         -8.8430   51.2520    9.8950 O.2   127  ASP127     -0.2715
    116  CB       -10.7200   49.3820    8.6290 C.3   127  ASP127      0.1450
    117  CG       -10.0110   49.1470    7.3090 C.2   127  ASP127      0.3671
    118  OD1       -8.7640   49.1250    7.2790 O.co2 127  ASP127     -0.2456
    119  OD2      -10.7120   48.9910    6.2820 O.co2 127  ASP127     -0.2456
    120  N         -7.4410   49.4880   10.0610 N.am  128  VAL128     -0.1963
    121  CA        -6.2860   50.3490   10.3070 C.3   128  VAL128      0.1727
    122  C         -5.9630   51.2370    9.1110 C.2   128  VAL128      0.2616
    123  O         -5.2710   52.2500    9.2680 O.2   128  VAL128     -0.2715
    124  CB        -5.0370   49.5390   10.7210 C.3   128  VAL128      0.0290
    125  CG1       -5.2930   48.7980   12.0400 C.3   128  VAL128      0.0023
    126  CG2       -4.6140   48.5820    9.6220 C.3   128  VAL128      0.0023
    127  N         -6.4410   50.8900    7.9190 N.am  129  PHE129     -0.1974
    128  CA        -6.2120   51.7480    6.7630 C.3   129  PHE129      0.1639
    129  C         -7.0610   53.0030    6.7960 C.2   129  PHE129      0.2290
    130  O         -6.7870   53.9340    6.0340 O.2   129  PHE129     -0.2864
    131  CB        -6.4550   50.9660    5.4720 C.3   129  PHE129      0.0560
    132  CG        -5.4720   49.8640    5.2690 C.ar  129  PHE129     -0.0200
    133  CD1       -4.1800   50.1410    4.8680 C.ar  129  PHE129     -0.0042
    134  CD2       -5.8170   48.5500    5.5310 C.ar  129  PHE129     -0.0042
    135  CE1       -3.2540   49.1280    4.7040 C.ar  129  PHE129     -0.0003
    136  CE2       -4.8930   47.5340    5.3810 C.ar  129  PHE129     -0.0003
    137  CZ        -3.6120   47.8240    4.9560 C.ar  129  PHE129     -0.0000
    138  N          1.4580   43.2940   11.5800 N.3   142  ASP142     -0.1225
    139  CA         1.5470   41.9160   11.1070 C.3   142  ASP142      0.1805
    140  C          0.5040   41.6150   10.0330 C.2   142  ASP142      0.2598
    141  O          0.0380   40.4900    9.9020 O.2   142  ASP142     -0.2718
    142  CB         1.4150   40.9540   12.2910 C.3   142  ASP142      0.1424
    143  CG         1.9560   39.5750   11.9820 C.2   142  ASP142      0.3668
    144  OD1        2.7800   39.4330   11.0550 O.co2 142  ASP142     -0.2456
    145  OD2        1.5660   38.6160   12.6880 O.co2 142  ASP142     -0.2456
    146  N          0.1540   42.6040    9.2330 N.am  143  ILE143     -0.1966
    147  CA        -0.8930   42.4640    8.2230 C.3   143  ILE143      0.1727
    148  C         -0.3070   41.9880    6.9040 C.2   143  ILE143      0.2617
    149  O          0.7380   42.4680    6.4570 O.2   143  ILE143     -0.2715
    150  CB        -1.6230   43.8070    8.0410 C.3   143  ILE143      0.0290
    151  CG1       -2.4080   44.1170    9.3100 C.3   143  ILE143      0.0022
    152  CG2       -2.5220   43.7770    6.8110 C.3   143  ILE143      0.0023
    153  CD1       -3.0020   45.5160    9.3420 C.3   143  ILE143      0.0001
    154  N         -0.9960   41.0350    6.2750 N.am  144  GLY144     -0.1940
    155  CA        -0.6630   40.6500    4.9150 C.3   144  GLY144      0.2014
    156  C         -1.1940   39.2700    4.6260 C.2   144  GLY144      0.2639
    157  O         -0.7080   38.2880    5.1910 O.2   144  GLY144     -0.2714
    158  N         -2.1980   39.1850    3.7640 N.am  145  GLU145     -0.1963
    159  CA        -2.8660   37.9270    3.4640 C.3   145  GLU145      0.1733
    160  C         -2.2820   37.3080    2.1980 C.2   145  GLU145      0.2617
    161  O         -2.2020   37.9660    1.1560 O.2   145  GLU145     -0.2715
    162  CB        -4.3710   38.1430    3.3140 C.3   145  GLU145      0.0429
    163  CG        -5.1470   36.8570    3.0560 C.3   145  GLU145      0.1163
    164  CD        -6.6440   37.0850    2.9410 C.2   145  GLU145      0.3649
    165  OE1       -7.4100   36.3070    3.5440 O.co2 145  GLU145     -0.2457
    166  OE2       -7.0540   38.0430    2.2470 O.co2 145  GLU145     -0.2457
    167  N         -1.8720   36.0450    2.2980 N.am  146  SER146     -0.1950
    168  CA        -1.2670   35.3440    1.1790 C.3   146  SER146      0.1924
    169  C         -2.2370   35.2290    0.0100 C.2   146  SER146      0.2314
    170  O         -3.4590   35.2050    0.1790 O.2   146  SER146     -0.2863
    171  CB        -0.8310   33.9420    1.6140 C.3   146  SER146      0.2116
    172  OG         0.2180   34.0080    2.5580 O.3   146  SER146     -0.2180
    173  N          5.5060   43.3080    9.0330 N.3   178  LYS178     -0.1245
    174  CA         5.4880   42.1820    8.1070 C.3   178  LYS178      0.1561
    175  C          5.5380   42.6880    6.6690 C.2   178  LYS178      0.2260
    176  O          4.8110   43.6140    6.2880 O.2   178  LYS178     -0.2867
    177  CB         4.2520   41.3230    8.3090 C.3   178  LYS178      0.0271
    178  CG         4.3260   40.0410    7.4730 C.3   178  LYS178      0.0035
    179  CD         3.2520   39.0400    7.8470 C.3   178  LYS178      0.0206
    180  CE         1.9640   39.3190    7.1490 C.3   178  LYS178      0.1093
    181  NZ         0.9410   38.2850    7.4860 N.3   178  LYS178     -0.1314
@<TRIPOS>BOND
     1   169   170    2
     2   169   168    1
     3   161   160    2
     4   168   171    1
     5   168   167    1
     6   171   172    1
     7   160   167   am
     8   160   159    1
     9   166   164   ar
    10   164   163    1
    11   164   165   ar
    12   163   162    1
    13   162   159    1
    14   159   158    1
    15   158   156   am
    16   156   155    1
    17   156   157    2
    18   135   133   ar
    19   135   137   ar
    20   133   132   ar
    21   155   154    1
    22   137   136   ar
    23   132   131    1
    24   132   134   ar
    25   136   134   ar
    26   131   128    1
    27   130   129    2
    28   154   148   am
    29   119   117   ar
    30   176   175    2
    31   149   148    2
    32   175   174    1
    33   128   129    1
    34   128   127    1
    35   152   150    1
    36   148   147    1
    37   180   181    1
    38   180   179    1
    39    94    95   ar
    40    94    92   ar
    41   118   117   ar
    42   117   116    1
    43    95    93   ar
    44   178   179    1
    45   178   177    1
    46   127   122   am
    47   150   147    1
    48   150   151    1
    49   174   177    1
    50   174   173    1
    51   147   146    1
    52    92    91   ar
    53   116   113    1
    54    93    91   ar
    55    81    80    1
    56    80    79    1
    57   122   123    2
    58   122   121    1
    59   146   140   am
    60   151   153    1
    61    91    90    1
    62   126   124    1
    63    79    78    1
    64    78    77    1
    65   113   114    1
    66   113   112    1
    67   115   114    2
    68   141   140    2
    69   114   120   am
    70   140   139    1
    71   120   121    1
    72   121   124    1
    73    77    74    1
    74   124   125    1
    75    86    87    1
    76    90    87    1
    77   144   143   ar
    78   112   107   am
    79   139   138    1
    80   139   142    1
    81    87    88    1
    82    85    84    2
    83   143   142    1
    84   143   145   ar
    85   108   107    2
    86    74    75    1
    87    74    73    1
    88   107   106    1
    89    84    83    1
    90    88    96   am
    91    88    89    2
    92    75    76    2
    93    75    82   am
    94    73    68   am
    95    20    19    1
    96    20    21    1
    97    96    97    1
    98    82    83    1
    99   106   105    1
   100   106   109    1
   101    65    63   ar
   102    65    64   ar
   103    22    21    2
   104   110   109    1
   105    21    23   am
   106   101   100    1
   107   101   102    1
   108    68    67    1
   109    68    69    2
   110    63    61   ar
   111    71    70    1
   112   104   102   ar
   113    64    62   ar
   114    97   100    1
   115    97    98    1
   116   109   111    1
   117    67    70    1
   118    67    66    1
   119   102   103   ar
   120    99    98    2
   121    70    72    1
   122    23    24    1
   123    61    60   ar
   124    61    59   ar
   125    62    59   ar
   126    29    30    1
   127    29    25   am
   128    30    31    1
   129    60    58   ar
   130    59    57   ar
   131    13    14    2
   132    13    12    1
   133    24    25    1
   134    24    27    1
   135    25    26    2
   136    17    16   ar
   137    43    41    1
   138     8     7    1
   139     8     9    1
   140    31    33   am
   141    31    32    2
   142    58    57   ar
   143    57    56    1
   144    12    11    1
   145    12    15    1
   146    33    34    1
   147    27    28    1
   148    41    40    2
   149    41    42    1
   150    16    15    1
   151    16    18   ar
   152    10     9    2
   153    40    39    1
   154     5     6    1
   155     5     2    1
   156    56    53    1
   157    38    39    1
   158    38    37    1
   159     3     2    1
   160     3     4    2
   161    34    37    1
   162    34    35    1
   163     2     1    1
   164    44    35   am
   165    44    45    1
   166    52    53    1
   167    52    50   am
   168    53    54    1
   169    35    36    2
   170    48    49    1
   171    48    46   am
   172    49    50    1
   173    45    46    1
   174    50    51    2
   175    46    47    2
   176    54    55    2
