@<TRIPOS>MOLECULE
tmp/5ulsA00.pdb
 201 192 0 0 0
SMALL
GASTEIGER

@<TRIPOS>ATOM
      1  N         86.4670   40.5350  143.7090 N.3    53  GLU53      -0.1245
      2  CA        87.1800   40.4450  142.4430 C.3    53  GLU53       0.1567
      3  C         86.6850   41.4710  141.4270 C.2    53  GLU53       0.2260
      4  O         87.4810   42.0390  140.6820 O.2    53  GLU53      -0.2867
      5  CB        87.0620   39.0320  141.8690 C.3    53  GLU53       0.0388
      6  CG        88.2990   38.1730  142.0870 C.3    53  GLU53       0.1160
      7  CD        88.7650   38.1650  143.5320 C.2    53  GLU53       0.3649
      8  OE1       88.2430   37.3500  144.3220 O.co2  53  GLU53      -0.2457
      9  OE2       89.6560   38.9700  143.8770 O.co2  53  GLU53      -0.2457
     10  N         88.9960   44.3580  139.8800 N.3    57  ASN57      -0.1225
     11  CA        89.0730   44.5460  138.4370 C.3    57  ASN57       0.1785
     12  C         88.7480   45.9830  138.0560 C.2    57  ASN57       0.2597
     13  O         89.4030   46.5730  137.1980 O.2    57  ASN57      -0.2718
     14  CB        88.1250   43.5890  137.7130 C.3    57  ASN57       0.1169
     15  CG        88.5780   42.1450  137.7950 C.2    57  ASN57       0.2627
     16  OD1       89.7590   41.8610  137.9980 O.2    57  ASN57      -0.2716
     17  ND2       87.6390   41.2210  137.6300 N.am   57  ASN57      -0.0877
     18  N         87.7290   46.5360  138.7060 N.am   58  ALA58      -0.1979
     19  CA        87.3350   47.9210  138.4890 C.3    58  ALA58       0.1597
     20  C         88.4330   48.8680  138.9590 C.2    58  ALA58       0.2287
     21  O         88.6680   49.9130  138.3530 O.2    58  ALA58      -0.2864
     22  CB        86.0300   48.2190  139.2070 C.3    58  ALA58       0.0319
     23  N         91.7100   48.1240  139.0770 N.3    60  ASP60      -0.1225
     24  CA        92.8010   48.0170  138.1170 C.3    60  ASP60       0.1805
     25  C         92.4860   48.8120  136.8580 C.2    60  ASP60       0.2597
     26  O         93.3670   49.4430  136.2770 O.2    60  ASP60      -0.2718
     27  CB        93.0750   46.5530  137.7640 C.3    60  ASP60       0.1424
     28  CG        93.7460   45.7970  138.8930 C.2    60  ASP60       0.3668
     29  OD1       94.3150   46.4510  139.7930 O.co2  60  ASP60      -0.2456
     30  OD2       93.7110   44.5480  138.8750 O.co2  60  ASP60      -0.2456
     31  N         91.2220   48.7810  136.4460 N.am   61  ALA61      -0.1979
     32  CA        90.7760   49.5230  135.2740 C.3    61  ALA61       0.1597
     33  C         90.9320   51.0230  135.4910 C.2    61  ALA61       0.2287
     34  O         91.3240   51.7550  134.5810 O.2    61  ALA61      -0.2864
     35  CB        89.3330   49.1810  134.9490 C.3    61  ALA61       0.0319
     36  N         94.6960   51.9190  135.5420 N.3    64  LYS64      -0.1245
     37  CA        95.2640   51.8560  134.2000 C.3    64  LYS64       0.1561
     38  C         95.1140   53.1860  133.4720 C.2    64  LYS64       0.2260
     39  O         96.0910   53.7340  132.9640 O.2    64  LYS64      -0.2867
     40  CB        94.6060   50.7410  133.3840 C.3    64  LYS64       0.0271
     41  CG        95.1400   49.3530  133.6850 C.3    64  LYS64       0.0035
     42  CD        94.3240   48.2880  132.9750 C.3    64  LYS64       0.0206
     43  CE        94.7920   46.8960  133.3560 C.3    64  LYS64       0.1093
     44  NZ        93.9660   45.8360  132.7160 N.3    64  LYS64      -0.1314
     45  N         82.2880   51.0820  136.8460 N.3    99  ASP99      -0.1239
     46  CA        83.4820   51.8910  137.0620 C.3    99  ASP99       0.1674
     47  C         83.7470   52.7870  135.8580 C.2    99  ASP99       0.2266
     48  O         83.1560   52.6030  134.7950 O.2    99  ASP99      -0.2867
     49  CB        84.6970   51.0030  137.3350 C.3    99  ASP99       0.1410
     50  CG        85.1520   50.2380  136.1070 C.2    99  ASP99       0.3668
     51  OD1       84.2940   49.8670  135.2790 O.co2  99  ASP99      -0.2456
     52  OD2       86.3710   50.0080  135.9690 O.co2  99  ASP99      -0.2456
     53  N         89.6310   52.3780  132.2360 N.3   102  VAL102     -0.1231
     54  CA        90.0520   52.4380  130.8400 C.3   102  VAL102      0.1692
     55  C         89.0400   51.7490  129.9230 C.2   102  VAL102      0.2593
     56  O         88.8590   52.1470  128.7720 O.2   102  VAL102     -0.2718
     57  CB        91.4570   51.8030  130.6540 C.3   102  VAL102      0.0266
     58  CG1       91.4680   50.3540  131.1250 C.3   102  VAL102      0.0020
     59  CG2       91.9210   51.9120  129.2070 C.3   102  VAL102      0.0020
     60  N         88.3620   50.7310  130.4460 N.am  103  GLY103     -0.1942
     61  CA        87.3860   49.9910  129.6680 C.3   103  GLY103      0.2014
     62  C         88.0300   48.9180  128.8100 C.2   103  GLY103      0.2638
     63  O         89.1850   48.5500  129.0260 O.2   103  GLY103     -0.2714
     64  N         87.2820   48.4180  127.8320 N.am  104  MET104     -0.1976
     65  CA        87.7700   47.3520  126.9620 C.3   104  MET104      0.1605
     66  C         87.3010   47.5160  125.5200 C.2   104  MET104      0.2287
     67  O         86.1240   47.7750  125.2640 O.2   104  MET104     -0.2864
     68  CB        87.3240   45.9860  127.4930 C.3   104  MET104      0.0413
     69  CG        88.1810   45.4400  128.6220 C.3   104  MET104      0.0598
     70  SD        87.6050   43.8400  129.2240 S.3   104  MET104     -0.1393
     71  CE        86.1660   44.3280  130.1730 C.3   104  MET104      0.0692
     72  N         90.3280   39.1450  126.6100 N.3   112  ASN112     -0.1225
     73  CA        90.5130   39.2060  128.0590 C.3   112  ASN112      0.1785
     74  C         89.4510   38.4460  128.8530 C.2   112  ASN112      0.2597
     75  O         89.7780   37.6900  129.7680 O.2   112  ASN112     -0.2718
     76  CB        90.5490   40.6640  128.5240 C.3   112  ASN112      0.1169
     77  CG        91.7690   41.4080  128.0180 C.2   112  ASN112      0.2627
     78  OD1       92.4490   40.9560  127.0960 O.2   112  ASN112     -0.2716
     79  ND2       92.0530   42.5570  128.6190 N.am  112  ASN112     -0.0877
     80  N         88.1840   38.6470  128.5060 N.am  113  LEU113     -0.1980
     81  CA        87.0900   38.0250  129.2460 C.3   113  LEU113      0.1596
     82  C         86.8300   36.5850  128.8090 C.2   113  LEU113      0.2287
     83  O         86.3410   35.7720  129.5920 O.2   113  LEU113     -0.2864
     84  CB        85.8070   38.8450  129.0940 C.3   113  LEU113      0.0297
     85  CG        85.7990   40.2460  129.7080 C.3   113  LEU113      0.0022
     86  CD1       84.4280   40.8870  129.5550 C.3   113  LEU113      0.0001
     87  CD2       86.2130   40.1970  131.1700 C.3   113  LEU113      0.0001
     88  N         93.9850   34.4310  131.4620 N.3   118  LYS118     -0.1231
     89  CA        94.5290   35.5560  130.7110 C.3   118  LYS118      0.1693
     90  C         94.2750   36.8560  131.4600 C.2   118  LYS118      0.2593
     91  O         93.1310   37.1910  131.7670 O.2   118  LYS118     -0.2718
     92  CB        93.9240   35.6320  129.3090 C.3   118  LYS118      0.0285
     93  CG        94.4620   36.7880  128.4780 C.3   118  LYS118      0.0035
     94  CD        93.7480   36.8970  127.1430 C.3   118  LYS118      0.0206
     95  CE        94.2630   38.0790  126.3360 C.3   118  LYS118      0.1093
     96  NZ        95.7070   37.9360  125.9950 N.3   118  LYS118     -0.1314
     97  N         95.3450   37.5860  131.7520 N.am  119  SER119     -0.1938
     98  CA        95.2310   38.8270  132.5040 C.3   119  SER119      0.2055
     99  C         95.8000   40.0080  131.7280 C.2   119  SER119      0.2644
    100  O         97.0130   40.1170  131.5450 O.2   119  SER119     -0.2714
    101  CB        95.9380   38.7000  133.8540 C.3   119  SER119      0.2130
    102  OG        95.8330   39.9000  134.5990 O.3   119  SER119     -0.2179
    103  N         94.9160   40.8890  131.2730 N.am  120  GLY120     -0.1939
    104  CA        95.3340   42.1040  130.6010 C.3   120  GLY120      0.2014
    105  C         96.0550   43.0160  131.5710 C.2   120  GLY120      0.2639
    106  O         96.9150   43.8040  131.1800 O.2   120  GLY120     -0.2714
    107  N         95.6970   42.9010  132.8470 N.am  121  THR121     -0.1950
    108  CA        96.3450   43.6610  133.9090 C.3   121  THR121      0.1897
    109  C         97.8030   43.2380  134.0580 C.2   121  THR121      0.2313
    110  O         98.6950   44.0780  134.1770 O.2   121  THR121     -0.2863
    111  CB        95.6130   43.4820  135.2540 C.3   121  THR121      0.1794
    112  OG1       94.3230   44.1020  135.1830 O.3   121  THR121     -0.2208
    113  CG2       96.4040   44.1100  136.3880 C.3   121  THR121      0.0378
    114  N         95.3820   42.4670  139.8480 N.3   140  GLY140     -0.1210
    115  CA        95.2090   41.3020  138.9990 C.3   140  GLY140      0.1956
    116  C         96.5030   40.6140  138.6090 C.2   140  GLY140      0.2612
    117  O         97.4860   41.2660  138.2580 O.2   140  GLY140     -0.2717
    118  N         96.5000   39.2870  138.6800 N.am  141  GLN141     -0.1965
    119  CA        97.6470   38.4860  138.2710 C.3   141  GLN141      0.1733
    120  C         97.1700   37.2430  137.5300 C.2   141  GLN141      0.2616
    121  O         97.5470   37.0050  136.3830 O.2   141  GLN141     -0.2715
    122  CB        98.5000   38.0900  139.4760 C.3   141  GLN141      0.0408
    123  CG        99.8770   37.5700  139.0970 C.3   141  GLN141      0.0908
    124  CD       100.4870   36.6830  140.1630 C.2   141  GLN141      0.2608
    125  OE1       99.9160   36.4990  141.2380 O.2   141  GLN141     -0.2717
    126  NE2      101.6520   36.1180  139.8650 N.am  141  GLN141     -0.0878
    127  N         96.3380   36.4510  138.2010 N.am  142  PHE142     -0.1960
    128  CA        95.6680   35.3250  137.5660 C.3   142  PHE142      0.1771
    129  C         94.6540   35.8720  136.5690 C.2   142  PHE142      0.2620
    130  O         94.3870   37.0690  136.5530 O.2   142  PHE142     -0.2715
    131  CB        94.9780   34.4370  138.6040 C.3   142  PHE142      0.0574
    132  CG        95.7060   34.3570  139.9170 C.ar  142  PHE142     -0.0200
    133  CD1       95.3730   35.2060  140.9610 C.ar  142  PHE142     -0.0042
    134  CD2       96.7200   33.4340  140.1100 C.ar  142  PHE142     -0.0042
    135  CE1       96.0390   35.1380  142.1690 C.ar  142  PHE142     -0.0003
    136  CE2       97.3900   33.3610  141.3180 C.ar  142  PHE142     -0.0003
    137  CZ        97.0490   34.2140  142.3480 C.ar  142  PHE142     -0.0000
    138  N         94.0850   35.0070  135.7410 N.am  143  GLY143     -0.1940
    139  CA        93.0990   35.4570  134.7760 C.3   143  GLY143      0.2014
    140  C         91.7290   34.8710  135.0480 C.2   143  GLY143      0.2639
    141  O         90.9020   34.7630  134.1450 O.2   143  GLY143     -0.2714
    142  N         91.4860   34.5070  136.3030 N.am  144  VAL144     -0.1963
    143  CA        90.2820   33.7670  136.6630 C.3   144  VAL144      0.1727
    144  C         89.3410   34.5400  137.5850 C.2   144  VAL144      0.2617
    145  O         88.2630   34.0520  137.9240 O.2   144  VAL144     -0.2715
    146  CB        90.6450   32.4400  137.3490 C.3   144  VAL144      0.0290
    147  CG1       91.5690   31.6240  136.4590 C.3   144  VAL144      0.0023
    148  CG2       91.2980   32.7060  138.6960 C.3   144  VAL144      0.0023
    149  N         89.7510   35.7380  137.9880 N.am  145  GLY145     -0.1940
    150  CA        88.9810   36.5370  138.9250 C.3   145  GLY145      0.2014
    151  C         87.5740   36.8630  138.4630 C.2   145  GLY145      0.2639
    152  O         86.6140   36.7220  139.2200 O.2   145  GLY145     -0.2714
    153  N         87.4530   37.3000  137.2140 N.am  146  PHE146     -0.1959
    154  CA        86.1630   37.6710  136.6460 C.3   146  PHE146      0.1771
    155  C         85.1910   36.4940  136.6120 C.2   146  PHE146      0.2619
    156  O         83.9830   36.6740  136.7520 O.2   146  PHE146     -0.2715
    157  CB        86.3530   38.2400  135.2370 C.3   146  PHE146      0.0574
    158  CG        85.0780   38.3690  134.4530 C.ar  146  PHE146     -0.0200
    159  CD1       84.2040   39.4150  134.6930 C.ar  146  PHE146     -0.0042
    160  CD2       84.7590   37.4470  133.4680 C.ar  146  PHE146     -0.0042
    161  CE1       83.0320   39.5370  133.9720 C.ar  146  PHE146     -0.0003
    162  CE2       83.5880   37.5640  132.7440 C.ar  146  PHE146     -0.0003
    163  CZ        82.7240   38.6110  132.9950 C.ar  146  PHE146     -0.0000
    164  N         85.7220   35.2890  136.4370 N.am  147  TYR147     -0.1974
    165  CA        84.8830   34.1010  136.3200 C.3   147  TYR147      0.1639
    166  C         84.2860   33.6930  137.6620 C.2   147  TYR147      0.2290
    167  O         83.3680   32.8740  137.7160 O.2   147  TYR147     -0.2864
    168  CB        85.6810   32.9430  135.7220 C.3   147  TYR147      0.0560
    169  CG        86.3210   33.2920  134.4020 C.ar  147  TYR147     -0.0198
    170  CD1       85.5450   33.6560  133.3100 C.ar  147  TYR147     -0.0009
    171  CD2       87.6990   33.2640  134.2460 C.ar  147  TYR147     -0.0009
    172  CE1       86.1230   33.9820  132.1020 C.ar  147  TYR147      0.0417
    173  CE2       88.2860   33.5870  133.0390 C.ar  147  TYR147      0.0417
    174  CZ        87.4930   33.9460  131.9710 C.ar  147  TYR147      0.1957
    175  OH        88.0730   34.2700  130.7660 O.3   147  TYR147     -0.2866
    176  N         83.4110   50.4860  132.3840 N.3   192  THR192     -0.1218
    177  CA        82.7130   49.2150  132.2460 C.3   192  THR192      0.1862
    178  C         81.5660   49.0750  133.2480 C.2   192  THR192      0.2287
    179  O         81.6480   49.5650  134.3730 O.2   192  THR192     -0.2866
    180  CB        83.6850   48.0300  132.4280 C.3   192  THR192      0.1770
    181  OG1       84.9290   48.3230  131.7810 O.3   192  THR192     -0.2211
    182  CG2       83.1000   46.7570  131.8400 C.3   192  THR192      0.0375
    183  N         79.4130   45.9560  134.8480 N.3   194  ILE194     -0.1245
    184  CA        79.2210   44.5170  134.9730 C.3   194  ILE194      0.1561
    185  C         77.8940   44.1950  135.6520 C.2   194  ILE194      0.2260
    186  O         77.7160   44.4370  136.8460 O.2   194  ILE194     -0.2867
    187  CB        80.3700   43.8620  135.7600 C.3   194  ILE194      0.0252
    188  CG1       81.6970   44.0800  135.0300 C.3   194  ILE194      0.0019
    189  CG2       80.1040   42.3770  135.9570 C.3   194  ILE194      0.0019
    190  CD1       82.8950   43.5010  135.7450 C.3   194  ILE194      0.0001
    191  N         93.0600   33.8220  147.2770 N.3   357  ARG357     -0.1245
    192  CA        93.3330   35.1890  147.7200 C.3   357  ARG357      0.1563
    193  C         92.9150   35.4110  149.1710 C.2   357  ARG357      0.2260
    194  O         92.5250   36.5130  149.5550 O.2   357  ARG357     -0.2867
    195  CB        92.6350   36.2040  146.8110 C.3   357  ARG357      0.0307
    196  CG        93.2050   36.2720  145.4030 C.3   357  ARG357      0.0489
    197  CD        92.5180   37.3470  144.5770 C.3   357  ARG357      0.2205
    198  NE        93.1850   37.5570  143.2960 N.pl3 357  ARG357     -0.0865
    199  CZ        94.1930   38.4040  143.1110 C.cat 357  ARG357      0.5346
    200  NH1       94.6520   39.1220  144.1280 N.pl3 357  ARG357      0.1354
    201  NH2       94.7420   38.5320  141.9120 N.pl3 357  ARG357      0.1354
@<TRIPOS>BOND
     1    67    66    2
     2    66    65    1
     3    96    95    1
     4    95    94    1
     5    72    73    1
     6    65    68    1
     7    65    64    1
     8    78    77    2
     9    94    93    1
    10    68    69    1
    11    64    62   am
    12    77    76    1
    13    77    79   am
    14    73    76    1
    15    73    74    1
    16    93    92    1
    17    80    74   am
    18    80    81    1
    19    69    70    1
    20    56    55    2
    21    82    81    1
    22    82    83    2
    23    62    63    2
    24    62    61    1
    25    74    75    2
    26    84    81    1
    27    84    85    1
    28    59    57    1
    29    70    71    1
    30    92    89    1
    31    86    85    1
    32    61    60    1
    33    85    87    1
    34    55    60   am
    35    55    54    1
    36   104   103    1
    37   104   105    1
    38    57    54    1
    39    57    58    1
    40    89    90    1
    41    89    88    1
    42   175   174    1
    43    54    53    1
    44   106   105    2
    45   103    99   am
    46    90    97   am
    47    90    91    2
    48   100    99    2
    49   105   107   am
    50    99    98    1
    51    97    98    1
    52   181   180    1
    53   182   180    1
    54   174   172   ar
    55   174   173   ar
    56   172   170   ar
    57   177   176    1
    58   177   180    1
    59   177   178    1
    60    98   101    1
    61    44    43    1
    62   162   163   ar
    63   162   160   ar
    64   107   108    1
    65    39    38    2
    66    42    43    1
    67    42    41    1
    68   163   161   ar
    69   173   171   ar
    70   178   179    2
    71   170   169   ar
    72    40    41    1
    73    40    37    1
    74   160   158   ar
    75    38    37    1
    76   101   102    1
    77   108   109    1
    78   108   111    1
    79   161   159   ar
    80   109   110    2
    81   141   140    2
    82    37    36    1
    83   171   169   ar
    84   169   168    1
    85   158   159   ar
    86   158   157    1
    87    34    33    2
    88   139   140    1
    89   139   138    1
    90    48    47    2
    91   183   184    1
    92    35    32    1
    93   184   185    1
    94   184   187    1
    95   188   190    1
    96   188   187    1
    97   140   142   am
    98   112   111    1
    99   157   154    1
   100   111   113    1
   101    32    33    1
   102    32    31    1
   103    51    50   ar
   104   185   186    2
   105   168   165    1
   106   138   129   am
   107   187   189    1
   108    47    46    1
   109    52    50   ar
   110    50    49    1
   111    26    25    2
   112   142   143    1
   113   165   164    1
   114   165   166    1
   115   121   120    2
   116   164   155   am
   117    31    25   am
   118   147   146    1
   119   130   129    2
   120   129   128    1
   121   155   154    1
   122   155   156    2
   123   154   153    1
   124   143   146    1
   125   143   144    1
   126    45    46    1
   127    25    24    1
   128    46    49    1
   129    13    12    2
   130   153   151   am
   131   146   148    1
   132   120   127   am
   133   120   119    1
   134   128   127    1
   135   128   131    1
   136   144   145    2
   137   144   149   am
   138    17    15   am
   139   166   167    2
   140    14    15    1
   141    14    11    1
   142    27    24    1
   143    27    28    1
   144    15    16    2
   145   149   150    1
   146    12    11    1
   147    12    18   am
   148    24    23    1
   149   117   116    2
   150   119   118    1
   151   119   122    1
   152    21    20    2
   153    11    10    1
   154   151   150    1
   155   151   152    2
   156    19    18    1
   157    19    20    1
   158    19    22    1
   159   131   132    1
   160   116   118   am
   161   116   115    1
   162    30    28   ar
   163    28    29   ar
   164   115   114    1
   165   123   122    1
   166   123   124    1
   167   126   124   am
   168   132   134   ar
   169   132   133   ar
   170   134   136   ar
   171   124   125    2
   172     4     3    2
   173   133   135   ar
   174   136   137   ar
   175     3     2    1
   176     5     6    1
   177     5     2    1
   178   201   199    1
   179     6     7    1
   180   135   137   ar
   181     2     1    1
   182   199   198    2
   183   199   200    1
   184   198   197    1
   185     7     9   ar
   186     7     8   ar
   187   197   196    1
   188   196   195    1
   189   195   192    1
   190   191   192    1
   191   192   193    1
   192   193   194    2
