@<TRIPOS>MOLECULE
tmp/5um0B00.pdb
 131 123 0 0 0
SMALL
GASTEIGER

@<TRIPOS>ATOM
      1  N         50.5170   -7.0840   98.7590 N.3    10  ARG10      -0.1245
      2  CA        50.2910   -6.1950   97.6270 C.3    10  ARG10       0.1563
      3  C         49.2090   -6.7990   96.7380 C.2    10  ARG10       0.2260
      4  O         49.2340   -8.0070   96.4700 O.2    10  ARG10      -0.2867
      5  CB        51.5900   -6.0190   96.8500 C.3    10  ARG10       0.0307
      6  CG        51.4710   -5.1650   95.6140 C.3    10  ARG10       0.0489
      7  CD        52.8010   -5.2010   94.8860 C.3    10  ARG10       0.2205
      8  NE        52.7530   -4.3850   93.6870 N.pl3  10  ARG10      -0.0865
      9  CZ        53.8160   -4.0600   92.9590 C.cat  10  ARG10       0.5346
     10  NH1       55.0310   -4.4860   93.3100 N.pl3  10  ARG10       0.1354
     11  NH2       53.6560   -3.2980   91.8850 N.pl3  10  ARG10       0.1354
     12  N         46.9100   -3.3060   84.1110 N.3    17  ASN17      -0.1240
     13  CA        48.2760   -3.8060   84.0080 C.3    17  ASN17       0.1653
     14  C         48.5510   -4.4210   82.6340 C.2    17  ASN17       0.2266
     15  O         49.5910   -4.1380   82.0310 O.2    17  ASN17      -0.2867
     16  CB        48.5610   -4.7840   85.1520 C.3    17  ASN17       0.1155
     17  CG        48.4830   -4.1070   86.5360 C.2    17  ASN17       0.2627
     18  OD1       48.2390   -4.7560   87.5570 O.2    17  ASN17      -0.2716
     19  ND2       48.6810   -2.7910   86.5610 N.am   17  ASN17      -0.0877
     20  N         49.1220    0.5140   81.5240 N.3    21  LEU21      -0.1231
     21  CA        48.7150    1.8840   81.8280 C.3    21  LEU21       0.1693
     22  C         49.1740    2.2540   83.2300 C.2    21  LEU21       0.2592
     23  O         48.9720    1.4850   84.1720 O.2    21  LEU21      -0.2718
     24  CB        47.1930    2.0590   81.7290 C.3    21  LEU21       0.0284
     25  CG        46.4820    1.8580   80.3830 C.3    21  LEU21       0.0019
     26  CD1       44.9780    2.0480   80.5490 C.3    21  LEU21       0.0001
     27  CD2       47.0160    2.7910   79.2880 C.3    21  LEU21       0.0001
     28  N         49.7970    3.4250   83.3630 N.am   22  PHE22      -0.1962
     29  CA        50.0570    3.9750   84.6870 C.3    22  PHE22       0.1771
     30  C         48.7360    4.1920   85.4000 C.2    22  PHE22       0.2620
     31  O         47.8160    4.7930   84.8360 O.2    22  PHE22      -0.2715
     32  CB        50.8100    5.3030   84.5860 C.3    22  PHE22       0.0574
     33  CG        52.2060    5.1790   84.0400 C.ar   22  PHE22      -0.0200
     34  CD1       53.1930    4.5390   84.7690 C.ar   22  PHE22      -0.0042
     35  CD2       52.5270    5.7150   82.8040 C.ar   22  PHE22      -0.0042
     36  CE1       54.4870    4.4320   84.2720 C.ar   22  PHE22      -0.0003
     37  CE2       53.8190    5.6170   82.2990 C.ar   22  PHE22      -0.0003
     38  CZ        54.7960    4.9690   83.0350 C.ar   22  PHE22      -0.0000
     39  N         48.6470    3.7230   86.6460 N.am   23  THR23      -0.1937
     40  CA        47.3930    3.7400   87.3780 C.3    23  THR23       0.2028
     41  C         47.3560    4.7900   88.4810 C.2    23  THR23       0.2642
     42  O         46.4690    5.6500   88.4670 O.2    23  THR23      -0.2714
     43  CB        47.1010    2.3550   87.9550 C.3    23  THR23       0.1808
     44  OG1       47.1030    1.4190   86.8770 O.3    23  THR23      -0.2208
     45  CG2       45.7430    2.3720   88.5860 C.3    23  THR23       0.0379
     46  N         48.2760    4.7340   89.4460 N.am   24  GLY24      -0.1954
     47  CA        48.2550    5.7380   90.5090 C.3    24  GLY24       0.1869
     48  C         46.9570    5.6980   91.3080 C.2    24  GLY24       0.2309
     49  O         46.4850    4.6270   91.7200 O.2    24  GLY24      -0.2863
     50  N         40.7920   -1.7640   94.3730 N.3    62  ARG62      -0.1245
     51  CA        41.5870   -2.9640   94.1260 C.3    62  ARG62       0.1563
     52  C         42.2850   -3.4590   95.3910 C.2    62  ARG62       0.2260
     53  O         42.4870   -4.6700   95.5530 O.2    62  ARG62      -0.2867
     54  CB        42.6140   -2.7100   93.0180 C.3    62  ARG62       0.0307
     55  CG        43.6870   -1.6460   93.3460 C.3    62  ARG62       0.0489
     56  CD        44.3500   -1.2210   92.0180 C.3    62  ARG62       0.2205
     57  NE        45.4710   -0.2780   92.1270 N.pl3  62  ARG62      -0.0865
     58  CZ        45.3500    1.0430   92.0000 C.cat  62  ARG62       0.5346
     59  NH1       44.1430    1.5910   91.8220 N.pl3  62  ARG62       0.1354
     60  NH2       46.4320    1.8170   92.0470 N.pl3  62  ARG62       0.1354
     61  N         48.2650    3.9870   96.5420 N.3    89  GLU89      -0.1231
     62  CA        49.3680    3.9340   95.5980 C.3    89  GLU89       0.1699
     63  C         49.9420    5.3390   95.3790 C.2    89  GLU89       0.2592
     64  O         49.2800    6.3540   95.6000 O.2    89  GLU89      -0.2718
     65  CB        48.8610    3.3230   94.2850 C.3    89  GLU89       0.0402
     66  CG        49.8770    3.2160   93.1390 C.3    89  GLU89       0.1161
     67  CD        50.9900    2.2320   93.4650 C.2    89  GLU89       0.3649
     68  OE1       50.8830    1.0700   93.0380 O.co2  89  GLU89      -0.2457
     69  OE2       51.9500    2.6120   94.1640 O.co2  89  GLU89      -0.2457
     70  N         51.2000    5.3980   94.9560 N.am   90  ARG90      -0.1980
     71  CA        51.7920    6.6770   94.5720 C.3    90  ARG90       0.1597
     72  C         50.9830    7.3030   93.4340 C.2    90  ARG90       0.2287
     73  O         50.6700    6.6360   92.4480 O.2    90  ARG90      -0.2864
     74  CB        53.2500    6.4500   94.1580 C.3    90  ARG90       0.0334
     75  CG        53.9350    7.6280   93.4750 C.3    90  ARG90       0.0492
     76  CD        53.9980    7.4290   91.9610 C.3    90  ARG90       0.2205
     77  NE        55.0690    6.5230   91.5620 N.pl3  90  ARG90      -0.0865
     78  CZ        56.1980    6.9200   90.9730 C.cat  90  ARG90       0.5346
     79  NH1       56.3940    8.2040   90.7090 N.pl3  90  ARG90       0.1354
     80  NH2       57.1290    6.0340   90.6450 N.pl3  90  ARG90       0.1354
     81  N         50.5310    9.1490   90.1090 N.3    92  TYR92      -0.1241
     82  CA        51.4370    9.2520   88.9670 C.3    92  TYR92       0.1605
     83  C         51.2200   10.5050   88.1290 C.2    92  TYR92       0.2264
     84  O         51.7210   10.5780   87.0000 O.2    92  TYR92      -0.2867
     85  CB        51.3240    8.0210   88.0700 C.3    92  TYR92       0.0534
     86  CG        52.6270    7.2900   87.9320 C.ar   92  TYR92      -0.0201
     87  CD1       52.7110    5.9250   88.1680 C.ar   92  TYR92      -0.0009
     88  CD2       53.7840    7.9650   87.5540 C.ar   92  TYR92      -0.0009
     89  CE1       53.9190    5.2490   88.0380 C.ar   92  TYR92       0.0417
     90  CE2       54.9930    7.3000   87.4130 C.ar   92  TYR92       0.0417
     91  CZ        55.0560    5.9440   87.6550 C.ar   92  TYR92       0.1957
     92  OH        56.2620    5.2890   87.5190 O.3    92  TYR92      -0.2866
     93  N         52.4940    3.1920   78.6380 N.3   100  LYS100     -0.1245
     94  CA        53.9200    3.3630   78.9050 C.3   100  LYS100      0.1561
     95  C         54.7120    3.5940   77.6220 C.2   100  LYS100      0.2260
     96  O         55.7190    4.3130   77.6370 O.2   100  LYS100     -0.2867
     97  CB        54.4530    2.1580   79.6760 C.3   100  LYS100      0.0271
     98  CG        53.6020    1.8490   80.8970 C.3   100  LYS100      0.0035
     99  CD        54.4010    1.3380   82.0830 C.3   100  LYS100      0.0206
    100  CE        53.4700    1.0830   83.2650 C.3   100  LYS100      0.1093
    101  NZ        54.1970    0.8610   84.5460 N.3   100  LYS100     -0.1314
    102  N         60.4650    6.5120   87.0140 N.3   116  ARG116     -0.1245
    103  CA        60.1950    5.2100   87.6030 C.3   116  ARG116      0.1563
    104  C         61.3570    4.6630   88.4220 C.2   116  ARG116      0.2260
    105  O         61.1970    3.6210   89.0670 O.2   116  ARG116     -0.2867
    106  CB        59.8250    4.1950   86.5060 C.3   116  ARG116      0.0307
    107  CG        59.4080    2.8380   87.0730 C.3   116  ARG116      0.0489
    108  CD        58.9400    1.8820   85.9870 C.3   116  ARG116      0.2205
    109  NE        59.9890    1.6180   85.0100 N.pl3 116  ARG116     -0.0865
    110  CZ        60.0000    2.0800   83.7640 C.cat 116  ARG116      0.5346
    111  NH1       59.0070    2.8410   83.3150 N.pl3 116  ARG116      0.1354
    112  NH2       61.0220    1.7900   82.9700 N.pl3 116  ARG116      0.1354
    113  N         53.9600    0.8870   95.9970 N.3   186  ASN186     -0.1240
    114  CA        54.7760    1.9790   96.5200 C.3   186  ASN186      0.1653
    115  C         54.4850    2.3070   97.9820 C.2   186  ASN186      0.2266
    116  O         55.4050    2.6970   98.7110 O.2   186  ASN186     -0.2867
    117  CB        54.6070    3.2160   95.6340 C.3   186  ASN186      0.1155
    118  CG        55.3980    3.0930   94.3420 C.2   186  ASN186      0.2627
    119  OD1       56.6290    3.0140   94.3730 O.2   186  ASN186     -0.2716
    120  ND2       54.7020    3.0290   93.2080 N.am  186  ASN186     -0.0877
    121  N         56.2060   -0.3990   99.8200 N.3   189  ARG189     -0.1245
    122  CA        57.6400   -0.1490   99.7310 C.3   189  ARG189      0.1563
    123  C         58.0640    0.9610  100.6850 C.2   189  ARG189      0.2260
    124  O         59.1440    0.8890  101.2910 O.2   189  ARG189     -0.2867
    125  CB        58.0370    0.2000   98.2960 C.3   189  ARG189      0.0307
    126  CG        59.5190    0.4880   98.1470 C.3   189  ARG189      0.0489
    127  CD        60.1070   -0.1340   96.8900 C.3   189  ARG189      0.2205
    128  NE        59.9240    0.7160   95.7210 N.pl3 189  ARG189     -0.0865
    129  CZ        58.9890    0.5240   94.8000 C.cat 189  ARG189      0.5346
    130  NH1       58.1520   -0.4990   94.9060 N.pl3 189  ARG189      0.1354
    131  NH2       58.8960    1.3530   93.7700 N.pl3 189  ARG189      0.1354
@<TRIPOS>BOND
     1    95    96    2
     2    95    94    1
     3    93    94    1
     4    94    97    1
     5    27    25    1
     6    97    98    1
     7    25    26    1
     8    25    24    1
     9    98    99    1
    10    20    21    1
    11    24    21    1
    12    21    22    1
    13    15    14    2
    14    99   100    1
    15    37    35   ar
    16    37    38   ar
    17    14    13    1
    18    35    33   ar
    19   112   110    1
    20    38    36   ar
    21    22    28   am
    22    22    23    2
    23   100   101    1
    24   111   110    1
    25    28    29    1
    26   110   109    2
    27    13    12    1
    28    13    16    1
    29    33    32    1
    30    33    34   ar
    31    36    34   ar
    32    32    29    1
    33    29    30    1
    34    31    30    2
    35   109   108    1
    36    16    17    1
    37    30    39   am
    38   108   107    1
    39   106   107    1
    40   106   103    1
    41    17    19   am
    42    17    18    2
    43    39    40    1
    44    44    43    1
    45    84    83    2
    46   102   103    1
    47    40    43    1
    48    40    41    1
    49    90    88   ar
    50    90    91   ar
    51    92    91    1
    52    88    86   ar
    53   103   104    1
    54    91    89   ar
    55    86    85    1
    56    86    87   ar
    57    43    45    1
    58    89    87   ar
    59    85    82    1
    60    83    82    1
    61   104   105    2
    62    42    41    2
    63    41    46   am
    64    82    81    1
    65    46    47    1
    66    47    48    1
    67    80    78    1
    68    79    78    1
    69    78    77    2
    70    48    49    2
    71    77    76    1
    72    59    58    1
    73    11     9    1
    74    76    75    1
    75    58    60    1
    76    58    57    2
    77    56    57    1
    78    56    55    1
    79    73    72    2
    80     9    10    1
    81     9     8    2
    82    54    55    1
    83    54    51    1
    84    68    67   ar
    85    66    67    1
    86    66    65    1
    87   120   118   am
    88    72    71    1
    89    67    69   ar
    90    75    74    1
    91     8     7    1
    92   131   129    1
    93    51    50    1
    94    51    52    1
    95    74    71    1
    96    65    62    1
    97   118   119    2
    98   118   117    1
    99    71    70    1
   100   129   130    1
   101   129   128    2
   102     7     6    1
   103    70    63   am
   104    63    62    1
   105    63    64    2
   106    52    53    2
   107    62    61    1
   108     6     5    1
   109   117   114    1
   110   128   127    1
   111   113   114    1
   112     4     3    2
   113   114   115    1
   114     3     2    1
   115     5     2    1
   116   127   126    1
   117     2     1    1
   118   115   116    2
   119   126   125    1
   120   125   122    1
   121   122   121    1
   122   122   123    1
   123   123   124    2
