@<TRIPOS>MOLECULE
tmp/5um6A00.pdb
 143 134 0 0 0
SMALL
GASTEIGER

@<TRIPOS>ATOM
      1  N        155.8470  166.3960  263.4220 N.3    10  LYS10      -0.1245
      2  CA       155.1180  166.7900  262.2250 C.3    10  LYS10       0.1561
      3  C        154.4040  168.1160  262.5010 C.2    10  LYS10       0.2260
      4  O        154.8260  168.8940  263.3600 O.2    10  LYS10      -0.2867
      5  CB       154.1590  165.6780  261.7940 C.3    10  LYS10       0.0271
      6  CG       154.8160  164.5380  261.0380 C.3    10  LYS10       0.0035
      7  CD       153.8550  163.9640  260.0040 C.3    10  LYS10       0.0206
      8  CE       154.4420  162.7630  259.2750 C.3    10  LYS10       0.1093
      9  NZ       154.5800  161.5740  260.1620 N.3    10  LYS10      -0.1314
     10  N        161.5480  164.1890  270.0470 N.3    31  TYR31      -0.1241
     11  CA       161.8970  162.8750  269.5130 C.3    31  TYR31       0.1605
     12  C        161.1980  162.7000  268.1730 C.2    31  TYR31       0.2264
     13  O        159.9710  162.5680  268.1270 O.2    31  TYR31      -0.2867
     14  CB       161.5040  161.7490  270.4690 C.3    31  TYR31       0.0534
     15  CG       161.6960  160.3800  269.8510 C.ar   31  TYR31      -0.0201
     16  CD1      160.6220  159.6740  269.3180 C.ar   31  TYR31      -0.0009
     17  CD2      162.9580  159.8060  269.7710 C.ar   31  TYR31      -0.0009
     18  CE1      160.8000  158.4310  268.7420 C.ar   31  TYR31       0.0417
     19  CE2      163.1440  158.5630  269.1970 C.ar   31  TYR31       0.0417
     20  CZ       162.0630  157.8800  268.6830 C.ar   31  TYR31       0.1957
     21  OH       162.2500  156.6410  268.1090 O.3    31  TYR31      -0.2866
     22  N        163.1240  160.8120  264.7920 N.3    33  PRO33      -0.2102
     23  CA       164.2550  160.4820  263.9140 C.3    33  PRO33       0.1504
     24  C        163.8880  160.3450  262.4450 C.2    33  PRO33       0.2575
     25  O        164.7980  160.2270  261.6130 O.2    33  PRO33      -0.2718
     26  CB       164.7520  159.1360  264.4710 C.3    33  PRO33       0.0282
     27  CG       164.0270  158.9350  265.7830 C.3    33  PRO33       0.0208
     28  CD       162.7460  159.6800  265.6520 C.3    33  PRO33       0.0893
     29  N        162.6040  160.3580  262.0960 N.am   34  GLN34      -0.1980
     30  CA       162.2070  160.0640  260.7260 C.3    34  GLN34       0.1601
     31  C        162.6670  161.1690  259.7760 C.2    34  GLN34       0.2287
     32  O        162.6770  162.3470  260.1440 O.2    34  GLN34      -0.2864
     33  CB       160.6910  159.8880  260.6280 C.3    34  GLN34       0.0394
     34  CG       160.2170  158.4530  260.8260 C.3    34  GLN34       0.0908
     35  CD       160.7100  157.8430  262.1270 C.2    34  GLN34       0.2608
     36  OE1      160.3200  158.2700  263.2140 O.2    34  GLN34      -0.2717
     37  NE2      161.5740  156.8400  262.0200 N.am   34  GLN34      -0.0878
     38  N        163.4130  165.0810  261.3060 N.3    56  ARG56      -0.1245
     39  CA       162.5720  166.2470  261.5620 C.3    56  ARG56       0.1563
     40  C        162.9230  166.9340  262.8760 C.2    56  ARG56       0.2260
     41  O        162.8020  168.1590  262.9830 O.2    56  ARG56      -0.2867
     42  CB       161.0980  165.8420  261.5610 C.3    56  ARG56       0.0307
     43  CG       160.5580  165.4600  260.1960 C.3    56  ARG56       0.0489
     44  CD       159.0490  165.2710  260.2260 C.3    56  ARG56       0.2205
     45  NE       158.6600  164.0560  260.9360 N.pl3  56  ARG56      -0.0865
     46  CZ       158.2940  162.9270  260.3390 C.cat  56  ARG56       0.5346
     47  NH1      158.2630  162.8560  259.0150 N.pl3  56  ARG56       0.1354
     48  NH2      157.9560  161.8680  261.0640 N.pl3  56  ARG56       0.1354
     49  N        165.1190  156.3910  272.6280 N.3    79  LEU79      -0.1231
     50  CA       164.0540  156.5370  273.6180 C.3    79  LEU79       0.1693
     51  C        164.0210  155.3040  274.5100 C.2    79  LEU79       0.2593
     52  O        163.7240  154.2000  274.0400 O.2    79  LEU79      -0.2718
     53  CB       162.7040  156.7480  272.9390 C.3    79  LEU79       0.0284
     54  CG       161.6760  157.5200  273.7600 C.3    79  LEU79       0.0019
     55  CD1      161.6920  158.9970  273.3830 C.3    79  LEU79       0.0001
     56  CD2      160.3040  156.9090  273.5610 C.3    79  LEU79       0.0001
     57  N        164.3160  155.4960  275.7910 N.am   80  SER80      -0.1938
     58  CA       164.2460  154.4460  276.7950 C.3    80  SER80       0.2055
     59  C        162.9690  154.5840  277.6130 C.2    80  SER80       0.2643
     60  O        162.3840  155.6650  277.7200 O.2    80  SER80      -0.2714
     61  CB       165.4650  154.4970  277.7210 C.3    80  SER80       0.2130
     62  OG       165.3220  153.5890  278.8010 O.3    80  SER80      -0.2179
     63  N        162.5400  153.4660  278.1990 N.am   81  THR81      -0.1950
     64  CA       161.3400  153.4980  279.0280 C.3    81  THR81       0.1897
     65  C        161.5990  154.2090  280.3510 C.2    81  THR81       0.2313
     66  O        160.7330  154.9360  280.8500 O.2    81  THR81      -0.2863
     67  CB       160.8220  152.0810  279.2690 C.3    81  THR81       0.1794
     68  OG1      159.8330  152.1080  280.3050 O.3    81  THR81      -0.2208
     69  CG2      161.9620  151.1500  279.6680 C.3    81  THR81       0.0378
     70  N        151.6990  161.0420  266.2660 N.3    94  GLU94      -0.1231
     71  CA       152.1520  160.2550  265.1160 C.3    94  GLU94       0.1699
     72  C        152.6300  158.8680  265.5420 C.2    94  GLU94       0.2593
     73  O        153.6320  158.3490  265.0450 O.2    94  GLU94      -0.2718
     74  CB       153.2440  160.9930  264.3380 C.3    94  GLU94       0.0402
     75  CG       152.7230  161.8750  263.2130 C.3    94  GLU94       0.1161
     76  CD       152.0890  163.1620  263.7090 C.2    94  GLU94       0.3649
     77  OE1      152.5470  163.6930  264.7440 O.co2  94  GLU94      -0.2457
     78  OE2      151.1340  163.6450  263.0620 O.co2  94  GLU94      -0.2457
     79  N        151.8930  158.2530  266.4630 N.am   95  THR95      -0.1939
     80  CA       152.3110  157.0110  267.0940 C.3    95  THR95       0.2028
     81  C        151.1720  156.0040  267.0630 C.2    95  THR95       0.2642
     82  O        150.0160  156.3510  267.3280 O.2    95  THR95      -0.2714
     83  CB       152.7590  157.2660  268.5420 C.3    95  THR95       0.1808
     84  OG1      153.9330  158.0900  268.5400 O.3    95  THR95      -0.2208
     85  CG2      153.0600  155.9670  269.2650 C.3    95  THR95       0.0379
     86  N        151.5050  154.7590  266.7270 N.am   96  SER96      -0.1949
     87  CA       150.5110  153.6960  266.7080 C.3    96  SER96       0.1924
     88  C        149.9650  153.4470  268.1090 C.2    96  SER96       0.2314
     89  O        150.6260  153.7160  269.1160 O.2    96  SER96      -0.2863
     90  CB       151.1190  152.4090  266.1420 C.3    96  SER96       0.2116
     91  OG       152.3010  152.0470  266.8380 O.3    96  SER96      -0.2180
     92  N        152.3130  151.3290  270.5000 N.3    99  LYS99      -0.1245
     93  CA       153.3380  151.9940  271.2960 C.3    99  LYS99       0.1561
     94  C        152.7270  152.8800  272.3760 C.2    99  LYS99       0.2260
     95  O        153.3200  153.0390  273.4490 O.2    99  LYS99      -0.2867
     96  CB       154.2560  152.8110  270.3880 C.3    99  LYS99       0.0271
     97  CG       154.8050  152.0370  269.1970 C.3    99  LYS99       0.0035
     98  CD       155.7650  150.9310  269.6260 C.3    99  LYS99       0.0206
     99  CE       157.0180  151.5020  270.2770 C.3    99  LYS99       0.1093
    100  NZ       158.0100  150.4420  270.6220 N.3    99  LYS99      -0.1314
    101  N        152.1200  150.7660  275.3750 N.3   102  GLU102     -0.1245
    102  CA       153.3970  150.4700  276.0140 C.3   102  GLU102      0.1567
    103  C        153.9090  151.6760  276.7910 C.2   102  GLU102      0.2260
    104  O        154.4510  151.5310  277.8930 O.2   102  GLU102     -0.2867
    105  CB       154.4150  150.0290  274.9610 C.3   102  GLU102      0.0388
    106  CG       155.7700  149.6120  275.5130 C.3   102  GLU102      0.1160
    107  CD       156.7580  149.2390  274.4170 C.2   102  GLU102      0.3649
    108  OE1      157.9820  149.3010  274.6680 O.co2 102  GLU102     -0.2457
    109  OE2      156.3100  148.8880  273.3040 O.co2 102  GLU102     -0.2457
    110  N        144.2160  164.0380  262.0060 N.3   120  ARG120     -0.1245
    111  CA       143.9350  163.1280  260.8950 C.3   120  ARG120      0.1563
    112  C        142.8390  163.7350  260.0220 C.2   120  ARG120      0.2260
    113  O        141.6530  163.4610  260.2130 O.2   120  ARG120     -0.2867
    114  CB       143.5390  161.7520  261.4160 C.3   120  ARG120      0.0307
    115  CG       144.6500  161.0550  262.1860 C.3   120  ARG120      0.0489
    116  CD       145.7280  160.5260  261.2510 C.3   120  ARG120      0.2205
    117  NE       146.9690  160.2290  261.9630 N.pl3 120  ARG120     -0.0865
    118  CZ       148.1030  160.9020  261.7970 C.cat 120  ARG120      0.5346
    119  NH1      148.1600  161.9040  260.9310 N.pl3 120  ARG120      0.1354
    120  NH2      149.1850  160.5680  262.4910 N.pl3 120  ARG120      0.1354
    121  N        147.3790  150.7540  259.9390 N.3   266  ALA266     -0.1245
    122  CA       148.8000  151.0480  259.7910 C.3   266  ALA266      0.1562
    123  C        149.6600  149.8330  260.1040 C.2   266  ALA266      0.2260
    124  O        150.7360  149.6680  259.5190 O.2   266  ALA266     -0.2867
    125  CB       149.1910  152.2170  260.6940 C.3   266  ALA266      0.0290
    126  N        153.0290  150.7550  258.5270 N.3   271  GLY271     -0.1210
    127  CA       152.7940  152.0190  259.1940 C.3   271  GLY271      0.1956
    128  C        152.1190  153.0790  258.3530 C.2   271  GLY271      0.2613
    129  O        151.9300  154.2010  258.8400 O.2   271  GLY271     -0.2717
    130  N        151.7500  152.7710  257.1130 N.am  272  SER272     -0.1938
    131  CA       151.1030  153.7510  256.2560 C.3   272  SER272      0.2055
    132  C        149.6060  153.8150  256.5380 C.2   272  SER272      0.2642
    133  O        148.9770  152.8210  256.9150 O.2   272  SER272     -0.2714
    134  CB       151.3440  153.4220  254.7810 C.3   272  SER272      0.2130
    135  OG       152.6930  153.6570  254.4170 O.3   272  SER272     -0.2179
    136  N        149.0380  155.0070  256.3540 N.am  273  LEU273     -0.1977
    137  CA       147.6100  155.2390  256.5010 C.3   273  LEU273      0.1596
    138  C        146.9000  155.0140  255.1720 C.2   273  LEU273      0.2287
    139  O        147.5430  154.9640  254.1190 O.2   273  LEU273     -0.2864
    140  CB       147.3610  156.6610  257.0030 C.3   273  LEU273      0.0297
    141  CG       147.9690  157.0020  258.3620 C.3   273  LEU273      0.0022
    142  CD1      149.2600  157.7930  258.1990 C.3   273  LEU273      0.0001
    143  CD2      146.9710  157.7650  259.2040 C.3   273  LEU273      0.0001
@<TRIPOS>BOND
     1   139   138    2
     2   135   134    1
     3   134   131    1
     4   138   137    1
     5   131   132    1
     6   131   130    1
     7   136   137    1
     8   136   132   am
     9   137   140    1
    10   132   133    2
    11   140   141    1
    12   130   128   am
    13   142   141    1
    14   128   129    2
    15   128   127    1
    16   141   143    1
    17   126   127    1
    18    47    46    1
    19     8     7    1
    20     8     9    1
    21   124   123    2
    22    31    32    2
    23    31    30    1
    24   122   121    1
    25   122   123    1
    26   122   125    1
    27     7     6    1
    28   112   113    2
    29   112   111    1
    30    43    44    1
    31    43    42    1
    32    44    45    1
    33    46    45    2
    34    46    48    1
    35    33    30    1
    36    33    34    1
    37    30    29    1
    38    34    35    1
    39   111   114    1
    40   111   110    1
    41   119   118    1
    42     6     5    1
    43   116   117    1
    44   116   115    1
    45    38    39    1
    46   114   115    1
    47    42    39    1
    48    39    40    1
    49    25    24    2
    50     5     2    1
    51   118   117    2
    52   118   120    1
    53    37    35   am
    54    29    24   am
    55    35    36    2
    56     2     3    1
    57     2     1    1
    58    24    23    1
    59     3     4    2
    60    40    41    2
    61    78    76   ar
    62    75    76    1
    63    75    74    1
    64    76    77   ar
    65    23    26    1
    66    23    22    1
    67    74    71    1
    68    26    27    1
    69    22    28    1
    70    73    72    2
    71    71    72    1
    72    71    70    1
    73    72    79   am
    74    28    27    1
    75    90    87    1
    76    90    91    1
    77    79    80    1
    78    87    86    1
    79    87    88    1
    80    86    81   am
    81    81    80    1
    82    81    82    2
    83    80    83    1
    84    88    89    2
    85    21    20    1
    86    13    12    2
    87    12    11    1
    88    84    83    1
    89    83    85    1
    90    20    18   ar
    91    20    19   ar
    92    18    16   ar
    93    19    17   ar
    94    97    98    1
    95    97    96    1
    96    16    15   ar
    97    11    10    1
    98    11    14    1
    99    98    99    1
   100    17    15   ar
   101    15    14    1
   102    99   100    1
   103    96    93    1
   104    92    93    1
   105    93    94    1
   106    94    95    2
   107    49    50    1
   108    53    50    1
   109    53    54    1
   110   109   107   ar
   111    55    54    1
   112    56    54    1
   113    50    51    1
   114    52    51    2
   115   107   108   ar
   116   107   106    1
   117    51    57   am
   118   105   106    1
   119   105   102    1
   120   101   102    1
   121    57    58    1
   122   102   103    1
   123   103   104    2
   124    58    59    1
   125    58    61    1
   126    59    60    2
   127    59    63   am
   128    61    62    1
   129    63    64    1
   130    64    67    1
   131    64    65    1
   132    67    69    1
   133    67    68    1
   134    65    66    2
