@<TRIPOS>MOLECULE
tmp/5um8A04.pdb
 102 100 0 0 0
SMALL
GASTEIGER

@<TRIPOS>ATOM
      1  N       -453.6400  -59.5430   14.8930 N.3   178  ASP178     -0.1225
      2  CA      -453.9210  -60.6810   14.0290 C.3   178  ASP178      0.1790
      3  C       -453.2520  -60.4940   12.6690 C.2   178  ASP178      0.2439
      4  O       -453.4280  -59.4440   12.0350 O.2   178  ASP178     -0.2733
      5  CB      -455.4290  -60.8690   13.8580 C.3   178  ASP178      0.1423
      6  CG      -456.1170  -59.6290   13.3190 C.2   178  ASP178      0.3668
      7  OD1     -455.6620  -58.5090   13.6340 O.co2 178  ASP178     -0.2456
      8  OD2     -457.1120  -59.7750   12.5790 O.co2 178  ASP178     -0.2456
      9  N       -452.4720  -61.4670   12.1980 N.am  179  PRO179     -0.2729
     10  CA      -451.8270  -61.3260   10.8860 C.3   179  PRO179      0.1401
     11  C       -452.8550  -61.3750    9.7650 C.2   179  PRO179      0.2269
     12  O       -453.7020  -62.2700    9.7160 O.2   179  PRO179     -0.2865
     13  CB      -450.8680  -62.5210   10.8290 C.3   179  PRO179      0.0296
     14  CG      -451.4660  -63.5230   11.7600 C.3   179  PRO179      0.0237
     15  CD      -452.1070  -62.7290   12.8630 C.3   179  PRO179      0.0939
     16  N       -446.8000  -64.0310    9.9930 N.3   221  VAL221     -0.1231
     17  CA      -446.8980  -64.7660   11.2480 C.3   221  VAL221      0.1692
     18  C       -445.5180  -64.8390   11.8830 C.2   221  VAL221      0.2591
     19  O       -444.5440  -65.2410   11.2360 O.2   221  VAL221     -0.2718
     20  CB      -447.4770  -66.1710   11.0190 C.3   221  VAL221      0.0266
     21  CG1     -447.5660  -66.9270   12.3360 C.3   221  VAL221      0.0020
     22  CG2     -448.8440  -66.0740   10.3560 C.3   221  VAL221      0.0020
     23  N       -445.4330  -64.4470   13.1520 N.am  222  VAL222     -0.1980
     24  CA      -444.1890  -64.4710   13.9110 C.3   222  VAL222      0.1595
     25  C       -444.2350  -65.6570   14.8610 C.2   222  VAL222      0.2287
     26  O       -445.2290  -65.8550   15.5710 O.2   222  VAL222     -0.2864
     27  CB      -443.9840  -63.1550   14.6770 C.3   222  VAL222      0.0276
     28  CG1     -442.5240  -62.9910   15.0740 C.3   222  VAL222      0.0022
     29  CG2     -444.4610  -61.9860   13.8350 C.3   222  VAL222      0.0022
     30  N       -446.4390  -71.6280   11.4510 N.3   228  LEU228     -0.1231
     31  CA      -447.8240  -72.0640   11.3560 C.3   228  LEU228      0.1693
     32  C       -448.6380  -71.0680   10.5390 C.2   228  LEU228      0.2592
     33  O       -448.2140  -69.9370   10.2880 O.2   228  LEU228     -0.2718
     34  CB      -448.4440  -72.2780   12.7530 C.3   228  LEU228      0.0284
     35  CG      -448.5500  -71.2230   13.8710 C.3   228  LEU228      0.0019
     36  CD1     -447.2080  -70.5960   14.2600 C.3   228  LEU228      0.0001
     37  CD2     -449.5850  -70.1460   13.5560 C.3   228  LEU228      0.0001
     38  N       -449.8290  -71.5180   10.1320 N.am  229  ASN229     -0.1974
     39  CA      -450.7410  -70.7420    9.2860 C.3   229  ASN229      0.1688
     40  C       -450.0540  -70.2810    8.0030 C.2   229  ASN229      0.2292
     41  O       -450.2960  -69.1820    7.5000 O.2   229  ASN229     -0.2864
     42  CB      -451.3280  -69.5500   10.0440 C.3   229  ASN229      0.1181
     43  CG      -452.3230  -69.9610   11.1180 C.2   229  ASN229      0.2629
     44  OD1     -452.2400  -71.0510   11.6840 O.2   229  ASN229     -0.2716
     45  ND2     -453.2740  -69.0750   11.3980 N.am  229  ASN229     -0.0877
     46  N       -445.1680  -67.1830   20.5180 N.3   341  PHE341     -0.1227
     47  CA      -446.0560  -66.6140   19.5060 C.3   341  PHE341      0.1736
     48  C       -447.1270  -65.7950   20.2190 C.2   341  PHE341      0.2595
     49  O       -447.0200  -65.5080   21.4170 O.2   341  PHE341     -0.2718
     50  CB      -446.6670  -67.7070   18.6260 C.3   341  PHE341      0.0547
     51  CG      -447.5050  -68.6950   19.3840 C.ar  341  PHE341     -0.0202
     52  CD1     -446.9170  -69.7670   20.0340 C.ar  341  PHE341     -0.0042
     53  CD2     -448.8810  -68.5530   19.4460 C.ar  341  PHE341     -0.0042
     54  CE1     -447.6850  -70.6750   20.7340 C.ar  341  PHE341     -0.0003
     55  CE2     -449.6530  -69.4590   20.1440 C.ar  341  PHE341     -0.0003
     56  CZ      -449.0530  -70.5190   20.7880 C.ar  341  PHE341     -0.0000
     57  N       -448.1630  -65.4210   19.4720 N.am  342  ASN342     -0.1960
     58  CA      -449.2770  -64.6360   19.9800 C.3   342  ASN342      0.1819
     59  C       -450.5810  -65.3610   19.6800 C.2   342  ASN342      0.2621
     60  O       -450.7110  -66.0390   18.6580 O.2   342  ASN342     -0.2715
     61  CB      -449.2950  -63.2320   19.3540 C.3   342  ASN342      0.1195
     62  CG      -450.5470  -62.4510   19.7020 C.2   342  ASN342      0.2630
     63  OD1     -450.6300  -61.8290   20.7610 O.2   342  ASN342     -0.2716
     64  ND2     -451.5280  -62.4740   18.8070 N.am  342  ASN342     -0.0877
     65  N       -451.5540  -65.2130   20.5930 N.am  343  CYS343     -0.1954
     66  CA      -452.8780  -65.8170   20.4440 C.3   343  CYS343      0.1843
     67  C       -453.9130  -64.7750   20.8800 C.2   343  CYS343      0.2625
     68  O       -454.5130  -64.8610   21.9510 O.2   343  CYS343     -0.2714
     69  CB      -452.9860  -67.1170   21.2480 C.3   343  CYS343      0.0997
     70  SG      -454.6170  -67.9150   21.3520 S.3   343  CYS343     -0.0797
     71  N       -454.1090  -63.7680   20.0240 N.am  344  ARG344     -0.1977
     72  CA      -455.0000  -62.6420   20.2870 C.3   344  ARG344      0.1597
     73  C       -454.6220  -61.9390   21.5850 C.2   344  ARG344      0.2287
     74  O       -455.1850  -62.2250   22.6470 O.2   344  ARG344     -0.2864
     75  CB      -456.4620  -63.1010   20.3210 C.3   344  ARG344      0.0334
     76  CG      -457.4710  -61.9760   20.5080 C.3   344  ARG344      0.0492
     77  CD      -458.8750  -62.4260   20.1380 C.3   344  ARG344      0.2205
     78  NE      -459.2270  -63.6990   20.7590 N.pl3 344  ARG344     -0.0865
     79  CZ      -459.8320  -63.8170   21.9360 C.cat 344  ARG344      0.5346
     80  NH1     -460.1570  -62.7340   22.6300 N.pl3 344  ARG344      0.1354
     81  NH2     -460.1130  -65.0190   22.4210 N.pl3 344  ARG344      0.1354
     82  N       -457.3940  -70.5810   20.4130 N.3   406  CYS406     -0.1221
     83  CA      -457.0320  -70.3060   19.0280 C.3   406  CYS406      0.1808
     84  C       -456.5270  -71.5830   18.3750 C.2   406  CYS406      0.2601
     85  O       -455.6890  -72.2900   18.9470 O.2   406  CYS406     -0.2717
     86  CB      -455.9650  -69.2030   18.9390 C.3   406  CYS406      0.0970
     87  SG      -454.5510  -69.4650   20.0380 S.3   406  CYS406     -0.0800
     88  N       -457.0510  -71.8780   17.1880 N.am  407  LYS407     -0.1965
     89  CA      -456.5570  -72.9660   16.3580 C.3   407  LYS407      0.1728
     90  C       -455.4280  -72.4700   15.4660 C.2   407  LYS407      0.2616
     91  O       -455.3390  -71.2820   15.1470 O.2   407  LYS407     -0.2715
     92  CB      -457.6740  -73.5470   15.4880 C.3   407  LYS407      0.0311
     93  CG      -458.5840  -74.5460   16.1790 C.3   407  LYS407      0.0038
     94  CD      -459.5270  -75.1850   15.1670 C.3   407  LYS407      0.0206
     95  CE      -460.3660  -76.2860   15.7900 C.3   407  LYS407      0.1093
     96  NZ      -461.2350  -76.9510   14.7790 N.3   407  LYS407     -0.1314
     97  N       -454.5630  -73.3960   15.0600 N.am  408  SER408     -0.1950
     98  CA      -453.4870  -73.0620   14.1390 C.3   408  SER408      0.1924
     99  C       -453.0340  -74.3260   13.4250 C.2   408  SER408      0.2314
    100  O       -453.1450  -75.4320   13.9610 O.2   408  SER408     -0.2863
    101  CB      -452.3060  -72.4010   14.8600 C.3   408  SER408      0.2116
    102  OG      -452.6450  -71.0990   15.3060 O.3   408  SER408     -0.2180
@<TRIPOS>BOND
     1    41    40    2
     2    40    39    1
     3    39    42    1
     4    39    38    1
     5    12    11    2
     6    11    10    1
     7    16    17    1
     8    42    43    1
     9    38    32   am
    10    33    32    2
    11    22    20    1
    12    32    31    1
    13    13    10    1
    14    13    14    1
    15    10     9    1
    16    20    17    1
    17    20    21    1
    18    43    45   am
    19    43    44    2
    20    19    18    2
    21    17    18    1
    22    31    30    1
    23    31    34    1
    24    14    15    1
    25    18    23   am
    26     4     3    2
    27     9     3   am
    28     9    15    1
    29     8     6   ar
    30     3     2    1
    31    34    35    1
    32    23    24    1
    33     6     7   ar
    34     6     5    1
    35    99   100    2
    36    99    98    1
    37    37    35    1
    38    29    27    1
    39     5     2    1
    40    35    36    1
    41    24    27    1
    42    24    25    1
    43     2     1    1
    44    98   101    1
    45    98    97    1
    46    27    28    1
    47    96    95    1
    48   101   102    1
    49    25    26    2
    50    97    90   am
    51    91    90    2
    52    94    95    1
    53    94    93    1
    54    90    89    1
    55    92    93    1
    56    92    89    1
    57    89    88    1
    58    88    84   am
    59    84    85    2
    60    84    83    1
    61    50    51    1
    62    50    47    1
    63    60    59    2
    64    64    62   am
    65    86    83    1
    66    86    87    1
    67    83    82    1
    68    61    62    1
    69    61    58    1
    70    51    53   ar
    71    51    52   ar
    72    53    55   ar
    73    57    58    1
    74    57    48   am
    75    47    48    1
    76    47    46    1
    77    59    58    1
    78    59    65   am
    79    62    63    2
    80    71    72    1
    81    71    67   am
    82    52    54   ar
    83    87    70    1
    84    77    76    1
    85    77    78    1
    86    55    56   ar
    87    48    49    2
    88    72    75    1
    89    72    73    1
    90    75    76    1
    91    66    65    1
    92    66    67    1
    93    66    69    1
    94    54    56   ar
    95    78    79    2
    96    67    68    2
    97    69    70    1
    98    73    74    2
    99    79    81    1
   100    79    80    1
