@<TRIPOS>MOLECULE
tmp/5um8A13.pdb
 76 70 0 0 0
SMALL
GASTEIGER

@<TRIPOS>ATOM
      1  N       -444.2380  -84.7480   36.8640 N.3   111  VAL111     -0.1231
      2  CA      -443.7550  -83.4490   37.3170 C.3   111  VAL111      0.1692
      3  C       -443.9370  -82.3860   36.2390 C.2   111  VAL111      0.2593
      4  O       -443.6720  -82.6300   35.0620 O.2   111  VAL111     -0.2718
      5  CB      -442.2700  -83.5090   37.7200 C.3   111  VAL111      0.0266
      6  CG1     -442.0790  -84.4420   38.9060 C.3   111  VAL111      0.0020
      7  CG2     -441.4180  -83.9540   36.5410 C.3   111  VAL111      0.0020
      8  N       -444.3910  -81.2060   36.6490 N.am  112  THR112     -0.1939
      9  CA      -444.6100  -80.1050   35.7190 C.3   112  THR112      0.2028
     10  C       -444.2100  -78.7700   36.3410 C.2   112  THR112      0.2642
     11  O       -443.5980  -78.7300   37.4080 O.2   112  THR112     -0.2714
     12  CB      -446.0800  -80.0300   35.2680 C.3   112  THR112      0.1808
     13  OG1     -446.4380  -81.2430   34.5930 O.3   112  THR112     -0.2208
     14  CG2     -446.2900  -78.8520   34.3290 C.3   112  THR112      0.0379
     15  N       -444.5610  -77.6810   35.6650 N.am  113  ASN113     -0.1971
     16  CA      -444.2410  -76.3430   36.1490 C.3   113  ASN113      0.1688
     17  C       -445.4920  -75.6170   36.6320 C.2   113  ASN113      0.2292
     18  O       -446.5510  -76.2240   36.7900 O.2   113  ASN113     -0.2864
     19  CB      -443.5500  -75.5280   35.0540 C.3   113  ASN113      0.1181
     20  CG      -442.0760  -75.3080   35.3330 C.2   113  ASN113      0.2629
     21  OD1     -441.5930  -75.5820   36.4320 O.2   113  ASN113     -0.2716
     22  ND2     -441.3520  -74.8110   34.3370 N.am  113  ASN113     -0.0877
     23  N       -430.6060  -74.7240   25.8890 N.3   331  GLY331     -0.1210
     24  CA      -431.1100  -74.0560   27.0720 C.3   331  GLY331      0.1956
     25  C       -430.6100  -72.6330   27.2110 C.2   331  GLY331      0.2612
     26  O       -429.8190  -72.1630   26.3880 O.2   331  GLY331     -0.2717
     27  N       -431.0690  -71.9360   28.2470 N.am  332  GLY332     -0.1956
     28  CA      -430.6270  -70.5780   28.4950 C.3   332  GLY332      0.1869
     29  C       -431.7230  -69.5430   28.3530 C.2   332  GLY332      0.2309
     30  O       -432.5750  -69.4050   29.2360 O.2   332  GLY332     -0.2863
     31  N       -435.6040  -70.9070   23.7400 N.3   337  THR337     -0.1203
     32  CA      -435.8970  -72.3110   23.9940 C.3   337  THR337      0.1994
     33  C       -437.3880  -72.6240   24.0030 C.2   337  THR337      0.2618
     34  O       -437.7640  -73.7450   24.3630 O.2   337  THR337     -0.2717
     35  CB      -435.2810  -72.7410   25.3280 C.3   337  THR337      0.1784
     36  OG1     -435.9070  -72.0220   26.3980 O.3   337  THR337     -0.2211
     37  CG2     -433.7920  -72.4490   25.3370 C.3   337  THR337      0.0376
     38  N       -438.2420  -71.6780   23.6210 N.am  338  THR338     -0.1952
     39  CA      -439.6840  -71.8650   23.6960 C.3   338  THR338      0.1897
     40  C       -440.3350  -71.5190   22.3660 C.2   338  THR338      0.2313
     41  O       -439.9190  -70.5770   21.6840 O.2   338  THR338     -0.2863
     42  CB      -440.3060  -71.0030   24.8060 C.3   338  THR338      0.1794
     43  OG1     -439.9340  -69.6320   24.6180 O.3   338  THR338     -0.2208
     44  CG2     -439.8470  -71.4760   26.1790 C.3   338  THR338      0.0378
     45  N       -443.2560  -75.0450   25.7690 N.3   351  ASN351     -0.1240
     46  CA      -442.1380  -75.9610   25.9850 C.3   351  ASN351      0.1653
     47  C       -442.4140  -77.2020   25.1390 C.2   351  ASN351      0.2266
     48  O       -443.2290  -78.0510   25.5110 O.2   351  ASN351     -0.2867
     49  CB      -441.9940  -76.2790   27.4720 C.3   351  ASN351      0.1155
     50  CG      -440.9390  -77.3400   27.7670 C.2   351  ASN351      0.2627
     51  OD1     -440.4200  -78.0040   26.8700 O.2   351  ASN351     -0.2716
     52  ND2     -440.6220  -77.5030   29.0460 N.am  351  ASN351     -0.0877
     53  N       -440.8050  -79.9710   24.5140 N.3   353  SER353     -0.1217
     54  CA      -439.9130  -81.0910   24.7980 C.3   353  SER353      0.1889
     55  C       -440.5440  -82.4230   24.4080 C.2   353  SER353      0.2288
     56  O       -439.8490  -83.3200   23.9190 O.2   353  SER353     -0.2866
     57  CB      -439.5280  -81.0970   26.2780 C.3   353  SER353      0.2089
     58  OG      -438.7600  -79.9530   26.6080 O.3   353  SER353     -0.2183
     59  N       -447.3740  -77.6520   27.9410 N.3   378  PRO378     -0.2116
     60  CA      -447.5290  -76.5860   28.9430 C.3   378  PRO378      0.1372
     61  C       -446.9100  -75.2920   28.4370 C.2   378  PRO378      0.2244
     62  O       -445.7000  -75.2110   28.2140 O.2   378  PRO378     -0.2868
     63  CB      -446.7820  -77.1370   30.1640 C.3   378  PRO378      0.0268
     64  CG      -445.7730  -78.0780   29.5870 C.3   378  PRO378      0.0207
     65  CD      -446.4160  -78.6870   28.3700 C.3   378  PRO378      0.0892
     66  N       -446.4340  -71.2240   28.9820 N.3   380  ARG380     -0.1245
     67  CA      -446.5090  -70.0850   29.8800 C.3   380  ARG380      0.1563
     68  C       -446.8520  -68.8270   29.0820 C.2   380  ARG380      0.2260
     69  O       -446.9570  -68.8480   27.8530 O.2   380  ARG380     -0.2867
     70  CB      -445.2070  -69.9470   30.6660 C.3   380  ARG380      0.0307
     71  CG      -443.9490  -70.0420   29.8250 C.3   380  ARG380      0.0489
     72  CD      -442.7830  -70.5400   30.6590 C.3   380  ARG380      0.2205
     73  NE      -443.0310  -71.8840   31.1730 N.pl3 380  ARG380     -0.0865
     74  CZ      -442.2180  -72.5290   32.0010 C.cat 380  ARG380      0.5346
     75  NH1     -441.0990  -71.9510   32.4160 N.pl3 380  ARG380      0.1354
     76  NH2     -442.5230  -73.7510   32.4180 N.pl3 380  ARG380      0.1354
@<TRIPOS>BOND
     1    41    40    2
     2    40    39    1
     3    38    39    1
     4    38    33   am
     5    39    42    1
     6    31    32    1
     7    56    55    2
     8    32    33    1
     9    32    35    1
    10    33    34    2
    11    55    54    1
    12    53    54    1
    13    43    42    1
    14    54    57    1
    15    42    44    1
    16    47    48    2
    17    47    46    1
    18    35    37    1
    19    35    36    1
    20    45    46    1
    21    23    24    1
    22    46    49    1
    23    57    58    1
    24    26    25    2
    25    51    50    2
    26    24    25    1
    27    25    27   am
    28    49    50    1
    29    50    52   am
    30    69    68    2
    31    59    65    1
    32    59    60    1
    33    62    61    2
    34    27    28    1
    35    29    28    1
    36    29    30    2
    37    65    64    1
    38    61    60    1
    39    60    63    1
    40    66    67    1
    41    68    67    1
    42    64    63    1
    43    71    72    1
    44    71    70    1
    45    67    70    1
    46    72    73    1
    47    73    74    2
    48    74    75    1
    49    74    76    1
    50    14    12    1
    51    22    20   am
    52    13    12    1
    53    19    20    1
    54    19    16    1
    55     4     3    2
    56    12     9    1
    57    20    21    2
    58    15    16    1
    59    15    10   am
    60     9    10    1
    61     9     8    1
    62    16    17    1
    63     3     8   am
    64     3     2    1
    65    10    11    2
    66     7     5    1
    67    17    18    2
    68     1     2    1
    69     2     5    1
    70     5     6    1
