@<TRIPOS>MOLECULE
tmp/5um8A16.pdb
 85 80 0 0 0
SMALL
GASTEIGER

@<TRIPOS>ATOM
      1  N       -447.5510  -61.0510   46.5980 N.3   101  ARG101     -0.1231
      2  CA      -447.8750  -62.1920   47.4390 C.3   101  ARG101      0.1694
      3  C       -448.3030  -63.3550   46.5530 C.2   101  ARG101      0.2592
      4  O       -448.6770  -63.1720   45.3920 O.2   101  ARG101     -0.2718
      5  CB      -448.9880  -61.8550   48.4450 C.3   101  ARG101      0.0321
      6  CG      -448.9350  -60.4280   48.9740 C.3   101  ARG101      0.0489
      7  CD      -450.0610  -60.1410   49.9540 C.3   101  ARG101      0.2205
      8  NE      -449.7810  -60.6720   51.2850 N.pl3 101  ARG101     -0.0865
      9  CZ      -450.5290  -60.4310   52.3560 C.cat 101  ARG101      0.5346
     10  NH1     -451.6050  -59.6630   52.2550 N.pl3 101  ARG101      0.1354
     11  NH2     -450.2000  -60.9530   53.5300 N.pl3 101  ARG101      0.1354
     12  N       -448.2370  -64.5600   47.1120 N.am  102  GLN102     -0.1966
     13  CA      -448.6780  -65.7390   46.3840 C.3   102  GLN102      0.1733
     14  C       -450.1930  -65.7040   46.1920 C.2   102  GLN102      0.2616
     15  O       -450.9230  -65.0100   46.9060 O.2   102  GLN102     -0.2715
     16  CB      -448.2640  -67.0130   47.1250 C.3   102  GLN102      0.0408
     17  CG      -448.1540  -68.2510   46.2420 C.3   102  GLN102      0.0908
     18  CD      -446.9050  -68.2460   45.3800 C.2   102  GLN102      0.2608
     19  OE1     -445.8620  -67.7310   45.7810 O.2   102  GLN102     -0.2717
     20  NE2     -447.0070  -68.8210   44.1860 N.am  102  GLN102     -0.0878
     21  N       -450.6650  -66.4600   45.2030 N.am  103  VAL103     -0.1963
     22  CA      -452.0800  -66.5320   44.8590 C.3   103  VAL103      0.1727
     23  C       -452.6220  -67.8830   45.3070 C.2   103  VAL103      0.2616
     24  O       -451.9180  -68.8980   45.2390 O.2   103  VAL103     -0.2715
     25  CB      -452.2970  -66.2950   43.3490 C.3   103  VAL103      0.0290
     26  CG1     -453.5610  -66.9830   42.8480 C.3   103  VAL103      0.0023
     27  CG2     -452.3660  -64.8010   43.0600 C.3   103  VAL103      0.0023
     28  N       -453.8680  -67.8840   45.7850 N.am  104  ASN104     -0.1972
     29  CA      -454.5120  -69.0760   46.3270 C.3   104  ASN104      0.1688
     30  C       -454.4110  -70.2540   45.3670 C.2   104  ASN104      0.2292
     31  O       -454.8560  -70.1750   44.2190 O.2   104  ASN104     -0.2864
     32  CB      -455.9810  -68.7710   46.6280 C.3   104  ASN104      0.1181
     33  CG      -456.1790  -67.3910   47.2240 C.2   104  ASN104      0.2629
     34  OD1     -456.3200  -66.4050   46.5000 O.2   104  ASN104     -0.2716
     35  ND2     -456.1930  -67.3150   48.5490 N.am  104  ASN104     -0.0877
     36  N       -449.8930  -61.6140   43.2760 N.3   119  ASN119     -0.1240
     37  CA      -450.8300  -60.5460   43.6170 C.3   119  ASN119      0.1653
     38  C       -450.0200  -59.4110   44.2310 C.2   119  ASN119      0.2266
     39  O       -449.6620  -59.4540   45.4110 O.2   119  ASN119     -0.2867
     40  CB      -451.9020  -61.0630   44.5690 C.3   119  ASN119      0.1155
     41  CG      -453.0480  -60.0890   44.7490 C.2   119  ASN119      0.2627
     42  OD1     -453.0420  -58.9880   44.1980 O.2   119  ASN119     -0.2716
     43  ND2     -454.0480  -60.4980   45.5200 N.am  119  ASN119     -0.0877
     44  N       -449.3070  -55.4150   45.2140 N.3   121  SER121     -0.1217
     45  CA      -449.8620  -54.1170   45.5630 C.3   121  SER121      0.1889
     46  C       -448.7680  -53.0610   45.4840 C.2   121  SER121      0.2288
     47  O       -447.5920  -53.3450   45.7330 O.2   121  SER121     -0.2866
     48  CB      -450.4720  -54.1360   46.9680 C.3   121  SER121      0.2089
     49  OG      -451.4680  -55.1380   47.0750 O.3   121  SER121     -0.2183
     50  N       -453.8540  -52.8600   43.6050 N.3   136  TYR136     -0.1241
     51  CA      -453.3330  -54.2050   43.4330 C.3   136  TYR136      0.1605
     52  C       -453.5890  -54.6820   42.0100 C.2   136  TYR136      0.2264
     53  O       -454.5020  -54.2110   41.3250 O.2   136  TYR136     -0.2867
     54  CB      -453.9600  -55.1840   44.4380 C.3   136  TYR136      0.0534
     55  CG      -455.3410  -55.6720   44.0570 C.ar  136  TYR136     -0.0201
     56  CD1     -456.4660  -54.8920   44.2910 C.ar  136  TYR136     -0.0009
     57  CD2     -455.5200  -56.9210   43.4740 C.ar  136  TYR136     -0.0009
     58  CE1     -457.7290  -55.3380   43.9470 C.ar  136  TYR136      0.0417
     59  CE2     -456.7770  -57.3740   43.1260 C.ar  136  TYR136      0.0417
     60  CZ      -457.8780  -56.5790   43.3640 C.ar  136  TYR136      0.1957
     61  OH      -459.1320  -57.0280   43.0190 O.3   136  TYR136     -0.2866
     62  N       -452.6160  -58.4340   39.3580 N.3   138  LEU138     -0.1245
     63  CA      -452.0470  -59.7680   39.2180 C.3   138  LEU138      0.1561
     64  C       -451.0400  -59.7510   38.0750 C.2   138  LEU138      0.2260
     65  O       -451.3850  -59.3940   36.9440 O.2   138  LEU138     -0.2867
     66  CB      -453.1380  -60.8090   38.9600 C.3   138  LEU138      0.0270
     67  CG      -454.0440  -61.2280   40.1240 C.3   138  LEU138      0.0019
     68  CD1     -455.0390  -60.1360   40.4980 C.3   138  LEU138      0.0001
     69  CD2     -454.7710  -62.5220   39.7920 C.3   138  LEU138      0.0001
     70  N       -458.6130  -60.0700   39.4380 N.3   287  ASP287     -0.1225
     71  CA      -458.5370  -61.3820   40.0640 C.3   287  ASP287      0.1805
     72  C       -459.0920  -62.4460   39.1240 C.2   287  ASP287      0.2597
     73  O       -460.1180  -62.2460   38.4670 O.2   287  ASP287     -0.2718
     74  CB      -459.2930  -61.3890   41.3940 C.3   287  ASP287      0.1424
     75  CG      -460.7960  -61.3090   41.2160 C.2   287  ASP287      0.3668
     76  OD1     -461.3090  -60.1970   40.9700 O.co2 287  ASP287     -0.2456
     77  OD2     -461.4650  -62.3580   41.3300 O.co2 287  ASP287     -0.2456
     78  N       -458.3950  -63.5780   39.0510 N.am  288  ILE288     -0.1980
     79  CA      -458.7700  -64.6420   38.1270 C.3   288  ILE288      0.1595
     80  C       -460.0650  -65.2830   38.6090 C.2   288  ILE288      0.2287
     81  O       -460.1360  -65.8160   39.7220 O.2   288  ILE288     -0.2864
     82  CB      -457.6470  -65.6790   37.9990 C.3   288  ILE288      0.0276
     83  CG1     -456.3310  -64.9990   37.6100 C.3   288  ILE288      0.0022
     84  CG2     -458.0150  -66.7440   36.9750 C.3   288  ILE288      0.0022
     85  CD1     -455.1440  -65.9410   37.5700 C.3   288  ILE288      0.0001
@<TRIPOS>BOND
     1    65    64    2
     2    84    82    1
     3    85    83    1
     4    83    82    1
     5    82    79    1
     6    64    63    1
     7    79    80    1
     8    79    78    1
     9    73    72    2
    10    80    81    2
    11    66    63    1
    12    66    67    1
    13    78    72   am
    14    72    71    1
    15    63    62    1
    16    70    71    1
    17    69    67    1
    18    71    74    1
    19    67    68    1
    20    76    75   ar
    21    75    77   ar
    22    75    74    1
    23    53    52    2
    24    52    51    1
    25    26    25    1
    26    61    60    1
    27    27    25    1
    28    59    60   ar
    29    59    57   ar
    30    36    37    1
    31    25    22    1
    32    60    58   ar
    33    51    50    1
    34    51    54    1
    35    57    55   ar
    36    37    38    1
    37    37    40    1
    38    58    56   ar
    39    55    56   ar
    40    55    54    1
    41    20    18   am
    42    42    41    2
    43    31    30    2
    44    38    39    2
    45    40    41    1
    46    41    43   am
    47    22    21    1
    48    22    23    1
    49    21    14   am
    50    44    45    1
    51    24    23    2
    52    23    28   am
    53    30    29    1
    54    18    19    2
    55    18    17    1
    56     4     3    2
    57    46    45    1
    58    46    47    2
    59    45    48    1
    60    28    29    1
    61    14    13    1
    62    14    15    2
    63    17    16    1
    64    29    32    1
    65    13    12    1
    66    13    16    1
    67    34    33    2
    68     3    12   am
    69     3     2    1
    70     1     2    1
    71    32    33    1
    72    48    49    1
    73    33    35   am
    74     2     5    1
    75     5     6    1
    76     6     7    1
    77     7     8    1
    78     8     9    2
    79    10     9    1
    80     9    11    1
