@<TRIPOS>MOLECULE
tmp/5umcA00.pdb
 149 145 0 0 0
SMALL
GASTEIGER

@<TRIPOS>ATOM
      1  N         -5.2420    0.7520   75.9230 N.3    65  ASN65      -0.1240
      2  CA        -6.0640    1.7180   76.6500 C.3    65  ASN65       0.1653
      3  C         -7.2190    2.0700   75.7880 C.2    65  ASN65       0.2266
      4  O         -7.0340    2.5210   74.6230 O.2    65  ASN65      -0.2867
      5  CB        -5.2620    2.9890   76.9670 C.3    65  ASN65       0.1155
      6  CG        -4.2040    2.7510   78.0070 C.2    65  ASN65       0.2627
      7  OD1       -4.1580    1.6760   78.6190 O.2    65  ASN65      -0.2716
      8  ND2       -3.3260    3.7160   78.1950 N.am   65  ASN65      -0.0877
      9  N        -10.7550    8.4870   82.7760 N.3    89  ILE89      -0.1231
     10  CA        -9.8400    8.8710   81.6660 C.3    89  ILE89       0.1692
     11  C         -9.5760    7.7220   80.6770 C.2    89  ILE89       0.2591
     12  O         -9.4820    7.9460   79.4720 O.2    89  ILE89      -0.2718
     13  CB        -8.5300    9.5170   82.1700 C.3    89  ILE89       0.0266
     14  CG1       -7.6150    9.8690   80.9780 C.3    89  ILE89       0.0019
     15  CG2       -7.7850    8.6450   83.1880 C.3    89  ILE89       0.0020
     16  CD1       -6.4580   10.7780   81.3460 C.3    89  ILE89       0.0001
     17  N         -9.5150    6.4950   81.1860 N.am   90  GLN90      -0.1979
     18  CA        -9.2160    5.3560   80.3540 C.3    90  GLN90       0.1601
     19  C         -9.4750    4.0620   81.1020 C.2    90  GLN90       0.2287
     20  O         -9.5260    4.0250   82.3320 O.2    90  GLN90      -0.2864
     21  CB        -7.7450    5.4110   79.8620 C.3    90  GLN90       0.0394
     22  CG        -6.7260    5.4730   80.9980 C.3    90  GLN90       0.0908
     23  CD        -5.9450    4.1690   81.2230 C.2    90  GLN90       0.2608
     24  OE1       -6.5160    3.0530   81.2560 O.2    90  GLN90      -0.2717
     25  NE2       -4.6380    4.3150   81.4350 N.am   90  GLN90      -0.0878
     26  N         -8.0290   -0.1940   80.9630 N.3    92  HIS92      -0.1241
     27  CA        -7.1390   -1.1650   80.3790 C.3    92  HIS92       0.1621
     28  C         -7.1750   -2.4410   81.1690 C.2    92  HIS92       0.2264
     29  O         -7.9230   -2.5170   82.1540 O.2    92  HIS92      -0.2867
     30  CB        -5.7240   -0.6460   80.3560 C.3    92  HIS92       0.0745
     31  CG        -5.1590   -0.4150   81.7050 C.ar   92  HIS92       0.0817
     32  ND1       -5.2170    0.8200   82.3240 N.ar   92  HIS92      -0.2268
     33  CD2       -4.4440   -1.2270   82.5220 C.ar   92  HIS92       0.1154
     34  CE1       -4.6390    0.7220   83.5100 C.ar   92  HIS92       0.1986
     35  NE2       -4.1840   -0.5210   83.6580 N.ar   92  HIS92      -0.2212
     36  N         -4.8110   -6.2080   82.3750 N.3    94  HIS94      -0.1241
     37  CA        -3.5990   -6.9910   82.5680 C.3    94  HIS94       0.1621
     38  C         -4.0420   -8.4300   82.4820 C.2    94  HIS94       0.2264
     39  O         -5.1290   -8.7340   82.9760 O.2    94  HIS94      -0.2867
     40  CB        -3.0440   -6.7420   83.9520 C.3    94  HIS94       0.0745
     41  CG        -2.7250   -5.3080   84.2140 C.ar   94  HIS94       0.0817
     42  ND1       -1.4810   -4.7540   83.9710 N.ar   94  HIS94      -0.2268
     43  CD2       -3.5070   -4.3020   84.6750 C.ar   94  HIS94       0.1154
     44  CE1       -1.5080   -3.4760   84.3070 C.ar   94  HIS94       0.1986
     45  NE2       -2.7100   -3.1780   84.7540 N.ar   94  HIS94      -0.2212
     46  N         -8.7120   -2.3810   84.8690 N.3   117  HIS117     -0.1241
     47  CA        -8.5020   -1.1290   85.5930 C.3   117  HIS117      0.1621
     48  C         -9.1700    0.0340   84.8950 C.2   117  HIS117      0.2264
     49  O         -8.7840    0.3970   83.8030 O.2   117  HIS117     -0.2867
     50  CB        -6.9940   -0.8620   85.7260 C.3   117  HIS117      0.0745
     51  CG        -6.3070   -1.8470   86.6080 C.ar  117  HIS117      0.0817
     52  ND1       -4.9660   -2.1380   86.5170 N.ar  117  HIS117     -0.2268
     53  CD2       -6.8070   -2.6710   87.5530 C.ar  117  HIS117      0.1154
     54  CE1       -4.6730   -3.0650   87.4030 C.ar  117  HIS117      0.1986
     55  NE2       -5.7710   -3.3910   88.0550 N.ar  117  HIS117     -0.2212
     56  N         -9.5750    3.8090   85.1500 N.3   119  VAL119     -0.1245
     57  CA        -8.7100    4.7620   85.7900 C.3   119  VAL119      0.1561
     58  C         -9.4030    6.1110   85.8240 C.2   119  VAL119      0.2260
     59  O         -9.8230    6.6090   84.7580 O.2   119  VAL119     -0.2867
     60  CB        -7.3830    4.8990   85.0060 C.3   119  VAL119      0.0252
     61  CG1       -6.4810    5.9220   85.6450 C.3   119  VAL119      0.0019
     62  CG2       -6.6870    3.5290   84.8750 C.3   119  VAL119      0.0019
     63  N         -4.8340   15.3660   84.8010 N.3   128  PHE128     -0.1227
     64  CA        -4.3400   14.0170   85.1900 C.3   128  PHE128      0.1736
     65  C         -2.8890   14.0880   85.6740 C.2   128  PHE128      0.2596
     66  O         -2.5200   13.4830   86.6950 O.2   128  PHE128     -0.2718
     67  CB        -4.5000   13.0370   84.0310 C.3   128  PHE128      0.0547
     68  CG        -3.9240   11.6920   84.3020 C.ar  128  PHE128     -0.0202
     69  CD1       -2.5900   11.4260   84.0300 C.ar  128  PHE128     -0.0042
     70  CD2       -4.7000   10.6880   84.8420 C.ar  128  PHE128     -0.0042
     71  CE1       -2.0330   10.1730   84.3110 C.ar  128  PHE128     -0.0003
     72  CE2       -4.1610    9.4440   85.1110 C.ar  128  PHE128     -0.0003
     73  CZ        -2.8290    9.1830   84.8460 C.ar  128  PHE128     -0.0000
     74  N         -2.0720   14.8470   84.9380 N.am  129  GLY129     -0.1957
     75  CA        -0.6330   15.0020   85.2380 C.3   129  GLY129      0.1869
     76  C         -0.4110   15.5810   86.6100 C.2   129  GLY129      0.2309
     77  O          0.5310   15.2320   87.2910 O.2   129  GLY129     -0.2863
     78  N         -1.5830   12.8450   89.4610 N.3   132  VAL132     -0.1245
     79  CA        -0.6410   11.7250   89.7840 C.3   132  VAL132      0.1561
     80  C          0.4790   12.1300   90.7820 C.2   132  VAL132      0.2260
     81  O          1.1710   11.2580   91.3330 O.2   132  VAL132     -0.2867
     82  CB        -0.0260   11.0370   88.5420 C.3   132  VAL132      0.0252
     83  CG1       -1.1250   10.4240   87.6790 C.3   132  VAL132      0.0019
     84  CG2        0.8290   11.9860   87.7240 C.3   132  VAL132      0.0019
     85  N         -8.6040    4.0390   91.0250 N.3   140  VAL140     -0.1245
     86  CA        -8.6530    3.0000   90.0210 C.3   140  VAL140      0.1561
     87  C         -9.6360    1.9100   90.5040 C.2   140  VAL140      0.2260
     88  O         -9.5350    1.4130   91.6430 O.2   140  VAL140     -0.2867
     89  CB        -7.2590    2.4190   89.6590 C.3   140  VAL140      0.0252
     90  CG1       -7.3530    1.5090   88.4640 C.3   140  VAL140      0.0019
     91  CG2       -6.3000    3.5230   89.2940 C.3   140  VAL140      0.0019
     92  N          0.2170    3.3400   91.1800 N.3   195  LEU195     -0.1231
     93  CA         0.2220    2.8430   89.8230 C.3   195  LEU195      0.1693
     94  C          1.0420    1.4950   89.8390 C.2   195  LEU195      0.2593
     95  O          2.0160    1.3360   90.6060 O.2   195  LEU195     -0.2718
     96  CB         0.9300    3.8130   88.9140 C.3   195  LEU195      0.0284
     97  CG         0.4140    5.2750   88.7900 C.3   195  LEU195      0.0019
     98  CD1        1.2900    6.0040   87.8010 C.3   195  LEU195      0.0001
     99  CD2       -1.0360    5.3350   88.3440 C.3   195  LEU195      0.0001
    100  N          0.6240    0.5480   89.0090 N.am  196  THR196     -0.1939
    101  CA         1.2450   -0.7620   89.0120 C.3   196  THR196      0.2028
    102  C          2.2360   -0.8850   87.9090 C.2   196  THR196      0.2643
    103  O          2.7790   -1.9560   87.7340 O.2   196  THR196     -0.2714
    104  CB         0.2000   -1.9080   88.9000 C.3   196  THR196      0.1808
    105  OG1       -0.4590   -1.8350   87.6160 O.3   196  THR196     -0.2208
    106  CG2       -0.7770   -1.8650   90.0820 C.3   196  THR196      0.0379
    107  N          2.4430    0.1900   87.1440 N.am  197  THR197     -0.1937
    108  CA         3.5320    0.2590   86.1960 C.3   197  THR197      0.2013
    109  C          4.3670    1.4730   86.4900 C.2   197  THR197      0.2484
    110  O          3.8990    2.4220   87.1650 O.2   197  THR197     -0.2729
    111  CB         2.9960    0.3820   84.7520 C.3   197  THR197      0.1807
    112  OG1        2.2800    1.6060   84.6020 O.3   197  THR197     -0.2208
    113  CG2        2.0830   -0.7440   84.4390 C.3   197  THR197      0.0379
    114  N          5.5810    1.5040   85.9400 N.am  198  PRO198     -0.2715
    115  CA         6.3060    2.7540   86.0330 C.3   198  PRO198      0.1521
    116  C          5.4570    3.9570   85.5410 C.2   198  PRO198      0.2440
    117  O          4.7650    3.8370   84.5520 O.2   198  PRO198     -0.2731
    118  CB         7.5220    2.4880   85.1730 C.3   198  PRO198      0.0310
    119  CG         7.7640    1.0280   85.3840 C.3   198  PRO198      0.0237
    120  CD         6.3950    0.4580   85.2950 C.3   198  PRO198      0.0939
    121  N          5.5010    5.0970   86.1980 N.am  199  PRO199     -0.2727
    122  CA         6.4910    5.4600   87.1980 C.3   199  PRO199      0.1402
    123  C          6.1530    5.0540   88.6640 C.2   199  PRO199      0.2269
    124  O          6.8380    5.5310   89.5990 O.2   199  PRO199     -0.2865
    125  CB         6.5730    6.9940   87.0300 C.3   199  PRO199      0.0296
    126  CG         5.2240    7.3960   86.5370 C.3   199  PRO199      0.0237
    127  CD         4.7730    6.2620   85.6550 C.3   199  PRO199      0.0939
    128  N          3.8550    5.7000   90.7710 N.3   201  LEU201     -0.1245
    129  CA         3.5080    6.7800   91.6680 C.3   201  LEU201      0.1561
    130  C          2.4710    6.3590   92.7200 C.2   201  LEU201      0.2260
    131  O          1.5150    5.6580   92.4110 O.2   201  LEU201     -0.2867
    132  CB         3.0440    7.9990   90.8620 C.3   201  LEU201      0.0270
    133  CG         4.1160    8.6100   89.9570 C.3   201  LEU201      0.0019
    134  CD1        3.4950    9.5290   88.9110 C.3   201  LEU201      0.0001
    135  CD2        5.0970    9.3960   90.7800 C.3   201  LEU201      0.0001
    136  N         -7.2810    2.5020   95.6130 N.3   206  TRP206     -0.1241
    137  CA        -7.6930    1.2960   94.9380 C.3   206  TRP206      0.1605
    138  C         -9.0450    0.9010   95.4670 C.2   206  TRP206      0.2264
    139  O         -9.2760    0.9070   96.6680 O.2   206  TRP206     -0.2867
    140  CB        -6.6660    0.1300   95.1370 C.3   206  TRP206      0.0550
    141  CG        -5.5890    0.2410   94.2000 C.ar  206  TRP206      0.0003
    142  CD1       -4.3670    0.7960   94.4170 C.ar  206  TRP206      0.0946
    143  CD2       -5.6350   -0.1100   92.8080 C.ar  206  TRP206      0.0152
    144  NE1       -3.6610    0.8320   93.2550 N.ar  206  TRP206     -0.2442
    145  CE2       -4.4010    0.2520   92.2590 C.ar  206  TRP206      0.0810
    146  CE3       -6.6200   -0.6770   91.9660 C.ar  206  TRP206      0.0012
    147  CZ2       -4.1150    0.0540   90.9130 C.ar  206  TRP206      0.0191
    148  CZ3       -6.3360   -0.8860   90.6720 C.ar  206  TRP206      0.0001
    149  CH2       -5.0970   -0.5270   90.1370 C.ar  206  TRP206      0.0015
@<TRIPOS>BOND
     1     4     3    2
     2     3     2    1
     3     1     2    1
     4     2     5    1
     5     5     6    1
     6     6     8   am
     7     6     7    2
     8    12    11    2
     9    21    18    1
    10    21    22    1
    11    18    19    1
    12    18    17    1
    13    30    27    1
    14    30    31    1
    15    27    26    1
    16    27    28    1
    17    11    17   am
    18    11    10    1
    19    14    16    1
    20    14    13    1
    21    22    23    1
    22    19    20    2
    23    28    29    2
    24    23    24    2
    25    23    25   am
    26    10    13    1
    27    10     9    1
    28    31    32   ar
    29    31    33   ar
    30    13    15    1
    31    32    34   ar
    32    36    37    1
    33    38    37    1
    34    38    39    2
    35    33    35   ar
    36    37    40    1
    37    34    35   ar
    38    49    48    2
    39    40    41    1
    40    42    41   ar
    41    42    44   ar
    42    69    68   ar
    43    69    71   ar
    44    67    68    1
    45    67    64    1
    46    41    43   ar
    47    68    70   ar
    48    44    45   ar
    49    71    73   ar
    50   113   111    1
    51   117   116    2
    52   112   111    1
    53    43    45   ar
    54   111   108    1
    55    59    58    2
    56    63    64    1
    57    70    72   ar
    58    73    72   ar
    59    46    47    1
    60    62    60    1
    61    48    47    1
    62    74    75    1
    63    74    65   am
    64    60    61    1
    65    60    57    1
    66    56    57    1
    67   118   119    1
    68   118   115    1
    69    64    65    1
    70    75    76    1
    71   120   119    1
    72   120   114    1
    73   116   115    1
    74   116   121   am
    75    47    50    1
    76   127   121    1
    77   127   126    1
    78    65    66    2
    79    50    51    1
    80    57    58    1
    81   114   115    1
    82   114   109   am
    83   108   109    1
    84   108   107    1
    85   121   122    1
    86   109   110    2
    87    52    51   ar
    88    52    54   ar
    89   126   125    1
    90    51    53   ar
    91    76    77    2
    92   125   122    1
    93   107   102   am
    94   122   123    1
    95    54    55   ar
    96    53    55   ar
    97   105   104    1
    98    83    82    1
    99    84    82    1
   100   103   102    2
   101    98    97    1
   102   102   101    1
   103    99    97    1
   104    90    89    1
   105    82    79    1
   106   123   124    2
   107    97    96    1
   108   104   101    1
   109   104   106    1
   110   134   133    1
   111    96    93    1
   112   100   101    1
   113   100    94   am
   114    91    89    1
   115    78    79    1
   116    89    86    1
   117    79    80    1
   118    93    94    1
   119    93    92    1
   120    94    95    2
   121   133   135    1
   122   133   132    1
   123    86    87    1
   124    86    85    1
   125   149   148   ar
   126   149   147   ar
   127    87    88    2
   128   148   146   ar
   129   128   129    1
   130    80    81    2
   131   132   129    1
   132   147   145   ar
   133   129   130    1
   134   146   143   ar
   135   145   143   ar
   136   145   144   ar
   137   131   130    2
   138   143   141   ar
   139   144   142   ar
   140   141   142   ar
   141   141   140    1
   142   137   140    1
   143   137   138    1
   144   137   136    1
   145   138   139    2
