@<TRIPOS>MOLECULE
tmp/5umhA01.pdb
 72 65 0 0 0
SMALL
GASTEIGER

@<TRIPOS>ATOM
      1  N         -4.7850  -50.4350   34.1500 N.3    36  LEU36      -0.1245
      2  CA        -3.4520  -50.6450   34.7080 C.3    36  LEU36       0.1561
      3  C         -2.8770  -51.9750   34.2580 C.2    36  LEU36       0.2260
      4  O         -1.7030  -52.0600   33.8840 O.2    36  LEU36      -0.2867
      5  CB        -3.5100  -50.6120   36.2350 C.3    36  LEU36       0.0270
      6  CG        -3.7540  -49.2710   36.9220 C.3    36  LEU36       0.0019
      7  CD1       -3.7840  -49.4700   38.4300 C.3    36  LEU36       0.0001
      8  CD2       -2.6880  -48.2680   36.5290 C.3    36  LEU36       0.0001
      9  N         -1.8010  -51.6780   30.6920 N.3    39  LEU39      -0.1245
     10  CA        -0.5760  -50.8890   30.5940 C.3    39  LEU39       0.1561
     11  C          0.6380  -51.7090   31.0120 C.2    39  LEU39       0.2260
     12  O          1.6650  -51.7200   30.3190 O.2    39  LEU39      -0.2867
     13  CB        -0.6940  -49.6460   31.4660 C.3    39  LEU39       0.0270
     14  CG         0.5480  -48.7660   31.5220 C.3    39  LEU39       0.0019
     15  CD1        0.9170  -48.1940   30.1610 C.3    39  LEU39       0.0001
     16  CD2        0.3490  -47.6770   32.5740 C.3    39  LEU39       0.0001
     17  N          3.8620  -52.7000   28.6120 N.3    43  ILE43      -0.1245
     18  CA         5.2440  -52.4080   28.9920 C.3    43  ILE43       0.1561
     19  C          6.0940  -53.6700   28.9190 C.2    43  ILE43       0.2260
     20  O          7.2120  -53.6630   28.3940 O.2    43  ILE43      -0.2867
     21  CB         5.2710  -51.7710   30.3930 C.3    43  ILE43       0.0252
     22  CG1        4.7430  -50.3410   30.2960 C.3    43  ILE43       0.0019
     23  CG2        6.6890  -51.8090   30.9930 C.3    43  ILE43       0.0019
     24  CD1        4.3830  -49.7080   31.6430 C.3    43  ILE43       0.0001
     25  N          9.0350  -51.7370   27.1840 N.3    48  ILE48      -0.1245
     26  CA         9.0460  -50.2870   27.2880 C.3    48  ILE48       0.1561
     27  C          9.9500  -49.9130   28.4610 C.2    48  ILE48       0.2260
     28  O          9.7740  -50.3980   29.5890 O.2    48  ILE48      -0.2867
     29  CB         7.6190  -49.7450   27.4390 C.3    48  ILE48       0.0252
     30  CG1        6.7560  -50.1720   26.2380 C.3    48  ILE48       0.0019
     31  CG2        7.6320  -48.2400   27.5010 C.3    48  ILE48       0.0019
     32  CD1        5.3480  -49.6140   26.2810 C.3    48  ILE48       0.0001
     33  N         11.4400  -44.4670   28.5680 N.3    52  GLU52      -0.1231
     34  CA        10.2570  -44.2830   27.7380 C.3    52  GLU52       0.1699
     35  C          9.0290  -44.0140   28.5940 C.2    52  GLU52       0.2592
     36  O          8.2460  -43.1030   28.2980 O.2    52  GLU52      -0.2718
     37  CB        10.0570  -45.5100   26.8470 C.3    52  GLU52       0.0402
     38  CG        11.0520  -45.5900   25.6880 C.3    52  GLU52       0.1161
     39  CD        11.0060  -46.9020   24.9130 C.2    52  GLU52       0.3649
     40  OE1       10.6460  -47.9420   25.4900 O.co2  52  GLU52      -0.2457
     41  OE2       11.3410  -46.8960   23.7090 O.co2  52  GLU52      -0.2457
     42  N          8.8610  -44.7740   29.6830 N.am   53  VAL53      -0.1980
     43  CA         7.7120  -44.5610   30.5640 C.3    53  VAL53       0.1595
     44  C          7.7220  -43.1500   31.1270 C.2    53  VAL53       0.2287
     45  O          6.6920  -42.4680   31.1420 O.2    53  VAL53      -0.2864
     46  CB         7.6740  -45.6230   31.6770 C.3    53  VAL53       0.0276
     47  CG1        6.6390  -45.2590   32.7120 C.3    53  VAL53       0.0022
     48  CG2        7.3640  -46.9840   31.0660 C.3    53  VAL53       0.0022
     49  N          9.0320  -40.5060   29.9390 N.3    55  ALA55      -0.1231
     50  CA         8.6950  -39.5680   28.8750 C.3    55  ALA55       0.1694
     51  C          7.1860  -39.5210   28.6640 C.2    55  ALA55       0.2593
     52  O          6.6200  -38.4440   28.4450 O.2    55  ALA55      -0.2718
     53  CB         9.4050  -39.9800   27.5910 C.3    55  ALA55       0.0304
     54  N          6.5210  -40.6760   28.7570 N.am   56  GLY56      -0.1942
     55  CA         5.0660  -40.7010   28.6810 C.3    56  GLY56       0.2014
     56  C          4.4160  -39.9980   29.8590 C.2    56  GLY56       0.2638
     57  O          3.4290  -39.2720   29.6990 O.2    56  GLY56      -0.2714
     58  N          4.9570  -40.2120   31.0650 N.am   57  VAL57      -0.1977
     59  CA         4.4560  -39.5190   32.2480 C.3    57  VAL57       0.1596
     60  C          4.6010  -38.0110   32.0790 C.2    57  VAL57       0.2287
     61  O          3.6680  -37.2330   32.3650 O.2    57  VAL57      -0.2864
     62  CB         5.1910  -40.0510   33.4950 C.3    57  VAL57       0.0276
     63  CG1        4.9190  -39.1780   34.7190 C.3    57  VAL57       0.0022
     64  CG2        4.7870  -41.4920   33.7520 C.3    57  VAL57       0.0022
     65  N          1.9580  -36.6550   29.8760 N.3    60  LEU60      -0.1245
     66  CA         0.6810  -36.4510   30.5560 C.3    60  LEU60       0.1561
     67  C          0.6670  -35.1470   31.3420 C.2    60  LEU60       0.2260
     68  O         -0.3530  -34.4490   31.3750 O.2    60  LEU60      -0.2867
     69  CB         0.3190  -37.6440   31.4410 C.3    60  LEU60       0.0270
     70  CG         0.0090  -38.9490   30.6950 C.3    60  LEU60       0.0019
     71  CD1       -0.3270  -40.0160   31.7050 C.3    60  LEU60       0.0001
     72  CD2       -1.1350  -38.7920   29.6740 C.3    60  LEU60       0.0001
@<TRIPOS>BOND
     1    41    39   ar
     2    39    40   ar
     3    39    38    1
     4    38    37    1
     5    30    32    1
     6    30    29    1
     7    37    34    1
     8    25    26    1
     9    26    29    1
    10    26    27    1
    11    29    31    1
    12    53    50    1
    13    34    33    1
    14    34    35    1
    15    36    35    2
    16    20    19    2
    17    52    51    2
    18    27    28    2
    19    35    42   am
    20    17    18    1
    21    51    54   am
    22    51    50    1
    23    55    54    1
    24    55    56    1
    25    50    49    1
    26    19    18    1
    27    18    21    1
    28    72    70    1
    29    42    43    1
    30    57    56    2
    31    56    58   am
    32    65    66    1
    33    15    14    1
    34    22    21    1
    35    22    24    1
    36    12    11    2
    37    21    23    1
    38    66    67    1
    39    66    69    1
    40    43    44    1
    41    43    46    1
    42    10     9    1
    43    10    11    1
    44    10    13    1
    45    70    69    1
    46    70    71    1
    47    58    59    1
    48    48    46    1
    49    44    45    2
    50    67    68    2
    51    13    14    1
    52    14    16    1
    53    46    47    1
    54    60    59    1
    55    60    61    2
    56    59    62    1
    57    62    64    1
    58    62    63    1
    59     4     3    2
    60     1     2    1
    61     3     2    1
    62     2     5    1
    63     5     6    1
    64     8     6    1
    65     6     7    1
