@<TRIPOS>MOLECULE
tmp/5umhB01.pdb
 96 87 0 0 0
SMALL
GASTEIGER

@<TRIPOS>ATOM
      1  N          9.1280  -42.3170   13.1890 N.3    26  ASN26      -0.1240
      2  CA         9.5460  -42.9390   14.4460 C.3    26  ASN26       0.1653
      3  C          8.7000  -44.1900   14.6280 C.2    26  ASN26       0.2266
      4  O          7.6200  -44.1600   15.2220 O.2    26  ASN26      -0.2867
      5  CB         9.4020  -41.9740   15.6160 C.3    26  ASN26       0.1155
      6  CG        10.1010  -42.4790   16.8940 C.2    26  ASN26       0.2627
      7  OD1       10.1610  -43.6860   17.1690 O.2    26  ASN26      -0.2716
      8  ND2       10.6330  -41.5440   17.6740 N.am   26  ASN26      -0.0877
      9  N          9.2030  -46.9720   16.4220 N.3    28  ARG28      -0.1231
     10  CA         9.0200  -47.4030   17.8070 C.3    28  ARG28       0.1694
     11  C          7.8870  -46.6330   18.4720 C.2    28  ARG28       0.2592
     12  O          7.0200  -47.2190   19.1310 O.2    28  ARG28      -0.2718
     13  CB        10.3200  -47.1900   18.5840 C.3    28  ARG28       0.0321
     14  CG        10.1980  -47.3270   20.1040 C.3    28  ARG28       0.0489
     15  CD        10.1090  -48.7830   20.5100 C.3    28  ARG28       0.2205
     16  NE        10.2340  -48.9660   21.9630 N.pl3  28  ARG28      -0.0865
     17  CZ         9.9260  -50.0980   22.5830 C.cat  28  ARG28       0.5346
     18  NH1        9.4830  -51.1420   21.8860 N.pl3  28  ARG28       0.1354
     19  NH2       10.0370  -50.1910   23.8910 N.pl3  28  ARG28       0.1354
     20  N          7.8840  -45.3090   18.3190 N.am   29  PHE29      -0.1976
     21  CA         6.8250  -44.5030   18.9170 C.3    29  PHE29       0.1639
     22  C          5.4650  -44.8720   18.3340 C.2    29  PHE29       0.2290
     23  O          4.4790  -45.0000   19.0710 O.2    29  PHE29      -0.2864
     24  CB         7.1210  -43.0190   18.7020 C.3    29  PHE29       0.0560
     25  CG         6.1160  -42.0970   19.3280 C.ar   29  PHE29      -0.0200
     26  CD1        5.8530  -42.1510   20.6940 C.ar   29  PHE29      -0.0042
     27  CD2        5.4450  -41.1610   18.5510 C.ar   29  PHE29      -0.0042
     28  CE1        4.9390  -41.2930   21.2720 C.ar   29  PHE29      -0.0003
     29  CE2        4.5220  -40.2970   19.1230 C.ar   29  PHE29      -0.0003
     30  CZ         4.2640  -40.3620   20.4860 C.ar   29  PHE29      -0.0000
     31  N          4.3440  -48.1420   19.8830 N.3    32  ILE32      -0.1245
     32  CA         3.8520  -48.0000   21.2500 C.3    32  ILE32       0.1561
     33  C          2.4730  -47.3540   21.2590 C.2    32  ILE32       0.2260
     34  O          1.5500  -47.8360   21.9230 O.2    32  ILE32      -0.2867
     35  CB         4.8580  -47.2110   22.1050 C.3    32  ILE32       0.0252
     36  CG1        6.1290  -48.0310   22.3630 C.3    32  ILE32       0.0019
     37  CG2        4.2130  -46.8130   23.4090 C.3    32  ILE32       0.0019
     38  CD1        7.2380  -47.2190   23.0070 C.3    32  ILE32       0.0001
     39  N         -0.9990  -48.9830   22.7640 N.3    36  LEU36      -0.1245
     40  CA        -1.7500  -48.4060   23.8720 C.3    36  LEU36       0.1561
     41  C         -3.1470  -47.9930   23.4320 C.2    36  LEU36       0.2260
     42  O         -4.1160  -48.1880   24.1720 O.2    36  LEU36      -0.2867
     43  CB        -0.9850  -47.2260   24.4740 C.3    36  LEU36       0.0270
     44  CG         0.3830  -47.5650   25.0780 C.3    36  LEU36       0.0019
     45  CD1        1.0760  -46.3070   25.5730 C.3    36  LEU36       0.0001
     46  CD2        0.2280  -48.5590   26.2130 C.3    36  LEU36       0.0001
     47  N         -7.4480  -36.5380   33.1990 N.3    61  LEU61      -0.1245
     48  CA        -6.1140  -36.2920   32.6480 C.3    61  LEU61       0.1561
     49  C         -5.7840  -34.8050   32.5900 C.2    61  LEU61       0.2260
     50  O         -4.6400  -34.4050   32.8460 O.2    61  LEU61      -0.2867
     51  CB        -5.9760  -36.9300   31.2710 C.3    61  LEU61       0.0270
     52  CG        -5.9170  -38.4590   31.2690 C.3    61  LEU61       0.0019
     53  CD1       -5.7610  -38.9660   29.8450 C.3    61  LEU61       0.0001
     54  CD2       -4.7870  -39.0000   32.1460 C.3    61  LEU61       0.0001
     55  N         -4.9030  -33.9480   36.1510 N.3    64  LEU64      -0.1245
     56  CA        -3.6280  -34.5550   36.5230 C.3    64  LEU64       0.1561
     57  C         -2.4460  -33.7030   36.0790 C.2    64  LEU64       0.2260
     58  O         -1.5120  -33.4480   36.8510 O.2    64  LEU64      -0.2867
     59  CB        -3.5670  -35.9380   35.8840 C.3    64  LEU64       0.0270
     60  CG        -2.3030  -36.7440   36.1910 C.3    64  LEU64       0.0019
     61  CD1       -2.2240  -37.1190   37.6820 C.3    64  LEU64       0.0001
     62  CD2       -2.3040  -37.9890   35.3170 C.3    64  LEU64       0.0001
     63  N          1.4320  -36.2060   37.3050 N.3    70  ALA70      -0.1245
     64  CA         1.4880  -37.4940   36.6140 C.3    70  ALA70       0.1562
     65  C          2.5110  -38.4550   37.2410 C.2    70  ALA70       0.2260
     66  O          2.2640  -39.6640   37.3210 O.2    70  ALA70      -0.2867
     67  CB         1.7230  -37.3070   35.1150 C.3    70  ALA70       0.0290
     68  N          1.0830  -39.8980   40.5260 N.3    73  LEU73      -0.1231
     69  CA         0.1740  -40.9960   40.2040 C.3    73  LEU73       0.1693
     70  C          0.9400  -42.2370   39.7560 C.2    73  LEU73       0.2591
     71  O          0.5720  -43.3610   40.1160 O.2    73  LEU73      -0.2718
     72  CB        -0.8210  -40.5620   39.1250 C.3    73  LEU73       0.0284
     73  CG        -1.8330  -41.6320   38.6780 C.3    73  LEU73       0.0019
     74  CD1       -2.7110  -42.0670   39.8420 C.3    73  LEU73       0.0001
     75  CD2       -2.6830  -41.0970   37.5320 C.3    73  LEU73       0.0001
     76  N          2.0140  -42.0610   38.9800 N.am   74  ALA74      -0.1980
     77  CA         2.7990  -43.2260   38.5730 C.3    74  ALA74       0.1597
     78  C          3.2650  -44.0170   39.7930 C.2    74  ALA74       0.2287
     79  O          3.2880  -45.2570   39.7760 O.2    74  ALA74      -0.2864
     80  CB         3.9860  -42.8030   37.7150 C.3    74  ALA74       0.0319
     81  N         -0.1580  -45.7050   41.7200 N.3    77  ILE77      -0.1245
     82  CA        -0.8050  -46.8900   41.1560 C.3    77  ILE77       0.1561
     83  C          0.1960  -48.0010   40.8400 C.2    77  ILE77       0.2260
     84  O         -0.1280  -48.9380   40.1240 O.2    77  ILE77      -0.2867
     85  CB        -1.7900  -46.6010   40.0090 C.3    77  ILE77       0.0252
     86  CG1       -1.2120  -45.6160   39.0100 C.3    77  ILE77       0.0019
     87  CG2       -3.1020  -46.0770   40.6020 C.3    77  ILE77       0.0019
     88  CD1        0.0250  -46.0980   38.3030 C.3    77  ILE77       0.0001
     89  N          2.9930  -48.1700   39.1500 N.3    79  LEU79      -0.1245
     90  CA         3.7870  -48.2090   37.9340 C.3    79  LEU79       0.1561
     91  C          5.2640  -48.0210   38.2400 C.2    79  LEU79       0.2260
     92  O          6.1160  -48.7010   37.6500 O.2    79  LEU79      -0.2867
     93  CB         3.2840  -47.1380   36.9680 C.3    79  LEU79       0.0270
     94  CG         4.0970  -46.8990   35.6920 C.3    79  LEU79       0.0019
     95  CD1        4.2670  -48.1920   34.8630 C.3    79  LEU79       0.0001
     96  CD2        3.4480  -45.7720   34.8690 C.3    79  LEU79       0.0001
@<TRIPOS>BOND
     1     1     2    1
     2     2     3    1
     3     2     5    1
     4     3     4    2
     5     5     6    1
     6     9    10    1
     7     6     7    2
     8     6     8   am
     9    10    11    1
    10    10    13    1
    11    20    11   am
    12    20    21    1
    13    22    21    1
    14    22    23    2
    15    11    12    2
    16    27    29   ar
    17    27    25   ar
    18    13    14    1
    19    24    21    1
    20    24    25    1
    21    29    30   ar
    22    25    26   ar
    23    31    32    1
    24    14    15    1
    25    30    28   ar
    26    15    16    1
    27    26    28   ar
    28    32    33    1
    29    32    35    1
    30    33    34    2
    31    18    17    1
    32    16    17    2
    33    35    36    1
    34    35    37    1
    35    36    38    1
    36    17    19    1
    37    39    40    1
    38    41    40    1
    39    41    42    2
    40    40    43    1
    41    43    44    1
    42    44    45    1
    43    44    46    1
    44    53    52    1
    45    52    51    1
    46    52    54    1
    47    51    48    1
    48    49    48    1
    49    49    50    2
    50    48    47    1
    51    95    94    1
    52    96    94    1
    53    67    64    1
    54    62    60    1
    55    94    93    1
    56    59    60    1
    57    59    56    1
    58    57    56    1
    59    57    58    2
    60    55    56    1
    61    60    61    1
    62    64    65    1
    63    64    63    1
    64    93    90    1
    65    65    66    2
    66    75    73    1
    67    92    91    2
    68    80    77    1
    69    90    91    1
    70    90    89    1
    71    88    86    1
    72    77    76    1
    73    77    78    1
    74    73    72    1
    75    73    74    1
    76    76    70   am
    77    86    85    1
    78    72    69    1
    79    70    71    2
    80    70    69    1
    81    79    78    2
    82    85    87    1
    83    85    82    1
    84    84    83    2
    85    69    68    1
    86    83    82    1
    87    82    81    1
