@<TRIPOS>MOLECULE
tmp/5umhB03.pdb
 72 65 0 0 0
SMALL
GASTEIGER

@<TRIPOS>ATOM
      1  N         -3.2690  -47.4230   22.2340 N.3    37  LEU37      -0.1245
      2  CA        -4.5850  -47.0360   21.7440 C.3    37  LEU37       0.1561
      3  C         -5.4520  -48.2570   21.4940 C.2    37  LEU37       0.2260
      4  O         -6.6400  -48.2590   21.8380 O.2    37  LEU37      -0.2867
      5  CB        -4.4610  -46.2580   20.4440 C.3    37  LEU37       0.0270
      6  CG        -3.9510  -44.8280   20.4780 C.3    37  LEU37       0.0019
      7  CD1       -3.9570  -44.2960   19.0540 C.3    37  LEU37       0.0001
      8  CD2       -4.8170  -43.9670   21.3700 C.3    37  LEU37       0.0001
      9  N         -6.6210  -49.5480   24.7740 N.3    40  LEU40      -0.1245
     10  CA        -7.6640  -48.6670   25.3000 C.3    40  LEU40       0.1561
     11  C         -8.9950  -48.9270   24.6070 C.2    40  LEU40       0.2260
     12  O        -10.0410  -49.0510   25.2660 O.2    40  LEU40      -0.2867
     13  CB        -7.2470  -47.2030   25.1320 C.3    40  LEU40       0.0270
     14  CG        -8.3120  -46.1910   25.5500 C.3    40  LEU40       0.0019
     15  CD1       -8.6570  -46.3480   27.0310 C.3    40  LEU40       0.0001
     16  CD2       -7.8290  -44.7950   25.2330 C.3    40  LEU40       0.0001
     17  N        -12.4870  -50.3430   26.3170 N.3    44  ILE44      -0.1245
     18  CA       -13.7650  -49.6550   26.2200 C.3    44  ILE44       0.1561
     19  C        -14.8320  -50.5960   25.6790 C.2    44  ILE44       0.2260
     20  O        -15.9630  -50.6390   26.1820 O.2    44  ILE44      -0.2867
     21  CB       -13.6040  -48.4060   25.3350 C.3    44  ILE44       0.0252
     22  CG1      -12.8180  -47.3270   26.0770 C.3    44  ILE44       0.0019
     23  CG2      -14.9730  -47.8690   24.8590 C.3    44  ILE44       0.0019
     24  CD1      -12.3170  -46.2230   25.1650 C.3    44  ILE44       0.0001
     25  N        -17.4480  -49.2180   28.2920 N.3    49  ILE49      -0.1245
     26  CA       -17.2150  -47.9350   28.9320 C.3    49  ILE49       0.1561
     27  C        -17.9640  -46.8700   28.1460 C.2    49  ILE49       0.2260
     28  O        -17.8050  -46.7480   26.9210 O.2    49  ILE49      -0.2867
     29  CB       -15.7080  -47.6490   29.0290 C.3    49  ILE49       0.0252
     30  CG1      -14.9950  -48.8100   29.7560 C.3    49  ILE49       0.0019
     31  CG2      -15.4630  -46.3110   29.7300 C.3    49  ILE49       0.0019
     32  CD1      -13.5060  -48.5870   29.9690 C.3    49  ILE49       0.0001
     33  N        -18.3500  -41.8970   30.8580 N.3    53  GLU53      -0.1231
     34  CA       -17.1950  -42.3930   31.6030 C.3    53  GLU53       0.1699
     35  C        -15.8920  -41.9790   30.9330 C.2    53  GLU53       0.2592
     36  O        -14.9650  -41.5110   31.5990 O.2    53  GLU53      -0.2718
     37  CB       -17.2880  -43.9110   31.7400 C.3    53  GLU53       0.0402
     38  CG       -18.3330  -44.3540   32.7550 C.3    53  GLU53       0.1161
     39  CD       -18.5750  -45.8570   32.7610 C.2    53  GLU53       0.3649
     40  OE1      -18.4110  -46.5120   31.7100 O.co2  53  GLU53      -0.2457
     41  OE2      -18.9520  -46.3820   33.8290 O.co2  53  GLU53      -0.2457
     42  N        -15.8050  -42.1200   29.6100 N.am   54  VAL54      -0.1980
     43  CA       -14.5890  -41.7160   28.9060 C.3    54  VAL54       0.1595
     44  C        -14.2960  -40.2340   29.1240 C.2    54  VAL54       0.2287
     45  O        -13.1580  -39.8510   29.4160 O.2    54  VAL54      -0.2864
     46  CB       -14.6800  -42.0780   27.4130 C.3    54  VAL54       0.0276
     47  CG1      -13.5090  -41.4740   26.6390 C.3    54  VAL54       0.0022
     48  CG2      -14.7120  -43.5990   27.2400 C.3    54  VAL54       0.0022
     49  N        -15.1440  -38.3490   31.5610 N.3    56  ALA56      -0.1231
     50  CA       -14.6740  -38.1610   32.9340 C.3    56  ALA56       0.1694
     51  C        -13.2030  -38.5340   33.0540 C.2    56  ALA56       0.2593
     52  O        -12.4380  -37.8490   33.7450 O.2    56  ALA56      -0.2718
     53  CB       -15.5380  -38.9870   33.8820 C.3    56  ALA56       0.0304
     54  N        -12.7830  -39.5930   32.3630 N.am   57  GLY57      -0.1942
     55  CA       -11.3710  -39.9440   32.3380 C.3    57  GLY57       0.2014
     56  C        -10.5190  -38.8960   31.6410 C.2    57  GLY57       0.2638
     57  O         -9.4170  -38.5680   32.0980 O.2    57  GLY57      -0.2714
     58  N        -11.0140  -38.3520   30.5250 N.am   58  VAL58      -0.1977
     59  CA       -10.3050  -37.2840   29.8300 C.3    58  VAL58       0.1596
     60  C        -10.1750  -36.0700   30.7370 C.2    58  VAL58       0.2287
     61  O         -9.1070  -35.4420   30.8160 O.2    58  VAL58      -0.2864
     62  CB       -11.0400  -36.9550   28.5100 C.3    58  VAL58       0.0276
     63  CG1      -10.5400  -35.6510   27.8960 C.3    58  VAL58       0.0022
     64  CG2      -10.9260  -38.1120   27.5230 C.3    58  VAL58       0.0022
     65  N         -7.4480  -36.5380   33.1990 N.3    61  LEU61      -0.1245
     66  CA        -6.1140  -36.2920   32.6480 C.3    61  LEU61       0.1561
     67  C         -5.7840  -34.8050   32.5900 C.2    61  LEU61       0.2260
     68  O         -4.6400  -34.4050   32.8460 O.2    61  LEU61      -0.2867
     69  CB        -5.9760  -36.9300   31.2710 C.3    61  LEU61       0.0270
     70  CG        -5.9170  -38.4590   31.2690 C.3    61  LEU61       0.0019
     71  CD1       -5.7610  -38.9660   29.8450 C.3    61  LEU61       0.0001
     72  CD2       -4.7870  -39.0000   32.1460 C.3    61  LEU61       0.0001
@<TRIPOS>BOND
     1     7     6    1
     2     5     6    1
     3     5     2    1
     4     6     8    1
     5     3     2    1
     6     3     4    2
     7     2     1    1
     8    11    12    2
     9    11    10    1
    10     9    10    1
    11    23    21    1
    12    13    10    1
    13    13    14    1
    14    24    22    1
    15    16    14    1
    16    21    22    1
    17    21    18    1
    18    14    15    1
    19    19    20    2
    20    19    18    1
    21    18    17    1
    22    47    46    1
    23    28    27    2
    24    48    46    1
    25    46    43    1
    26    64    62    1
    27    63    62    1
    28    27    26    1
    29    25    26    1
    30    62    59    1
    31    43    44    1
    32    43    42    1
    33    26    29    1
    34    29    31    1
    35    29    30    1
    36    44    45    2
    37    42    35   am
    38    30    32    1
    39    59    58    1
    40    59    60    1
    41    71    70    1
    42    58    56   am
    43    60    61    2
    44    33    34    1
    45    35    36    2
    46    35    34    1
    47    70    69    1
    48    70    72    1
    49    69    66    1
    50    49    50    1
    51    34    37    1
    52    56    57    2
    53    56    55    1
    54    40    39   ar
    55    37    38    1
    56    55    54    1
    57    54    51   am
    58    67    66    1
    59    67    68    2
    60    66    65    1
    61    38    39    1
    62    39    41   ar
    63    50    51    1
    64    50    53    1
    65    51    52    2
