@<TRIPOS>MOLECULE
tmp/5umnB04.pdb
 92 89 0 0 0
SMALL
GASTEIGER

@<TRIPOS>ATOM
      1  N         14.7160  105.5330   48.0000 N.3    45  SER45      -0.1217
      2  CA        16.0300  105.4020   47.3650 C.3    45  SER45       0.1889
      3  C         15.9290  104.4370   46.1940 C.2    45  SER45       0.2288
      4  O         15.2770  103.4020   46.3010 O.2    45  SER45      -0.2866
      5  CB        17.0530  104.8920   48.3680 C.3    45  SER45       0.2089
      6  OG        17.2510  105.8520   49.4020 O.3    45  SER45      -0.2183
      7  N         22.3580  100.0110   47.0010 N.3    49  PRO49      -0.2102
      8  CA        22.0130  100.0780   48.4320 C.3    49  PRO49       0.1504
      9  C         23.1720  100.5980   49.2570 C.2    49  PRO49       0.2576
     10  O         24.3470  100.2570   48.9950 O.2    49  PRO49      -0.2718
     11  CB        21.6750   98.6290   48.8150 C.3    49  PRO49       0.0282
     12  CG        22.0520   97.8130   47.6450 C.3    49  PRO49       0.0208
     13  CD        22.1390   98.6800   46.4360 C.3    49  PRO49       0.0893
     14  N         22.8570  101.4840   50.1960 N.am   50  TYR50      -0.1963
     15  CA        23.8990  102.1420   50.9310 C.3    50  TYR50       0.1771
     16  C         23.4690  102.3710   52.3820 C.2    50  TYR50       0.2620
     17  O         22.2800  102.2940   52.7390 O.2    50  TYR50      -0.2715
     18  CB        24.2760  103.4750   50.2280 C.3    50  TYR50       0.0574
     19  CG        23.2320  104.5530   50.4060 C.ar   50  TYR50      -0.0198
     20  CD1       22.1280  104.6510   49.5350 C.ar   50  TYR50      -0.0009
     21  CD2       23.3220  105.4700   51.4530 C.ar   50  TYR50      -0.0009
     22  CE1       21.1490  105.6190   49.7340 C.ar   50  TYR50       0.0417
     23  CE2       22.3640  106.4470   51.6490 C.ar   50  TYR50       0.0417
     24  CZ        21.2690  106.5270   50.7930 C.ar   50  TYR50       0.1957
     25  OH        20.3210  107.5160   50.9910 O.3    50  TYR50      -0.2866
     26  N         24.4560  102.6260   53.2120 N.am   51  ASP51      -0.1957
     27  CA        24.2000  103.2640   54.4810 C.3    51  ASP51       0.1840
     28  C         25.2400  104.3010   54.8220 C.2    51  ASP51       0.2621
     29  O         26.3410  104.3750   54.2190 O.2    51  ASP51      -0.2715
     30  CB        23.9760  102.2630   55.6070 C.3    51  ASP51       0.1450
     31  CG        24.9830  101.1930   55.6400 C.2    51  ASP51       0.3671
     32  OD1       26.1530  101.5580   55.9580 O.co2  51  ASP51      -0.2456
     33  OD2       24.6040   99.9880   55.3790 O.co2  51  ASP51      -0.2456
     34  N         24.8440  105.1330   55.7640 N.am   52  VAL52      -0.1977
     35  CA        25.6530  106.2150   56.2320 C.3    52  VAL52       0.1596
     36  C         25.7730  106.0050   57.7370 C.2    52  VAL52       0.2287
     37  O         24.8050  106.2450   58.4730 O.2    52  VAL52      -0.2864
     38  CB        25.0360  107.5810   55.9020 C.3    52  VAL52       0.0276
     39  CG1       26.0520  108.6800   56.1130 C.3    52  VAL52       0.0022
     40  CG2       24.5260  107.6080   54.4410 C.3    52  VAL52       0.0022
     41  N         24.4480  108.9300   59.6140 N.3    55  TYR55      -0.1241
     42  CA        23.4600  109.5810   58.7250 C.3    55  TYR55       0.1605
     43  C         22.9730  110.9380   59.2420 C.2    55  TYR55       0.2264
     44  O         22.9780  111.9350   58.5200 O.2    55  TYR55      -0.2867
     45  CB        22.2670  108.6530   58.5480 C.3    55  TYR55       0.0534
     46  CG        21.2460  109.1170   57.5450 C.ar   55  TYR55      -0.0201
     47  CD1       21.3500  108.7430   56.2240 C.ar   55  TYR55      -0.0009
     48  CD2       20.1410  109.8890   57.9310 C.ar   55  TYR55      -0.0009
     49  CE1       20.4000  109.1320   55.2750 C.ar   55  TYR55       0.0417
     50  CE2       19.1700  110.2900   56.9940 C.ar   55  TYR55       0.0417
     51  CZ        19.3200  109.9080   55.6610 C.ar   55  TYR55       0.1957
     52  OH        18.4270  110.2720   54.6850 O.3    55  TYR55      -0.2866
     53  N         18.2630   93.7930   49.5750 N.3   173  VAL173     -0.1231
     54  CA        17.6030   94.9810   49.0550 C.3   173  VAL173      0.1692
     55  C         17.5520   94.8620   47.5200 C.2   173  VAL173      0.2591
     56  O         18.5830   94.9240   46.8580 O.2   173  VAL173     -0.2718
     57  CB        18.3340   96.2710   49.4730 C.3   173  VAL173      0.0266
     58  CG1       17.6080   97.5020   48.9250 C.3   173  VAL173      0.0020
     59  CG2       18.4360   96.3610   50.9890 C.3   173  VAL173      0.0020
     60  N         16.3500   94.6680   46.9800 N.am  174  ARG174     -0.1980
     61  CA        16.1150   94.5610   45.5370 C.3   174  ARG174      0.1597
     62  C         17.1550   93.6650   44.8430 C.2   174  ARG174      0.2287
     63  O         17.7890   94.0360   43.8730 O.2   174  ARG174     -0.2864
     64  CB        16.0260   95.9750   44.9060 C.3   174  ARG174      0.0334
     65  CG        14.7590   96.7750   45.3100 C.3   174  ARG174      0.0492
     66  CD        14.7200   98.2380   44.8000 C.3   174  ARG174      0.2205
     67  NE        16.0220   98.9150   45.0100 N.pl3 174  ARG174     -0.0865
     68  CZ        16.3910   99.7030   46.0340 C.cat 174  ARG174      0.5346
     69  NH1       15.5470  100.0260   47.0320 N.pl3 174  ARG174      0.1354
     70  NH2       17.6540  100.1800   46.0660 N.pl3 174  ARG174      0.1354
     71  N         26.6050   96.2530   49.9090 N.3   179  ARG179     -0.1245
     72  CA        26.3610   97.6340   50.3200 C.3   179  ARG179      0.1563
     73  C         27.5240   98.5430   50.0150 C.2   179  ARG179      0.2260
     74  O         28.6740   98.0930   49.9470 O.2   179  ARG179     -0.2867
     75  CB        26.1850   97.7250   51.8420 C.3   179  ARG179      0.0307
     76  CG        24.9390   97.0920   52.3990 C.3   179  ARG179      0.0489
     77  CD        23.6840   97.8030   51.9040 C.3   179  ARG179      0.2205
     78  NE        22.5570   97.2970   52.6670 N.pl3 179  ARG179     -0.0865
     79  CZ        21.8550   96.2140   52.3990 C.cat 179  ARG179      0.5346
     80  NH1       22.0700   95.4780   51.2860 N.pl3 179  ARG179      0.1354
     81  NH2       20.8900   95.8760   53.2680 N.pl3 179  ARG179      0.1354
     82  N         10.8870  117.1850   58.2290 N.3   219  ARG219     -0.1245
     83  CA        10.1090  116.0760   57.7100 C.3   219  ARG219      0.1563
     84  C          8.6460  116.4440   57.8380 C.2   219  ARG219      0.2260
     85  O          8.1510  116.6020   58.9460 O.2   219  ARG219     -0.2867
     86  CB        10.3810  114.7970   58.4970 C.3   219  ARG219      0.0307
     87  CG        11.7960  114.2920   58.3530 C.3   219  ARG219      0.0489
     88  CD        11.9280  112.9070   58.9470 C.3   219  ARG219      0.2205
     89  NE        13.3070  112.4660   58.8560 N.pl3 219  ARG219     -0.0865
     90  CZ        14.2790  112.7780   59.7170 C.cat 219  ARG219      0.5346
     91  NH1       14.0520  113.5510   60.7870 N.pl3 219  ARG219      0.1354
     92  NH2       15.5070  112.3120   59.4980 N.pl3 219  ARG219      0.1354
@<TRIPOS>BOND
     1    63    62    2
     2    66    67    1
     3    66    65    1
     4    62    61    1
     5    64    65    1
     6    64    61    1
     7    67    68    2
     8    61    60    1
     9    68    70    1
    10    68    69    1
    11     3     4    2
    12     3     2    1
    13    13     7    1
    14    13    12    1
    15    56    55    2
    16    60    55   am
    17     7     8    1
    18     2     1    1
    19     2     5    1
    20    55    54    1
    21    12    11    1
    22     5     6    1
    23     8    11    1
    24     8     9    1
    25    58    57    1
    26    10     9    2
    27    54    57    1
    28    54    53    1
    29     9    14   am
    30    57    59    1
    31    20    22   ar
    32    20    19   ar
    33    22    24   ar
    34    71    72    1
    35    74    73    2
    36    73    72    1
    37    14    15    1
    38    18    19    1
    39    18    15    1
    40    72    75    1
    41    19    21   ar
    42    24    25    1
    43    24    23   ar
    44    15    16    1
    45    80    79    1
    46    21    23   ar
    47    75    76    1
    48    77    76    1
    49    77    78    1
    50    16    17    2
    51    16    26   am
    52    79    78    2
    53    79    81    1
    54    26    27    1
    55    29    28    2
    56    40    38    1
    57    27    28    1
    58    27    30    1
    59    52    51    1
    60    28    34   am
    61    49    51   ar
    62    49    47   ar
    63    33    31   ar
    64    30    31    1
    65    31    32   ar
    66    51    50   ar
    67    34    35    1
    68    38    39    1
    69    38    35    1
    70    47    46   ar
    71    35    36    1
    72    50    48   ar
    73    46    48   ar
    74    46    45    1
    75    83    84    1
    76    83    82    1
    77    83    86    1
    78    36    37    2
    79    84    85    2
    80    87    86    1
    81    87    88    1
    82    44    43    2
    83    45    42    1
    84    42    43    1
    85    42    41    1
    86    89    88    1
    87    89    90    2
    88    92    90    1
    89    90    91    1
