@<TRIPOS>MOLECULE
tmp/5umxA00.pdb
 92 91 0 0 0
SMALL
GASTEIGER

@<TRIPOS>ATOM
      1  N          5.7230   -0.3430   -4.4190 N.3     9  GLN9       -0.1231
      2  CA         5.5650    0.3320   -3.1390 C.3     9  GLN9        0.1698
      3  C          6.8870    0.9660   -2.7280 C.2     9  GLN9        0.2592
      4  O          6.9420    2.1230   -2.2870 O.2     9  GLN9       -0.2718
      5  CB         5.0660   -0.6180   -2.0510 C.3     9  GLN9        0.0381
      6  CG         4.7950    0.1270   -0.7500 C.3     9  GLN9        0.0905
      7  CD         3.8960   -0.5740    0.2450 C.2     9  GLN9        0.2608
      8  OE1        3.7650   -0.1090    1.3890 O.2     9  GLN9       -0.2717
      9  NE2        3.2470   -1.6080   -0.1670 N.am    9  GLN9       -0.0878
     10  N          7.9480    0.1750   -2.8240 N.am   10  LEU10      -0.1980
     11  CA         9.2730    0.6590   -2.4150 C.3    10  LEU10       0.1596
     12  C         10.3620   -0.1760   -3.0260 C.2    10  LEU10       0.2287
     13  O         10.1120   -1.2960   -3.4460 O.2    10  LEU10      -0.2864
     14  CB         9.4110    0.6910   -0.8850 C.3    10  LEU10       0.0297
     15  CG         9.1090   -0.5920   -0.1050 C.3    10  LEU10       0.0022
     16  CD1       10.3110   -1.5250   -0.0590 C.3    10  LEU10       0.0001
     17  CD2        8.6300   -0.2890    1.3080 C.3    10  LEU10       0.0001
     18  N         12.5490    3.0940   11.8480 N.3    37  GLN37      -0.1245
     19  CA        12.0140    2.0130   12.6810 C.3    37  GLN37       0.1566
     20  C         13.0940    0.9890   13.0100 C.2    37  GLN37       0.2260
     21  O         13.2090   -0.0280   12.3320 O.2    37  GLN37      -0.2867
     22  CB        10.8530    1.3480   11.9460 C.3    37  GLN37       0.0367
     23  CG         9.6420    2.2660   11.8270 C.3    37  GLN37       0.0905
     24  CD         8.4530    1.6860   11.0720 C.2    37  GLN37       0.2608
     25  OE1        7.4200    2.3410   10.9920 O.2    37  GLN37      -0.2717
     26  NE2        8.5750    0.4880   10.5210 N.am   37  GLN37      -0.0878
     27  N         14.4970   -2.2220   15.0300 N.3    39  GLY39      -0.1225
     28  CA        13.8260   -3.4710   15.3540 C.3    39  GLY39       0.1811
     29  C         14.8420   -4.5930   15.3340 C.2    39  GLY39       0.2280
     30  O         16.0260   -4.3520   15.0930 O.2    39  GLY39      -0.2866
     31  N         15.4760   -6.8420   13.1360 N.3    41  HIS41      -0.1226
     32  CA        16.0890   -7.1190   11.8350 C.3    41  HIS41       0.1752
     33  C         16.9840   -6.0070   11.2780 C.2    41  HIS41       0.2596
     34  O         17.5400   -6.1530   10.1880 O.2    41  HIS41      -0.2718
     35  CB        14.9860   -7.4780   10.8380 C.3    41  HIS41       0.0759
     36  CG        14.1910   -8.6710   11.2590 C.ar   41  HIS41       0.0818
     37  ND1       14.6980   -9.9530   11.2120 N.ar   41  HIS41      -0.2268
     38  CD2       12.9480   -8.7760   11.7850 C.ar   41  HIS41       0.1154
     39  CE1       13.7950  -10.8000   11.6720 C.ar   41  HIS41       0.1986
     40  NE2       12.7230  -10.1120   12.0280 N.ar   41  HIS41      -0.2212
     41  N         17.1360   -4.9210   12.0380 N.am   42  GLY42      -0.1957
     42  CA        17.9120   -3.7540   11.6120 C.3    42  GLY42       0.1869
     43  C         17.0480   -2.5000   11.6580 C.2    42  GLY42       0.2309
     44  O         15.8980   -2.5500   12.0590 O.2    42  GLY42      -0.2863
     45  N         14.9530    0.2000    9.8930 N.3    44  TRP44      -0.1241
     46  CA        14.1890    0.4100    8.6750 C.3    44  TRP44       0.1605
     47  C         14.0190    1.8960    8.5080 C.2    44  TRP44       0.2264
     48  O         13.2940    2.5350    9.2640 O.2    44  TRP44      -0.2867
     49  CB        12.8480   -0.2640    8.7720 C.3    44  TRP44       0.0550
     50  CG        11.9470   -0.0550    7.6590 C.ar   44  TRP44       0.0003
     51  CD1       11.0360    0.9390    7.5230 C.ar   44  TRP44       0.0946
     52  CD2       11.7980   -0.8980    6.5260 C.ar   44  TRP44       0.0152
     53  NE1       10.3390    0.7900    6.3550 N.ar   44  TRP44      -0.2442
     54  CE2       10.7830   -0.3340    5.7200 C.ar   44  TRP44       0.0810
     55  CE3       12.4310   -2.0700    6.1050 C.ar   44  TRP44       0.0012
     56  CZ2       10.3760   -0.9040    4.5210 C.ar   44  TRP44       0.0191
     57  CZ3       12.0270   -2.6440    4.9130 C.ar   44  TRP44       0.0001
     58  CH2       11.0070   -2.0640    4.1340 C.ar   44  TRP44       0.0015
     59  N         12.9980    4.8170    5.8330 N.3    46  GLN46      -0.1245
     60  CA        12.1940    4.9270    4.6200 C.3    46  GLN46       0.1566
     61  C         11.9080    6.3660    4.2840 C.2    46  GLN46       0.2260
     62  O         11.4850    7.1020    5.1500 O.2    46  GLN46      -0.2867
     63  CB        10.8750    4.2040    4.8330 C.3    46  GLN46       0.0367
     64  CG        10.0150    4.0500    3.5910 C.3    46  GLN46       0.0905
     65  CD         8.7910    3.2030    3.8750 C.2    46  GLN46       0.2608
     66  OE1        8.6120    2.7060    5.0180 O.2    46  GLN46      -0.2717
     67  NE2        7.9240    3.0380    2.8770 N.am   46  GLN46      -0.0878
     68  N         21.5040   -4.0490    5.0540 N.3    61  TRP61      -0.1227
     69  CA        21.4360   -5.4790    5.4260 C.3    61  TRP61       0.1737
     70  C         21.3500   -6.4680    4.2690 C.2    61  TRP61       0.2595
     71  O         21.1040   -7.6570    4.5070 O.2    61  TRP61      -0.2718
     72  CB        20.3290   -5.7420    6.4390 C.3    61  TRP61       0.0564
     73  CG        19.0110   -5.3560    5.9960 C.ar   61  TRP61       0.0003
     74  CD1       18.2000   -6.0340    5.1410 C.ar   61  TRP61       0.0946
     75  CD2       18.3110   -4.1880    6.3840 C.ar   61  TRP61       0.0152
     76  NE1       17.0310   -5.3470    4.9540 N.ar   61  TRP61      -0.2442
     77  CE2       17.0660   -4.2120    5.7240 C.ar   61  TRP61       0.0810
     78  CE3       18.6130   -3.1160    7.2330 C.ar   61  TRP61       0.0012
     79  CZ2       16.1290   -3.1940    5.8580 C.ar   61  TRP61       0.0191
     80  CZ3       17.7040   -2.1080    7.3470 C.ar   61  TRP61       0.0001
     81  CH2       16.4600   -2.1580    6.6910 C.ar   61  TRP61       0.0015
     82  N         21.5480   -6.0200    3.0290 N.am   62  PHE62      -0.1976
     83  CA        21.5650   -6.9530    1.8990 C.3    62  PHE62       0.1639
     84  C         22.9880   -7.1270    1.3880 C.2    62  PHE62       0.2290
     85  O         23.4790   -6.2700    0.6580 O.2    62  PHE62      -0.2864
     86  CB        20.6500   -6.4700    0.7810 C.3    62  PHE62       0.0560
     87  CG        19.1880   -6.4290    1.1560 C.ar   62  PHE62      -0.0200
     88  CD1       18.5310   -7.5610    1.6600 C.ar   62  PHE62      -0.0042
     89  CD2       18.4460   -5.2570    0.9800 C.ar   62  PHE62      -0.0042
     90  CE1       17.1890   -7.5110    1.9960 C.ar   62  PHE62      -0.0003
     91  CE2       17.1010   -5.2090    1.3210 C.ar   62  PHE62      -0.0003
     92  CZ        16.4760   -6.3440    1.8250 C.ar   62  PHE62      -0.0000
@<TRIPOS>BOND
     1     1     2    1
     2    13    12    2
     3     2     3    1
     4     2     5    1
     5    12    11    1
     6    10     3   am
     7    10    11    1
     8     3     4    2
     9    11    14    1
    10     5     6    1
    11    14    15    1
    12     6     7    1
    13     9     7   am
    14    15    16    1
    15    15    17    1
    16     7     8    2
    17    85    84    2
    18    86    87    1
    19    86    83    1
    20    89    87   ar
    21    89    91   ar
    22    87    88   ar
    23    91    92   ar
    24    84    83    1
    25    88    90   ar
    26    92    90   ar
    27    83    82    1
    28    67    65   am
    29    82    70   am
    30    64    65    1
    31    64    63    1
    32    65    66    2
    33    58    56   ar
    34    58    57   ar
    35    70    71    2
    36    70    69    1
    37    61    60    1
    38    61    62    2
    39    56    54   ar
    40    60    63    1
    41    60    59    1
    42    57    55   ar
    43    76    74   ar
    44    76    77   ar
    45    68    69    1
    46    74    73   ar
    47    69    72    1
    48    54    53   ar
    49    54    52   ar
    50    77    79   ar
    51    77    75   ar
    52    79    81   ar
    53    73    75   ar
    54    73    72    1
    55    55    52   ar
    56    53    51   ar
    57    75    78   ar
    58    52    50   ar
    59    81    80   ar
    60    78    80   ar
    61    51    50   ar
    62    50    49    1
    63    47    46    1
    64    47    48    2
    65    46    49    1
    66    46    45    1
    67    34    33    2
    68    26    24   am
    69    35    36    1
    70    35    32    1
    71    25    24    2
    72    24    23    1
    73    37    36   ar
    74    37    39   ar
    75    36    38   ar
    76    33    32    1
    77    33    41   am
    78    42    43    1
    79    42    41    1
    80    43    44    2
    81    39    40   ar
    82    38    40   ar
    83    23    22    1
    84    32    31    1
    85    18    19    1
    86    22    19    1
    87    21    20    2
    88    19    20    1
    89    27    28    1
    90    30    29    2
    91    29    28    1
