@<TRIPOS>MOLECULE
tmp/5umyA00.pdb
 78 74 0 0 0
SMALL
GASTEIGER

@<TRIPOS>ATOM
      1  N          0.4930    3.6300   -9.3740 N.3    71  GLY71      -0.1210
      2  CA        -0.6470    3.3980  -10.2330 C.3    71  GLY71       0.1956
      3  C         -1.9720    3.8460   -9.6710 C.2    71  GLY71       0.2612
      4  O         -3.0010    3.2190   -9.9310 O.2    71  GLY71      -0.2717
      5  N         -1.9260    4.9100   -8.8700 N.am   72  LEU72      -0.1965
      6  CA        -3.1030    5.5140   -8.2940 C.3    72  LEU72       0.1728
      7  C         -3.3960    6.7420   -9.1380 C.2    72  LEU72       0.2616
      8  O         -2.5220    7.6240   -9.3130 O.2    72  LEU72      -0.2715
      9  CB        -2.8600    5.8570   -6.8330 C.3    72  LEU72       0.0311
     10  CG        -3.8630    6.7970   -6.1370 C.3    72  LEU72       0.0022
     11  CD1       -5.2260    6.1760   -6.0720 C.3    72  LEU72       0.0001
     12  CD2       -3.3970    7.1760   -4.7320 C.3    72  LEU72       0.0001
     13  N         -4.6220    6.8690   -9.6180 N.am   73  LEU73      -0.1977
     14  CA        -4.9590    8.0350  -10.4510 C.3    73  LEU73       0.1596
     15  C         -6.2050    8.7140   -9.9130 C.2    73  LEU73       0.2287
     16  O         -7.2590    8.0940   -9.7970 O.2    73  LEU73      -0.2864
     17  CB        -5.1820    7.5670  -11.8760 C.3    73  LEU73       0.0297
     18  CG        -5.2770    8.6370  -12.9440 C.3    73  LEU73       0.0022
     19  CD1       -3.9720    9.4380  -12.9930 C.3    73  LEU73       0.0001
     20  CD2       -5.5200    7.9790  -14.3070 C.3    73  LEU73       0.0001
     21  N         -5.2990    9.4740  -22.9800 N.3   101  TRP101     -0.1241
     22  CA        -6.5140    9.3790  -22.1360 C.3   101  TRP101      0.1605
     23  C         -6.9130   10.6950  -21.4680 C.2   101  TRP101      0.2264
     24  O         -7.9990   10.7820  -20.8910 O.2   101  TRP101     -0.2867
     25  CB        -6.3250    8.3330  -21.0380 C.3   101  TRP101      0.0550
     26  CG        -5.0230    8.4620  -20.3110 C.ar  101  TRP101      0.0003
     27  CD1       -4.7390    9.2700  -19.2150 C.ar  101  TRP101      0.0946
     28  CD2       -3.8020    7.7980  -20.6530 C.ar  101  TRP101      0.0152
     29  NE1       -3.4060    9.1270  -18.8510 N.ar  101  TRP101     -0.2442
     30  CE2       -2.8080    8.2310  -19.7140 C.ar  101  TRP101      0.0810
     31  CE3       -3.4450    6.8700  -21.6560 C.ar  101  TRP101      0.0012
     32  CZ2       -1.4830    7.7580  -19.7590 C.ar  101  TRP101      0.0191
     33  CZ3       -2.1370    6.4100  -21.7020 C.ar  101  TRP101      0.0001
     34  CH2       -1.1680    6.8540  -20.7530 C.ar  101  TRP101      0.0015
     35  N         -2.3940   14.7260  -17.6700 N.3   104  GLN104     -0.1245
     36  CA        -2.0290   14.0480  -16.4520 C.3   104  GLN104      0.1566
     37  C         -0.7290   14.6040  -15.8400 C.2   104  GLN104      0.2260
     38  O          0.1820   15.0750  -16.5490 O.2   104  GLN104     -0.2867
     39  CB        -1.8990   12.5850  -16.8210 C.3   104  GLN104      0.0367
     40  CG        -1.3790   11.6260  -15.7720 C.3   104  GLN104      0.0905
     41  CD        -1.7460   10.2050  -16.1380 C.2   104  GLN104      0.2608
     42  OE1       -2.8960    9.9260  -16.4300 O.2   104  GLN104     -0.2717
     43  NE2       -0.7550    9.3170  -16.1980 N.am  104  GLN104     -0.0878
     44  N          1.8570   13.8670  -12.0130 N.3   106  MET106     -0.1245
     45  CA         2.1650   12.9000  -10.9530 C.3   106  MET106      0.1570
     46  C          2.9350   13.6570   -9.8710 C.2   106  MET106      0.2261
     47  O          3.7000   14.5770  -10.1740 O.2   106  MET106     -0.2867
     48  CB         3.0910   11.7980  -11.4320 C.3   106  MET106      0.0387
     49  CG         2.5090   10.7780  -12.3850 C.3   106  MET106      0.0595
     50  SD         3.7550    9.5110  -12.8020 S.3   106  MET106     -0.1393
     51  CE         5.2170    9.8020  -11.8070 C.3   106  MET106      0.0692
     52  N          3.1650    7.1980   -5.0890 N.3   114  VAL114     -0.1231
     53  CA         3.0260    8.0340   -6.2840 C.3   114  VAL114      0.1692
     54  C          1.5830    8.1900   -6.6690 C.2   114  VAL114      0.2592
     55  O          0.8860    7.2090   -6.8450 O.2   114  VAL114     -0.2718
     56  CB         3.7940    7.4530   -7.4710 C.3   114  VAL114      0.0266
     57  CG1        3.6520    8.3570   -8.6960 C.3   114  VAL114      0.0020
     58  CG2        5.2660    7.3230   -7.1100 C.3   114  VAL114      0.0020
     59  N          1.1550    9.4370   -6.8210 N.am  115  ILE115     -0.1966
     60  CA        -0.2300    9.8090   -7.0160 C.3   115  ILE115      0.1727
     61  C         -0.3050   10.5240   -8.3600 C.2   115  ILE115      0.2616
     62  O          0.4440   11.4820   -8.6020 O.2   115  ILE115     -0.2715
     63  CB        -0.6900   10.7690   -5.8810 C.3   115  ILE115      0.0290
     64  CG1       -0.5390   10.0750   -4.5330 C.3   115  ILE115      0.0022
     65  CG2       -2.1260   11.2740   -6.0730 C.3   115  ILE115      0.0023
     66  CD1       -0.6980   10.9730   -3.3480 C.3   115  ILE115      0.0001
     67  N         -1.2090   10.0600   -9.2140 N.am  116  GLY116     -0.1955
     68  CA        -1.4880   10.7060  -10.4910 C.3   116  GLY116      0.1869
     69  C         -2.7110   11.5950  -10.4020 C.2   116  GLY116      0.2309
     70  O         -3.6060   11.3860   -9.5860 O.2   116  GLY116     -0.2863
     71  N         -5.5080   13.1590  -13.2510 N.3   118  ASN118     -0.1240
     72  CA        -5.9180   13.0870  -14.6700 C.3   118  ASN118      0.1653
     73  C         -7.1990   13.9070  -14.9190 C.2   118  ASN118      0.2266
     74  O         -8.2100   13.7790  -14.2030 O.2   118  ASN118     -0.2867
     75  CB        -6.1130   11.6420  -15.0970 C.3   118  ASN118      0.1155
     76  CG        -6.5050   11.4980  -16.5680 C.2   118  ASN118      0.2627
     77  OD1       -5.9350   12.1360  -17.4180 O.2   118  ASN118     -0.2716
     78  ND2       -7.3970   10.5670  -16.8630 N.am  118  ASN118     -0.0877
@<TRIPOS>BOND
     1    21    22    1
     2    22    23    1
     3    22    25    1
     4    33    31   ar
     5    33    34   ar
     6    31    28   ar
     7    23    24    2
     8    25    26    1
     9    34    32   ar
    10    28    26   ar
    11    28    30   ar
    12    26    27   ar
    13    32    30   ar
    14    30    29   ar
    15    27    29   ar
    16    35    36    1
    17    77    76    2
    18    78    76   am
    19    39    36    1
    20    39    40    1
    21    76    75    1
    22    38    37    2
    23    36    37    1
    24    42    41    2
    25    43    41   am
    26    41    40    1
    27    75    72    1
    28    73    72    1
    29    73    74    2
    30    72    71    1
    31    20    18    1
    32    19    18    1
    33    18    17    1
    34    50    49    1
    35    50    51    1
    36    49    48    1
    37    44    45    1
    38    17    14    1
    39    48    45    1
    40    45    46    1
    41    68    69    1
    42    68    67    1
    43    14    15    1
    44    14    13    1
    45    69    70    2
    46     2     3    1
    47     2     1    1
    48    47    46    2
    49     4     3    2
    50    15    16    2
    51     3     5   am
    52    13     7   am
    53     8     7    2
    54    67    61   am
    55     7     6    1
    56     5     6    1
    57    57    56    1
    58    62    61    2
    59    61    60    1
    60     6     9    1
    61    56    58    1
    62    56    53    1
    63    60    59    1
    64    60    63    1
    65    55    54    2
    66     9    10    1
    67    59    54   am
    68    54    53    1
    69    53    52    1
    70    10    11    1
    71    10    12    1
    72    65    63    1
    73    63    64    1
    74    64    66    1
