@<TRIPOS>MOLECULE
tmp/5umyA01.pdb
 127 125 0 0 0
SMALL
GASTEIGER

@<TRIPOS>ATOM
      1  N        -15.4650    0.2940   -1.6890 N.3     8  GLN8       -0.1231
      2  CA       -15.6730    1.1820   -0.5830 C.3     8  GLN8        0.1698
      3  C        -14.4270    1.9380   -0.2510 C.2     8  GLN8        0.2592
      4  O        -14.4520    3.1590    0.0010 O.2     8  GLN8       -0.2718
      5  CB       -16.1820    0.4240    0.6600 C.3     8  GLN8        0.0381
      6  CG       -16.5140    1.3290    1.8390 C.3     8  GLN8        0.0905
      7  CD       -16.9750    0.5700    3.0950 C.2     8  GLN8        0.2608
      8  OE1      -16.8420    1.0740    4.2380 O.2     8  GLN8       -0.2717
      9  NE2      -17.5690   -0.5860    2.8950 N.am    8  GLN8       -0.0878
     10  N        -13.3200    1.2180   -0.1940 N.am    9  LEU9       -0.1980
     11  CA       -12.0510    1.8670    0.1580 C.3     9  LEU9        0.1596
     12  C        -10.9030    0.9610   -0.2120 C.2     9  LEU9        0.2287
     13  O        -11.0800   -0.2230   -0.3890 O.2     9  LEU9       -0.2864
     14  CB       -11.9980    2.2150    1.6740 C.3     9  LEU9        0.0297
     15  CG       -12.2910    1.0900    2.6690 C.3     9  LEU9        0.0022
     16  CD1      -11.0470    0.2400    2.9120 C.3     9  LEU9        0.0001
     17  CD2      -12.8900    1.6160    3.9760 C.3     9  LEU9        0.0001
     18  N         -6.2660    0.7840    0.5200 N.3    11  SER11      -0.1217
     19  CA        -5.2810    1.1830    1.5140 C.3    11  SER11       0.1889
     20  C         -4.0230    1.7570    0.8360 C.2    11  SER11       0.2288
     21  O         -3.5990    1.2620   -0.2400 O.2    11  SER11      -0.2866
     22  CB        -4.9470   -0.0130    2.3840 C.3    11  SER11       0.2089
     23  OG        -6.0720   -0.3760    3.2060 O.3    11  SER11      -0.2183
     24  N        -12.4560    9.8850    8.9740 N.3    34  ALA34      -0.1245
     25  CA       -12.4060    9.1640   10.2540 C.3    34  ALA34       0.1562
     26  C        -10.9710    9.1210   10.7230 C.2    34  ALA34       0.2260
     27  O        -10.0290    9.0570    9.8840 O.2    34  ALA34      -0.2867
     28  CB       -12.9720    7.7210   10.0840 C.3    34  ALA34       0.0290
     29  N         -9.5760    7.2610   14.2560 N.3    36  GLN36      -0.1231
     30  CA        -9.9670    6.5920   15.4880 C.3    36  GLN36       0.1683
     31  C         -9.2060    5.2960   15.6360 C.2    36  GLN36       0.2434
     32  O         -8.5320    4.8580   14.6910 O.2    36  GLN36      -0.2733
     33  CB       -11.4580    6.3240   15.4860 C.3    36  GLN36       0.0380
     34  CG       -11.9200    5.3150   14.4460 C.3    36  GLN36       0.0905
     35  CD       -13.2280    5.7020   13.7820 C.2    36  GLN36       0.2608
     36  OE1      -13.7450    6.8220   13.9610 O.2    36  GLN36      -0.2717
     37  NE2      -13.7600    4.7940   12.9850 N.am   36  GLN36      -0.0878
     38  N         -9.3050    4.6580   16.8200 N.am   37  PRO37      -0.2718
     39  CA        -8.6120    3.3720   16.9480 C.3    37  PRO37       0.1535
     40  C         -9.2680    2.2940   16.0910 C.2    37  PRO37       0.2599
     41  O        -10.4890    2.2680   15.9320 O.2    37  PRO37      -0.2715
     42  CB        -8.7360    3.0310   18.4390 C.3    37  PRO37       0.0310
     43  CG        -9.1400    4.2780   19.1150 C.3    37  PRO37       0.0237
     44  CD        -9.8800    5.1080   18.1000 C.3    37  PRO37       0.0939
     45  N         -8.4500    1.4330   15.5090 N.am   38  GLY38      -0.1941
     46  CA        -8.9360    0.3080   14.7310 C.3    38  GLY38       0.2014
     47  C         -8.3170   -0.9550   15.2740 C.2    38  GLY38       0.2639
     48  O         -7.5030   -0.9120   16.1970 O.2    38  GLY38      -0.2714
     49  N         -8.6690   -2.0710   14.6480 N.am   39  VAL39      -0.1963
     50  CA        -8.2640   -3.3730   15.1670 C.3    39  VAL39       0.1727
     51  C         -6.7440   -3.5610   15.0420 C.2    39  VAL39       0.2616
     52  O         -6.1520   -4.0740   15.9840 O.2    39  VAL39      -0.2715
     53  CB        -9.1230   -4.5660   14.6190 C.3    39  VAL39       0.0290
     54  CG1       -9.3460   -4.4530   13.1240 C.3    39  VAL39       0.0023
     55  CG2       -8.5140   -5.9310   14.9630 C.3    39  VAL39       0.0023
     56  N         -6.1140   -3.0980   13.9500 N.am   40  HIS40      -0.1973
     57  CA        -4.6560   -3.2630   13.7580 C.3    40  HIS40       0.1656
     58  C         -3.8350   -1.9910   13.9870 C.2    40  HIS40       0.2291
     59  O         -2.6300   -2.0070   13.7470 O.2    40  HIS40      -0.2864
     60  CB        -4.3470   -3.8310   12.3670 C.3    40  HIS40       0.0771
     61  CG        -4.9480   -5.1800   12.1240 C.ar   40  HIS40       0.0820
     62  ND1       -6.1270   -5.3510   11.4280 N.ar   40  HIS40      -0.2267
     63  CD2       -4.5550   -6.4160   12.5140 C.ar   40  HIS40       0.1154
     64  CE1       -6.4240   -6.6370   11.3760 C.ar   40  HIS40       0.1986
     65  NE2       -5.4870   -7.3040   12.0280 N.ar   40  HIS40      -0.2212
     66  N         -6.8990    3.9830   12.6750 N.3    43  TRP43      -0.1241
     67  CA        -7.7060    4.0030   11.4440 C.3    43  TRP43       0.1605
     68  C         -7.8510    5.4310   10.9700 C.2    43  TRP43       0.2264
     69  O         -8.4840    6.2430   11.6380 O.2    43  TRP43      -0.2867
     70  CB        -9.0750    3.3860   11.6780 C.3    43  TRP43       0.0550
     71  CG        -9.9700    3.3670   10.4990 C.ar   43  TRP43       0.0003
     72  CD1      -10.9070    4.3090   10.1600 C.ar   43  TRP43       0.0946
     73  CD2      -10.0470    2.3500    9.5200 C.ar   43  TRP43       0.0152
     74  NE1      -11.5660    3.9270    9.0480 N.ar   43  TRP43      -0.2442
     75  CE2      -11.0240    2.7410    8.5980 C.ar   43  TRP43       0.0810
     76  CE3       -9.3550    1.1380    9.3170 C.ar   43  TRP43       0.0012
     77  CZ2      -11.3860    1.9370    7.5150 C.ar   43  TRP43       0.0191
     78  CZ3       -9.6770    0.3620    8.2340 C.ar   43  TRP43       0.0001
     79  CH2      -10.6930    0.7560    7.3350 C.ar   43  TRP43       0.0015
     80  N         -8.7790    7.6880    7.5740 N.3    45  GLN45      -0.1245
     81  CA        -9.5420    7.4730    6.3720 C.3    45  GLN45       0.1566
     82  C         -9.8900    8.8270    5.7890 C.2    45  GLN45       0.2260
     83  O        -10.4130    9.7060    6.5110 O.2    45  GLN45      -0.2867
     84  CB       -10.7890    6.6770    6.6910 C.3    45  GLN45       0.0367
     85  CG       -11.6740    6.3450    5.5130 C.3    45  GLN45       0.0905
     86  CD       -12.9290    5.5680    5.9160 C.2    45  GLN45       0.2608
     87  OE1      -13.2270    5.3800    7.1060 O.2    45  GLN45      -0.2717
     88  NE2      -13.6810    5.1170    4.9130 N.am   45  GLN45      -0.0878
     89  N         -7.4830    4.5990    3.0190 N.3    56  VAL56      -0.1245
     90  CA        -7.1200    4.3940    4.4200 C.3    56  VAL56       0.1561
     91  C         -5.5980    4.4320    4.4900 C.2    56  VAL56       0.2260
     92  O         -4.9310    3.7350    3.7460 O.2    56  VAL56      -0.2867
     93  CB        -7.6820    3.0740    4.9810 C.3    56  VAL56       0.0252
     94  CG1       -7.4460    2.9710    6.4540 C.3    56  VAL56       0.0019
     95  CG2       -9.1770    2.9780    4.7140 C.3    56  VAL56       0.0019
     96  N         -2.5570    3.4530    6.0860 N.3    58  VAL58      -0.1245
     97  CA        -2.2800    2.3380    7.0180 C.3    58  VAL58       0.1561
     98  C         -0.8090    2.0820    7.1700 C.2    58  VAL58       0.2260
     99  O         -0.0180    2.4000    6.2820 O.2    58  VAL58      -0.2867
    100  CB        -2.9010    1.0120    6.5150 C.3    58  VAL58       0.0252
    101  CG1       -4.3540    1.1910    6.1790 C.3    58  VAL58       0.0019
    102  CG2       -2.1450    0.4590    5.2900 C.3    58  VAL58       0.0019
    103  N          0.1890   -1.2300    8.6690 N.3    60  TRP60      -0.1227
    104  CA         0.2000   -2.5560    9.3020 C.3    60  TRP60       0.1737
    105  C          0.2200   -3.7390    8.3440 C.2    60  TRP60       0.2595
    106  O          0.0360   -4.8690    8.7980 O.2    60  TRP60      -0.2718
    107  CB        -0.9380   -2.6660   10.3380 C.3    60  TRP60       0.0564
    108  CG        -2.2920   -2.4220    9.7380 C.ar   60  TRP60       0.0003
    109  CD1       -3.0240   -3.2820    8.9630 C.ar   60  TRP60       0.0946
    110  CD2       -3.0940   -1.2620    9.9140 C.ar   60  TRP60       0.0152
    111  NE1       -4.2350   -2.7160    8.6300 N.ar   60  TRP60      -0.2442
    112  CE2       -4.3030   -1.4710    9.1890 C.ar   60  TRP60       0.0810
    113  CE3       -2.9260   -0.0700   10.6230 C.ar   60  TRP60       0.0012
    114  CZ2       -5.3130   -0.5290    9.1410 C.ar   60  TRP60       0.0191
    115  CZ3       -3.9500    0.8600   10.6010 C.ar   60  TRP60       0.0001
    116  CH2       -5.1220    0.6380    9.8430 C.ar   60  TRP60       0.0015
    117  N          0.4610   -3.5080    7.0550 N.am   61  PHE61      -0.1976
    118  CA         0.5770   -4.6000    6.1050 C.3    61  PHE61       0.1639
    119  C          2.0180   -4.7990    5.6420 C.2    61  PHE61       0.2290
    120  O          2.5230   -4.0300    4.8530 O.2    61  PHE61      -0.2864
    121  CB        -0.3300   -4.3810    4.8880 C.3    61  PHE61       0.0560
    122  CG        -1.7970   -4.3600    5.2040 C.ar   61  PHE61      -0.0200
    123  CD1       -2.4170   -5.4630    5.7620 C.ar   61  PHE61      -0.0042
    124  CD2       -2.5730   -3.2530    4.8220 C.ar   61  PHE61      -0.0042
    125  CE1       -3.7800   -5.4480    6.0390 C.ar   61  PHE61      -0.0003
    126  CE2       -3.9220   -3.2200    5.0730 C.ar   61  PHE61      -0.0003
    127  CZ        -4.5400   -4.3310    5.6800 C.ar   61  PHE61      -0.0000
@<TRIPOS>BOND
     1     1     2    1
     2     2     3    1
     3     2     5    1
     4    13    12    2
     5     3    10   am
     6     3     4    2
     7    21    20    2
     8    12    11    1
     9    10    11    1
    10    11    14    1
    11    18    19    1
    12     5     6    1
    13    20    19    1
    14    19    22    1
    15    14    15    1
    16     6     7    1
    17    22    23    1
    18    15    16    1
    19    15    17    1
    20     9     7   am
    21    89    90    1
    22     7     8    2
    23    92    91    2
    24    90    91    1
    25    90    93    1
    26    95    93    1
    27   124   126   ar
    28   124   122   ar
    29   120   119    2
    30   121   122    1
    31   121   118    1
    32    88    86   am
    33    93    94    1
    34   126   127   ar
    35   122   123   ar
    36   102   100    1
    37    85    86    1
    38    85    84    1
    39   119   118    1
    40   127   125   ar
    41   123   125   ar
    42    82    81    1
    43    82    83    2
    44    86    87    2
    45    96    97    1
    46   118   117    1
    47   101   100    1
    48    99    98    2
    49    81    84    1
    50    81    80    1
    51   100    97    1
    52    97    98    1
    53   117   105   am
    54    79    77   ar
    55    79    78   ar
    56    77    75   ar
    57    78    76   ar
    58   105   106    2
    59   105   104    1
    60    75    74   ar
    61    75    73   ar
    62   111   109   ar
    63   111   112   ar
    64   103   104    1
    65   109   108   ar
    66    24    25    1
    67    74    72   ar
    68   114   112   ar
    69   114   116   ar
    70   112   110   ar
    71   104   107    1
    72    76    73   ar
    73    73    71   ar
    74   108   110   ar
    75   108   107    1
    76   116   115   ar
    77    27    26    2
    78   110   113   ar
    79    28    25    1
    80    72    71   ar
    81    25    26    1
    82    71    70    1
    83   115   113   ar
    84    68    67    1
    85    68    69    2
    86    64    62   ar
    87    64    65   ar
    88    62    61   ar
    89    67    70    1
    90    67    66    1
    91    65    63   ar
    92    61    60    1
    93    61    63   ar
    94    60    57    1
    95    37    35   am
    96    54    53    1
    97    59    58    2
    98    57    56    1
    99    57    58    1
   100    35    36    2
   101    35    34    1
   102    56    51   am
   103    29    30    1
   104    34    33    1
   105    53    55    1
   106    53    50    1
   107    49    50    1
   108    49    47   am
   109    32    31    2
   110    46    47    1
   111    46    45    1
   112    51    50    1
   113    51    52    2
   114    47    48    2
   115    33    30    1
   116    30    31    1
   117    45    40   am
   118    31    38   am
   119    41    40    2
   120    40    39    1
   121    38    39    1
   122    38    44    1
   123    39    42    1
   124    44    43    1
   125    42    43    1
