@<TRIPOS>MOLECULE
tmp/5un1A02.pdb
 120 117 0 0 0
SMALL
GASTEIGER

@<TRIPOS>ATOM
      1  N         -2.9790  -19.7520   23.2590 N.3    17  TYR17      -0.1241
      2  CA        -2.9340  -18.2940   23.2610 C.3    17  TYR17       0.1605
      3  C         -1.5950  -17.8120   23.8160 C.2    17  TYR17       0.2264
      4  O         -1.0890  -18.3590   24.8050 O.2    17  TYR17      -0.2867
      5  CB        -4.0680  -17.7210   24.1140 C.3    17  TYR17       0.0534
      6  CG        -5.4690  -17.9100   23.5680 C.ar   17  TYR17      -0.0201
      7  CD1       -5.8980  -17.1890   22.4760 C.ar   17  TYR17      -0.0009
      8  CD2       -6.3730  -18.7820   24.1760 C.ar   17  TYR17      -0.0009
      9  CE1       -7.1740  -17.3370   21.9700 C.ar   17  TYR17       0.0417
     10  CE2       -7.6590  -18.9370   23.6820 C.ar   17  TYR17       0.0417
     11  CZ        -8.0520  -18.2060   22.5740 C.ar   17  TYR17       0.1957
     12  OH        -9.3220  -18.3270   22.0470 O.3    17  TYR17      -0.2866
     13  N         -0.1550  -14.0910   24.8150 N.3    19  ARG19      -0.1245
     14  CA        -0.3830  -12.6710   25.0530 C.3    19  ARG19       0.1563
     15  C          0.6800  -12.1220   26.0050 C.2    19  ARG19       0.2260
     16  O          1.3550  -12.8930   26.6950 O.2    19  ARG19      -0.2867
     17  CB        -1.7920  -12.4460   25.6250 C.3    19  ARG19       0.0307
     18  CG        -2.8940  -12.4110   24.5720 C.3    19  ARG19       0.0489
     19  CD        -4.2270  -11.9950   25.1840 C.3    19  ARG19       0.2205
     20  NE        -5.2620  -11.7730   24.1760 N.pl3  19  ARG19      -0.0865
     21  CZ        -6.4910  -11.3400   24.4480 C.cat  19  ARG19       0.5346
     22  NH1       -7.3670  -11.1650   23.4680 N.pl3  19  ARG19       0.1354
     23  NH2       -6.8450  -11.0800   25.7010 N.pl3  19  ARG19       0.1354
     24  N         -8.0700  -13.4830   34.1310 N.3    30  GLU30      -0.1231
     25  CA        -9.2530  -13.4560   33.2960 C.3    30  GLU30       0.1699
     26  C        -10.1840  -14.5940   33.6860 C.2    30  GLU30       0.2592
     27  O         -9.7660  -15.5840   34.2950 O.2    30  GLU30      -0.2718
     28  CB        -8.8930  -13.5350   31.8110 C.3    30  GLU30       0.0402
     29  CG        -8.4310  -12.2070   31.2480 C.3    30  GLU30       0.1161
     30  CD        -8.8760  -12.0030   29.8160 C.2    30  GLU30       0.3649
     31  OE1       -9.2870  -12.9920   29.1700 O.co2  30  GLU30      -0.2457
     32  OE2       -8.8210  -10.8500   29.3400 O.co2  30  GLU30      -0.2457
     33  N        -11.4520  -14.4380   33.3140 N.am   31  TYR31      -0.1962
     34  CA       -12.5210  -15.3250   33.7340 C.3    31  TYR31       0.1771
     35  C        -13.0140  -16.1360   32.5420 C.2    31  TYR31       0.2620
     36  O        -13.2860  -15.5750   31.4770 O.2    31  TYR31      -0.2715
     37  CB       -13.6640  -14.5240   34.3630 C.3    31  TYR31       0.0574
     38  CG       -13.2180  -13.6760   35.5270 C.ar   31  TYR31      -0.0198
     39  CD1      -12.7750  -14.2620   36.7120 C.ar   31  TYR31      -0.0009
     40  CD2      -13.2110  -12.2840   35.4330 C.ar   31  TYR31      -0.0009
     41  CE1      -12.3310  -13.4860   37.7750 C.ar   31  TYR31       0.0417
     42  CE2      -12.7720  -11.4970   36.4890 C.ar   31  TYR31       0.0417
     43  CZ       -12.3310  -12.1010   37.6560 C.ar   31  TYR31       0.1957
     44  OH       -11.8810  -11.3240   38.6980 O.3    31  TYR31      -0.2866
     45  N        -13.1040  -17.4540   32.7290 N.am   32  THR32      -0.1937
     46  CA       -13.5470  -18.3750   31.6840 C.3    32  THR32       0.2028
     47  C        -14.9940  -18.0720   31.2940 C.2    32  THR32       0.2642
     48  O        -15.8410  -17.8830   32.1680 O.2    32  THR32      -0.2714
     49  CB       -13.4110  -19.8200   32.1950 C.3    32  THR32       0.1808
     50  OG1      -12.0370  -20.0950   32.5200 O.3    32  THR32      -0.2208
     51  CG2      -13.9150  -20.8410   31.1940 C.3    32  THR32       0.0379
     52  N        -15.2840  -18.0430   29.9830 N.am   33  ILE33      -0.1977
     53  CA       -16.6540  -17.7910   29.5030 C.3    33  ILE33       0.1596
     54  C        -17.6990  -18.5250   30.3390 C.2    33  ILE33       0.2287
     55  O        -18.7660  -17.9740   30.6440 O.2    33  ILE33      -0.2864
     56  CB       -16.8100  -18.1550   28.0000 C.3    33  ILE33       0.0276
     57  CG1      -16.4410  -19.6030   27.7040 C.3    33  ILE33       0.0022
     58  CG2      -16.0090  -17.2500   27.1040 C.3    33  ILE33       0.0022
     59  CD1      -17.4920  -20.2880   26.8500 C.3    33  ILE33       0.0001
     60  N         -9.2850  -18.5960   34.3500 N.3    38  ILE38      -0.1245
     61  CA        -8.5200  -19.0210   33.1870 C.3    38  ILE38       0.1561
     62  C         -7.1020  -19.3600   33.6190 C.2    38  ILE38       0.2260
     63  O         -6.5070  -18.6680   34.4540 O.2    38  ILE38      -0.2867
     64  CB        -8.5270  -17.9310   32.1040 C.3    38  ILE38       0.0252
     65  CG1       -9.9550  -17.5710   31.7170 C.3    38  ILE38       0.0019
     66  CG2       -7.7220  -18.3940   30.8940 C.3    38  ILE38       0.0019
     67  CD1       -9.9340  -16.3220   30.8250 C.3    38  ILE38       0.0001
     68  N         -2.0160  -19.3500   27.4450 N.3    61  TYR61      -0.1241
     69  CA        -3.1920  -19.9710   28.0470 C.3    61  TYR61       0.1605
     70  C         -4.1010  -20.5030   26.9560 C.2    61  TYR61       0.2264
     71  O         -4.2030  -19.9100   25.8810 O.2    61  TYR61      -0.2867
     72  CB        -4.0110  -18.9860   28.8950 C.3    61  TYR61       0.0534
     73  CG        -4.7340  -17.8950   28.1100 C.ar   61  TYR61      -0.0201
     74  CD1       -4.0750  -16.7310   27.7350 C.ar   61  TYR61      -0.0009
     75  CD2       -6.0800  -18.0190   27.7710 C.ar   61  TYR61      -0.0009
     76  CE1       -4.7300  -15.7290   27.0380 C.ar   61  TYR61       0.0417
     77  CE2       -6.7430  -17.0210   27.0730 C.ar   61  TYR61       0.0417
     78  CZ        -6.0650  -15.8810   26.7090 C.ar   61  TYR61       0.1957
     79  OH        -6.7340  -14.8940   26.0150 O.3    61  TYR61      -0.2866
     80  N        -15.2880  -17.4000   15.3120 N.3   330  GLN330     -0.1245
     81  CA       -14.8920  -16.1200   15.8820 C.3   330  GLN330      0.1566
     82  C        -15.1380  -14.9510   14.9360 C.2   330  GLN330      0.2260
     83  O        -15.6860  -13.9290   15.3520 O.2   330  GLN330     -0.2867
     84  CB       -13.4130  -16.1650   16.3010 C.3   330  GLN330      0.0367
     85  CG       -12.9490  -14.8950   16.9830 C.3   330  GLN330      0.0905
     86  CD       -11.4990  -14.9530   17.4200 C.2   330  GLN330      0.2608
     87  OE1      -10.7220  -15.7700   16.9250 O.2   330  GLN330     -0.2717
     88  NE2      -11.1280  -14.0860   18.3530 N.am  330  GLN330     -0.0878
     89  N        -14.7210  -25.2060   26.8030 N.3   379  THR379     -0.1203
     90  CA       -14.0130  -24.0460   27.3340 C.3   379  THR379      0.1994
     91  C        -13.3030  -23.2630   26.2360 C.2   379  THR379      0.2617
     92  O        -13.4160  -22.0340   26.1770 O.2   379  THR379     -0.2717
     93  CB       -13.0100  -24.4760   28.4050 C.3   379  THR379      0.1784
     94  OG1      -13.7050  -25.0510   29.5200 O.3   379  THR379     -0.2211
     95  CG2      -12.2120  -23.2750   28.8820 C.3   379  THR379      0.0376
     96  N        -12.5700  -23.9500   25.3530 N.am  380  TRP380     -0.1975
     97  CA       -11.7180  -23.2740   24.3790 C.3   380  TRP380      0.1640
     98  C        -12.2450  -23.3080   22.9500 C.2   380  TRP380      0.2290
     99  O        -11.6260  -22.7020   22.0660 O.2   380  TRP380     -0.2864
    100  CB       -10.3070  -23.8670   24.4170 C.3   380  TRP380      0.0576
    101  CG        -9.7100  -23.7420   25.7560 C.ar  380  TRP380      0.0006
    102  CD1       -9.5120  -24.7380   26.6580 C.ar  380  TRP380      0.0946
    103  CD2       -9.2690  -22.5390   26.3790 C.ar  380  TRP380      0.0152
    104  NE1       -8.9530  -24.2320   27.8050 N.ar  380  TRP380     -0.2442
    105  CE2       -8.7970  -22.8800   27.6560 C.ar  380  TRP380      0.0810
    106  CE3       -9.2220  -21.2080   25.9800 C.ar  380  TRP380      0.0012
    107  CZ2       -8.2830  -21.9380   28.5320 C.ar  380  TRP380      0.0191
    108  CZ3       -8.7100  -20.2760   26.8500 C.ar  380  TRP380      0.0001
    109  CH2       -8.2490  -20.6430   28.1100 C.ar  380  TRP380      0.0015
    110  N        -15.4670  -21.9280   22.2110 N.3   382  ARG382     -0.1245
    111  CA       -16.5670  -21.2650   22.8890 C.3   382  ARG382      0.1563
    112  C        -17.7850  -21.4410   22.0480 C.2   382  ARG382      0.2260
    113  O        -18.8980  -21.4380   22.5290 O.2   382  ARG382     -0.2867
    114  CB       -16.2910  -19.7740   23.0730 C.3   382  ARG382      0.0307
    115  CG       -14.8440  -19.3830   23.2520 C.3   382  ARG382      0.0489
    116  CD       -14.5040  -18.2560   22.3190 C.3   382  ARG382      0.2205
    117  NE       -14.8950  -18.6070   20.9730 N.pl3 382  ARG382     -0.0865
    118  CZ       -14.8470  -17.7710   19.9610 C.cat 382  ARG382      0.5346
    119  NH1      -15.2100  -18.1410   18.7490 N.pl3 382  ARG382      0.1354
    120  NH2      -14.4540  -16.5480   20.1730 N.pl3 382  ARG382      0.1354
@<TRIPOS>BOND
     1    82    83    2
     2    82    81    1
     3    80    81    1
     4    81    84    1
     5    84    85    1
     6    87    86    2
     7    85    86    1
     8    86    88   am
     9   119   118    1
    10   118   120    1
    11   118   117    2
    12   117   116    1
    13     9     7   ar
    14     9    11   ar
    15    12    11    1
    16   112   113    2
    17   112   111    1
    18    99    98    2
    19   110   111    1
    20   116   115    1
    21     7     6   ar
    22    11    10   ar
    23   111   114    1
    24    98    97    1
    25   114   115    1
    26     1     2    1
    27     2     3    1
    28     2     5    1
    29    22    21    1
    30     6     5    1
    31     6     8   ar
    32    10     8   ar
    33     3     4    2
    34    20    21    2
    35    20    19    1
    36    97   100    1
    37    97    96    1
    38   100   101    1
    39    21    23    1
    40    18    19    1
    41    18    17    1
    42    13    14    1
    43    14    17    1
    44    14    15    1
    45    96    91   am
    46   101   103   ar
    47   101   102   ar
    48    71    70    2
    49   106   103   ar
    50   106   108   ar
    51    15    16    2
    52    79    78    1
    53    92    91    2
    54    91    90    1
    55   103   105   ar
    56   102   104   ar
    57    78    76   ar
    58    78    77   ar
    59    89    90    1
    60   108   109   ar
    61    59    57    1
    62    70    69    1
    63    76    74   ar
    64    77    75   ar
    65    58    56    1
    66    90    93    1
    67    68    69    1
    68   105   104   ar
    69   105   107   ar
    70    57    56    1
    71    74    73   ar
    72    75    73   ar
    73    56    53    1
    74    69    72    1
    75   109   107   ar
    76    73    72    1
    77    93    95    1
    78    93    94    1
    79    31    30   ar
    80    32    30   ar
    81    53    52    1
    82    53    54    1
    83    30    29    1
    84    52    47   am
    85    54    55    2
    86    67    65    1
    87    66    64    1
    88    51    49    1
    89    29    28    1
    90    47    46    1
    91    47    48    2
    92    36    35    2
    93    46    49    1
    94    46    45    1
    95    65    64    1
    96    28    25    1
    97    64    61    1
    98    49    50    1
    99    35    45   am
   100    35    34    1
   101    61    62    1
   102    61    60    1
   103    25    26    1
   104    25    24    1
   105    33    26   am
   106    33    34    1
   107    62    63    2
   108    26    27    2
   109    34    37    1
   110    37    38    1
   111    40    38   ar
   112    40    42   ar
   113    38    39   ar
   114    42    43   ar
   115    39    41   ar
   116    43    41   ar
   117    43    44    1
