@<TRIPOS>MOLECULE
tmp/5un1C00.pdb
 127 120 0 0 0
SMALL
GASTEIGER

@<TRIPOS>ATOM
      1  N         24.9680  -11.4060   53.6640 N.3    11  GLU11      -0.1245
      2  CA        24.4650  -11.1230   55.0120 C.3    11  GLU11       0.1567
      3  C         25.0130  -12.2060   55.9350 C.2    11  GLU11       0.2260
      4  O         24.5310  -13.3430   55.9200 O.2    11  GLU11      -0.2867
      5  CB        22.9420  -11.0780   55.0480 C.3    11  GLU11       0.0388
      6  CG        22.4290  -10.7360   56.4190 C.3    11  GLU11       0.1160
      7  CD        21.0340  -10.4950   56.5390 C.2    11  GLU11       0.3649
      8  OE1       20.4220  -10.0430   55.5360 O.co2  11  GLU11      -0.2457
      9  OE2       20.5210  -10.8930   57.6310 O.co2  11  GLU11      -0.2457
     10  N         18.5500   -6.2920   49.0730 N.3    74  HIS74      -0.1226
     11  CA        17.3710   -7.1400   49.1320 C.3    74  HIS74       0.1752
     12  C         16.2740   -6.5190   48.2760 C.2    74  HIS74       0.2596
     13  O         16.3720   -5.3700   47.8380 O.2    74  HIS74      -0.2718
     14  CB        16.8990   -7.3340   50.5770 C.3    74  HIS74       0.0759
     15  CG        17.8060   -8.1990   51.3970 C.ar   74  HIS74       0.0818
     16  ND1       17.7160   -8.2850   52.7700 N.ar   74  HIS74      -0.2268
     17  CD2       18.8210   -9.0190   51.0360 C.ar   74  HIS74       0.1154
     18  CE1       18.6350   -9.1210   53.2190 C.ar   74  HIS74       0.1986
     19  NE2       19.3200   -9.5790   52.1880 N.ar   74  HIS74      -0.2212
     20  N         15.2170   -7.2930   48.0460 N.am   75  GLY75      -0.1957
     21  CA        14.2040   -6.8900   47.0820 C.3    75  GLY75       0.1869
     22  C         13.3100   -5.7710   47.5960 C.2    75  GLY75       0.2309
     23  O         12.9410   -5.7220   48.7700 O.2    75  GLY75      -0.2863
     24  N         15.2530   -9.9490   44.2150 N.3    86  ILE86      -0.1245
     25  CA        14.0480  -10.4190   43.5470 C.3    86  ILE86       0.1561
     26  C         13.8590   -9.7230   42.2060 C.2    86  ILE86       0.2260
     27  O         13.1850  -10.2600   41.3200 O.2    86  ILE86      -0.2867
     28  CB        12.8210  -10.2290   44.4600 C.3    86  ILE86       0.0252
     29  CG1       13.0950  -10.6350   45.9120 C.3    86  ILE86       0.0019
     30  CG2       11.6370  -10.9950   43.8990 C.3    86  ILE86       0.0019
     31  CD1       13.0870  -12.1400   46.1060 C.3    86  ILE86       0.0001
     32  N         20.1580  -15.3920   52.7180 N.3   100  SER100     -0.1202
     33  CA        19.4560  -14.9470   53.9250 C.3   100  SER100      0.2020
     34  C         18.2010  -14.1580   53.5450 C.2   100  SER100      0.2619
     35  O         18.0050  -13.0100   53.9370 O.2   100  SER100     -0.2717
     36  CB        20.3830  -14.1130   54.8020 C.3   100  SER100      0.2103
     37  OG        20.7300  -12.9280   54.1520 O.3   100  SER100     -0.2182
     38  N         17.3420  -14.8090   52.7650 N.am  101  LEU101     -0.1965
     39  CA        16.1970  -14.1710   52.1270 C.3   101  LEU101      0.1728
     40  C         14.9120  -14.6240   52.8120 C.2   101  LEU101      0.2616
     41  O         14.5720  -15.8110   52.7820 O.2   101  LEU101     -0.2715
     42  CB        16.1650  -14.5090   50.6360 C.3   101  LEU101      0.0311
     43  CG        15.1060  -13.8530   49.7490 C.3   101  LEU101      0.0022
     44  CD1       15.5570  -12.4740   49.3260 C.3   101  LEU101      0.0001
     45  CD2       14.8060  -14.7090   48.5270 C.3   101  LEU101      0.0001
     46  N         14.2010  -13.6820   53.4230 N.am  102  THR102     -0.1951
     47  CA        12.9210  -14.0010   54.0350 C.3   102  THR102      0.1897
     48  C         11.8250  -14.0750   52.9780 C.2   102  THR102      0.2313
     49  O         11.9270  -13.4910   51.8970 O.2   102  THR102     -0.2863
     50  CB        12.5330  -12.9590   55.0830 C.3   102  THR102      0.1794
     51  OG1       12.2300  -11.7190   54.4330 O.3   102  THR102     -0.2208
     52  CG2       13.6590  -12.7460   56.0880 C.3   102  THR102      0.0378
     53  N          8.1760  -13.0720   52.0250 N.3   104  ASN104     -0.1240
     54  CA         7.0550  -12.1760   52.2730 C.3   104  ASN104      0.1653
     55  C          6.0110  -12.3760   51.1820 C.2   104  ASN104      0.2266
     56  O          6.2120  -13.1430   50.2410 O.2   104  ASN104     -0.2867
     57  CB         7.5120  -10.7170   52.3460 C.3   104  ASN104      0.1155
     58  CG         8.2540  -10.3810   53.5800 C.2   104  ASN104      0.2627
     59  OD1        7.6460  -10.4620   54.6550 O.2   104  ASN104     -0.2716
     60  ND2        9.4850  -10.0410   53.5010 N.am  104  ASN104     -0.0877
     61  N          6.5010  -10.7070   47.2840 N.3   107  ARG107     -0.1245
     62  CA         7.4150  -11.4720   46.4460 C.3   107  ARG107      0.1563
     63  C          6.7860  -12.7890   46.0190 C.2   107  ARG107      0.2260
     64  O          6.9910  -13.2430   44.8890 O.2   107  ARG107     -0.2867
     65  CB         8.7300  -11.7250   47.1830 C.3   107  ARG107      0.0307
     66  CG         9.3390  -10.4980   47.8530 C.3   107  ARG107      0.0489
     67  CD         8.8000  -10.2980   49.2630 C.3   107  ARG107      0.2205
     68  NE         9.5620   -9.3090   50.0170 N.pl3 107  ARG107     -0.0865
     69  CZ         9.3570   -7.9990   49.9560 C.cat 107  ARG107      0.5346
     70  NH1       10.1050   -7.1760   50.6770 N.pl3 107  ARG107      0.1354
     71  NH2        8.4070   -7.5080   49.1720 N.pl3 107  ARG107      0.1354
     72  N          8.8840  -19.8320   46.0890 N.3   113  PHE113     -0.1241
     73  CA         9.7510  -19.9820   47.2470 C.3   113  PHE113      0.1605
     74  C          9.7940  -21.4380   47.6660 C.2   113  PHE113      0.2264
     75  O          8.7790  -22.1370   47.6240 O.2   113  PHE113     -0.2867
     76  CB         9.2820  -19.1290   48.4260 C.3   113  PHE113      0.0534
     77  CG         9.6910  -17.6930   48.3320 C.ar  113  PHE113     -0.0203
     78  CD1       11.0190  -17.3340   48.4720 C.ar  113  PHE113     -0.0042
     79  CD2        8.7480  -16.7020   48.1130 C.ar  113  PHE113     -0.0042
     80  CE1       11.4020  -16.0150   48.3900 C.ar  113  PHE113     -0.0003
     81  CE2        9.1240  -15.3790   48.0300 C.ar  113  PHE113     -0.0003
     82  CZ        10.4530  -15.0340   48.1690 C.ar  113  PHE113     -0.0000
     83  N         14.0360   -5.5380   54.2800 N.3   242  SER242     -0.1217
     84  CA        12.9200   -6.3090   54.7910 C.3   242  SER242      0.1889
     85  C         12.6290   -5.9230   56.2410 C.2   242  SER242      0.2288
     86  O         13.4150   -5.2400   56.9060 O.2   242  SER242     -0.2866
     87  CB        13.2100   -7.8020   54.6850 C.3   242  SER242      0.2089
     88  OG        14.3820   -8.1340   55.4080 O.3   242  SER242     -0.2183
     89  N         15.2160   -5.6810   63.7030 N.3   283  TYR283     -0.1227
     90  CA        15.5480   -6.2780   62.4140 C.3   283  TYR283      0.1736
     91  C         15.2560   -7.7770   62.5070 C.2   283  TYR283      0.2595
     92  O         14.5660   -8.2230   63.4300 O.2   283  TYR283     -0.2718
     93  CB        17.0020   -5.9400   62.0350 C.3   283  TYR283      0.0548
     94  CG        17.4350   -6.3990   60.6610 C.ar  283  TYR283     -0.0200
     95  CD1       16.6480   -6.1520   59.5430 C.ar  283  TYR283     -0.0009
     96  CD2       18.6330   -7.0790   60.4830 C.ar  283  TYR283     -0.0009
     97  CE1       17.0400   -6.5730   58.2860 C.ar  283  TYR283      0.0417
     98  CE2       19.0340   -7.5010   59.2320 C.ar  283  TYR283      0.0417
     99  CZ        18.2340   -7.2450   58.1380 C.ar  283  TYR283      0.1957
    100  OH        18.6300   -7.6640   56.8910 O.3   283  TYR283     -0.2866
    101  N         15.7920   -8.5500   61.5630 N.am  284  ASP284     -0.1974
    102  CA        15.3940   -9.9410   61.3840 C.3   284  ASP284      0.1709
    103  C         15.6500  -10.7650   62.6400 C.2   284  ASP284      0.2293
    104  O         16.6140  -10.5430   63.3750 O.2   284  ASP284     -0.2864
    105  CB        16.1390  -10.5600   60.2020 C.3   284  ASP284      0.1436
    106  CG        15.6440  -11.9540   59.8700 C.2   284  ASP284      0.3671
    107  OD1       14.5430  -12.3190   60.3330 O.co2 284  ASP284     -0.2456
    108  OD2       16.3560  -12.6850   59.1510 O.co2 284  ASP284     -0.2456
    109  N         18.7070  -12.9310   62.0080 N.3   287  VAL287     -0.1245
    110  CA        19.8820  -12.0700   61.9490 C.3   287  VAL287      0.1561
    111  C         20.2020  -11.4960   63.3240 C.2   287  VAL287      0.2260
    112  O         21.3750  -11.3490   63.6890 O.2   287  VAL287     -0.2867
    113  CB        19.6730  -10.9600   60.9030 C.3   287  VAL287      0.0252
    114  CG1       21.0530  -10.3800   60.5860 C.3   287  VAL287      0.0019
    115  CG2       19.0800  -11.6030   59.6490 C.3   287  VAL287      0.0019
    116  N         13.4330  -18.2850   55.7410 N.3   314  TYR314     -0.1241
    117  CA        14.5360  -18.1600   54.7910 C.3   314  TYR314      0.1605
    118  C         14.3320  -19.2080   53.7050 C.2   314  TYR314      0.2264
    119  O         14.7540  -20.3600   53.8260 O.2   314  TYR314     -0.2867
    120  CB        15.8810  -18.3400   55.4870 C.3   314  TYR314      0.0534
    121  CG        16.4450  -17.0880   56.1160 C.ar  314  TYR314     -0.0201
    122  CD1       15.9210  -15.8380   55.8240 C.ar  314  TYR314     -0.0009
    123  CD2       17.5160  -17.1590   56.9960 C.ar  314  TYR314     -0.0009
    124  CE1       16.4450  -14.6980   56.4010 C.ar  314  TYR314      0.0417
    125  CE2       18.0370  -16.0280   57.5710 C.ar  314  TYR314      0.0417
    126  CZ        17.5030  -14.8040   57.2730 C.ar  314  TYR314      0.1957
    127  OH        18.0360  -13.6810   57.8580 O.3   314  TYR314     -0.2866
@<TRIPOS>BOND
     1    27    26    2
     2    26    25    1
     3    25    24    1
     4    25    28    1
     5    30    28    1
     6    28    29    1
     7    64    63    2
     8    29    31    1
     9    63    62    1
    10    72    73    1
    11    62    65    1
    12    62    61    1
    13    21    22    1
    14    21    20    1
    15    65    66    1
    16    73    74    1
    17    73    76    1
    18    22    23    2
    19    75    74    2
    20    13    12    2
    21    66    67    1
    22    81    79   ar
    23    81    82   ar
    24    20    12   am
    25    79    77   ar
    26    82    80   ar
    27    12    11    1
    28    77    76    1
    29    77    78   ar
    30    80    78   ar
    31    45    43    1
    32    10    11    1
    33    11    14    1
    34    71    69    1
    35    67    68    1
    36    44    43    1
    37    43    42    1
    38    69    68    2
    39    69    70    1
    40    56    55    2
    41    14    15    1
    42    42    39    1
    43    17    15   ar
    44    17    19   ar
    45    55    54    1
    46    15    16   ar
    47    49    48    2
    48    53    54    1
    49    39    38    1
    50    39    40    1
    51    19    18   ar
    52    54    57    1
    53    57    58    1
    54    32    33    1
    55    38    34   am
    56    16    18   ar
    57    41    40    2
    58    40    46   am
    59    48    47    1
    60    46    47    1
    61    60    58   am
    62    34    33    1
    63    34    35    2
    64    58    59    2
    65     1     2    1
    66   118   119    2
    67   118   117    1
    68    33    36    1
    69    47    50    1
    70    37    36    1
    71    83    84    1
    72    51    50    1
    73    87    84    1
    74    87    88    1
    75   117   120    1
    76   117   116    1
    77    84    85    1
    78     2     5    1
    79     2     3    1
    80     5     6    1
    81    50    52    1
    82   120   121    1
    83     8     7   ar
    84   122   121   ar
    85   122   124   ar
    86     4     3    2
    87   121   123   ar
    88    85    86    2
    89   124   126   ar
    90     6     7    1
    91     7     9   ar
    92   100    99    1
    93   123   125   ar
    94   126   125   ar
    95   126   127    1
    96    99    97   ar
    97    99    98   ar
    98    97    95   ar
    99   108   106   ar
   100    98    96   ar
   101    95    94   ar
   102   115   113    1
   103   106   105    1
   104   106   107   ar
   105   105   102    1
   106    96    94   ar
   107   114   113    1
   108    94    93    1
   109   113   110    1
   110   102   101    1
   111   102   103    1
   112   101    91   am
   113   110   109    1
   114   110   111    1
   115    93    90    1
   116    90    91    1
   117    90    89    1
   118    91    92    2
   119   103   104    2
   120   111   112    2
