@<TRIPOS>MOLECULE
tmp/5un9B00.pdb
 168 164 0 0 0
SMALL
GASTEIGER

@<TRIPOS>ATOM
      1  N        127.1860   28.0330  -55.6530 N.3     9  GLY9       -0.1210
      2  CA       126.1760   28.7660  -56.4030 C.3     9  GLY9        0.1956
      3  C        125.2450   27.9540  -57.2930 C.2     9  GLY9        0.2612
      4  O        124.6510   28.4870  -58.2330 O.2     9  GLY9       -0.2717
      5  N        125.0720   26.6800  -56.9750 N.am   10  PHE10      -0.1962
      6  CA       124.4140   25.7320  -57.8570 C.3    10  PHE10       0.1771
      7  C        122.9770   25.5230  -57.3950 C.2    10  PHE10       0.2619
      8  O        122.6020   25.9050  -56.2850 O.2    10  PHE10      -0.2715
      9  CB       125.1860   24.4000  -57.8910 C.3    10  PHE10       0.0574
     10  CG       125.5720   23.9010  -56.5290 C.ar   10  PHE10      -0.0200
     11  CD1      124.6450   23.2730  -55.7130 C.ar   10  PHE10      -0.0042
     12  CD2      126.8650   24.1230  -56.0370 C.ar   10  PHE10      -0.0042
     13  CE1      125.0030   22.8520  -54.4290 C.ar   10  PHE10      -0.0003
     14  CE2      127.2300   23.7020  -54.7730 C.ar   10  PHE10      -0.0003
     15  CZ       126.2980   23.0710  -53.9590 C.ar   10  PHE10      -0.0000
     16  N        122.1530   24.9990  -58.3050 N.am   11  TYR11      -0.1974
     17  CA       120.7730   24.6550  -57.9990 C.3    11  TYR11       0.1639
     18  C        120.7300   23.3580  -57.2180 C.2    11  TYR11       0.2290
     19  O        121.5620   22.4940  -57.4090 O.2    11  TYR11      -0.2864
     20  CB       119.9610   24.5220  -59.2910 C.3    11  TYR11       0.0560
     21  CG       119.7430   25.8380  -59.9990 C.ar   11  TYR11      -0.0198
     22  CD1      118.6780   26.6600  -59.6490 C.ar   11  TYR11      -0.0009
     23  CD2      120.6080   26.2770  -60.9990 C.ar   11  TYR11      -0.0009
     24  CE1      118.4730   27.8560  -60.2710 C.ar   11  TYR11       0.0417
     25  CE2      120.4030   27.4860  -61.6400 C.ar   11  TYR11       0.0417
     26  CZ       119.3280   28.2670  -61.2710 C.ar   11  TYR11       0.1957
     27  OH       119.0920   29.4830  -61.8840 O.3    11  TYR11      -0.2866
     28  N        121.4720   28.5760  -54.9060 N.3    40  LYS40      -0.1245
     29  CA       120.2360   29.0690  -55.5220 C.3    40  LYS40       0.1561
     30  C        118.9920   28.6320  -54.7750 C.2    40  LYS40       0.2260
     31  O        118.0010   29.3660  -54.7660 O.2    40  LYS40      -0.2867
     32  CB       120.1530   28.6450  -56.9890 C.3    40  LYS40       0.0271
     33  CG       121.1260   29.4300  -57.8830 C.3    40  LYS40       0.0035
     34  CD       120.4780   30.5690  -58.7460 C.3    40  LYS40       0.0206
     35  CE       121.4840   31.1940  -59.7470 C.3    40  LYS40       0.1093
     36  NZ       122.8900   31.4270  -59.2130 N.3    40  LYS40      -0.1314
     37  N        121.5860   36.9740  -62.0850 N.3   116  ASP116     -0.1225
     38  CA       121.6920   35.9130  -63.0870 C.3   116  ASP116      0.1805
     39  C        120.3900   35.1210  -63.1880 C.2   116  ASP116      0.2597
     40  O        119.5770   35.0980  -62.2670 O.2   116  ASP116     -0.2718
     41  CB       122.8530   34.9700  -62.7550 C.3   116  ASP116      0.1424
     42  CG       122.7960   34.4690  -61.3220 C.2   116  ASP116      0.3668
     43  OD1      122.3080   35.2350  -60.4530 O.co2 116  ASP116     -0.2456
     44  OD2      123.2040   33.3140  -61.0600 O.co2 116  ASP116     -0.2456
     45  N        120.1710   34.5230  -64.3480 N.am  117  ASP117     -0.1974
     46  CA       119.0440   33.6160  -64.5700 C.3   117  ASP117      0.1709
     47  C        117.7030   34.2740  -64.2370 C.2   117  ASP117      0.2293
     48  O        116.9120   33.7450  -63.4570 O.2   117  ASP117     -0.2864
     49  CB       119.2340   32.3150  -63.7820 C.3   117  ASP117      0.1436
     50  CG       120.4000   31.4710  -64.3060 C.2   117  ASP117      0.3671
     51  OD1      121.0770   31.9130  -65.2730 O.co2 117  ASP117     -0.2456
     52  OD2      120.6390   30.3570  -63.7560 O.co2 117  ASP117     -0.2456
     53  N        126.7010   40.4420  -60.2210 N.3   157  CYS157     -0.1235
     54  CA       126.5900   39.4550  -61.2910 C.3   157  CYS157      0.1677
     55  C        125.5840   39.9470  -62.3220 C.2   157  CYS157      0.2270
     56  O        124.3830   40.0460  -62.0190 O.2   157  CYS157     -0.2867
     57  CB       126.1790   38.0840  -60.7530 C.3   157  CYS157      0.0956
     58  SG       126.2770   36.8170  -62.0310 S.3   157  CYS157     -0.0801
     59  N        125.9570   37.3340  -68.3970 N.3   161  TYR161     -0.1241
     60  CA       127.1260   36.9170  -67.6280 C.3   161  TYR161      0.1605
     61  C        128.0560   35.9660  -68.3790 C.2   161  TYR161      0.2264
     62  O        128.9520   35.3690  -67.7560 O.2   161  TYR161     -0.2867
     63  CB       126.7030   36.2690  -66.3040 C.3   161  TYR161      0.0534
     64  CG       125.8310   35.0170  -66.3880 C.ar  161  TYR161     -0.0201
     65  CD1      126.3690   33.8030  -66.8270 C.ar  161  TYR161     -0.0009
     66  CD2      124.4990   35.0280  -65.9440 C.ar  161  TYR161     -0.0009
     67  CE1      125.6070   32.6530  -66.8760 C.ar  161  TYR161      0.0417
     68  CE2      123.7210   33.8800  -65.9800 C.ar  161  TYR161      0.0417
     69  CZ       124.2920   32.6810  -66.4470 C.ar  161  TYR161      0.1957
     70  OH       123.5620   31.5050  -66.5060 O.3   161  TYR161     -0.2866
     71  N        131.0870   39.7700  -62.2550 N.3   190  LEU190     -0.1231
     72  CA       131.2480   38.3360  -62.3550 C.3   190  LEU190      0.1693
     73  C        131.0080   37.8970  -63.7950 C.2   190  LEU190      0.2592
     74  O        130.2220   38.5070  -64.5230 O.2   190  LEU190     -0.2718
     75  CB       130.2730   37.6620  -61.3900 C.3   190  LEU190      0.0284
     76  CG       130.6690   37.7300  -59.9150 C.3   190  LEU190      0.0019
     77  CD1      129.4320   37.6020  -59.0280 C.3   190  LEU190      0.0001
     78  CD2      131.7580   36.7200  -59.5790 C.3   190  LEU190      0.0001
     79  N        131.7230   36.8560  -64.2150 N.am  191  TRP191     -0.1962
     80  CA       131.7470   36.4530  -65.6150 C.3   191  TRP191      0.1771
     81  C        132.0810   34.9720  -65.6490 C.2   191  TRP191      0.2620
     82  O        132.9640   34.5320  -64.9080 O.2   191  TRP191     -0.2715
     83  CB       132.7790   37.3030  -66.3740 C.3   191  TRP191      0.0590
     84  CG       132.8760   37.1600  -67.8500 C.ar  191  TRP191      0.0006
     85  CD1      133.9110   36.6030  -68.5520 C.ar  191  TRP191      0.0946
     86  CD2      131.9310   37.6140  -68.8280 C.ar  191  TRP191      0.0152
     87  NE1      133.6610   36.6710  -69.9060 N.ar  191  TRP191     -0.2442
     88  CE2      132.4490   37.2770  -70.1010 C.ar  191  TRP191      0.0810
     89  CE3      130.6870   38.2500  -68.7550 C.ar  191  TRP191      0.0012
     90  CZ2      131.7620   37.5560  -71.2860 C.ar  191  TRP191      0.0191
     91  CZ3      130.0050   38.5290  -69.9420 C.ar  191  TRP191      0.0001
     92  CH2      130.5440   38.1830  -71.1840 C.ar  191  TRP191      0.0015
     93  N        131.3600   34.2000  -66.4740 N.am  192  THR192     -0.1951
     94  CA       131.6260   32.7660  -66.5450 C.3   192  THR192      0.1897
     95  C        132.4660   32.3810  -67.7580 C.2   192  THR192      0.2313
     96  O        132.8200   31.2040  -67.8950 O.2   192  THR192     -0.2863
     97  CB       130.3150   31.9400  -66.5390 C.3   192  THR192      0.1794
     98  OG1      129.6370   32.0200  -67.8080 O.3   192  THR192     -0.2208
     99  CG2      129.3590   32.4020  -65.4210 C.3   192  THR192      0.0378
    100  N        128.1980   29.4830  -70.5350 N.3   196  VAL196     -0.1231
    101  CA       127.8820   29.1840  -69.1440 C.3   196  VAL196      0.1692
    102  C        128.9450   28.2630  -68.5530 C.2   196  VAL196      0.2591
    103  O        129.5220   28.5380  -67.4900 O.2   196  VAL196     -0.2718
    104  CB       126.4820   28.5490  -69.0280 C.3   196  VAL196      0.0266
    105  CG1      126.1430   28.3360  -67.5400 C.3   196  VAL196      0.0020
    106  CG2      125.4190   29.4210  -69.7010 C.3   196  VAL196      0.0020
    107  N        129.2070   27.1550  -69.2280 N.am  197  VAL197     -0.1980
    108  CA       130.2740   26.2280  -68.8760 C.3   197  VAL197      0.1595
    109  C        131.3030   26.3460  -69.9940 C.2   197  VAL197      0.2287
    110  O        131.1500   25.7380  -71.0580 O.2   197  VAL197     -0.2864
    111  CB       129.7600   24.7840  -68.7320 C.3   197  VAL197      0.0276
    112  CG1      130.8880   23.8570  -68.2030 C.3   197  VAL197      0.0022
    113  CG2      128.4140   24.7070  -67.9250 C.3   197  VAL197      0.0022
    114  N        133.3730   33.4250  -62.3010 N.3   220  TRP220     -0.1241
    115  CA       132.5390   32.3950  -61.6950 C.3   220  TRP220      0.1605
    116  C        132.6710   31.2210  -62.6440 C.2   220  TRP220      0.2264
    117  O        132.1690   31.2860  -63.7730 O.2   220  TRP220     -0.2867
    118  CB       131.0990   32.8960  -61.5820 C.3   220  TRP220      0.0550
    119  CG       130.0480   31.9490  -61.1240 C.ar  220  TRP220      0.0003
    120  CD1      129.8170   30.6570  -61.5510 C.ar  220  TRP220      0.0946
    121  CD2      129.0320   32.2380  -60.1640 C.ar  220  TRP220      0.0152
    122  NE1      128.7140   30.1320  -60.9040 N.ar  220  TRP220     -0.2442
    123  CE2      128.2150   31.0880  -60.0520 C.ar  220  TRP220      0.0810
    124  CE3      128.7230   33.3670  -59.3920 C.ar  220  TRP220      0.0012
    125  CZ2      127.1220   31.0350  -59.1880 C.ar  220  TRP220      0.0191
    126  CZ3      127.6300   33.3160  -58.5520 C.ar  220  TRP220      0.0001
    127  CH2      126.8520   32.1560  -58.4480 C.ar  220  TRP220      0.0015
    128  N        132.1350   27.4510  -64.0410 N.3   222  ASN222     -0.1240
    129  CA       131.2000   26.3300  -64.0050 C.3   222  ASN222      0.1653
    130  C        131.7630   25.0690  -64.6450 C.2   222  ASN222      0.2266
    131  O        130.9990   24.1620  -64.9890 O.2   222  ASN222     -0.2867
    132  CB       129.8820   26.6990  -64.6810 C.3   222  ASN222      0.1155
    133  CG       129.2200   27.8940  -64.0420 C.2   222  ASN222      0.2627
    134  OD1      128.8210   27.8300  -62.8740 O.2   222  ASN222     -0.2716
    135  ND2      129.0220   28.9660  -64.8150 N.am  222  ASN222     -0.0877
    136  N        130.7200   22.2410  -62.4600 N.3   225  ALA225     -0.1245
    137  CA       129.3460   22.2060  -62.0000 C.3   225  ALA225      0.1562
    138  C        128.6150   21.0310  -62.6440 C.2   225  ALA225      0.2260
    139  O        128.7790   20.7620  -63.8360 O.2   225  ALA225     -0.2867
    140  CB       128.6570   23.5310  -62.3320 C.3   225  ALA225      0.0290
    141  N        124.9980   20.4430  -61.7080 N.3   227  ASP227     -0.1225
    142  CA       123.5820   20.5570  -61.3540 C.3   227  ASP227      0.1805
    143  C        122.6510   20.4690  -62.5570 C.2   227  ASP227      0.2597
    144  O        121.4440   20.3740  -62.3550 O.2   227  ASP227     -0.2718
    145  CB       123.2870   21.8560  -60.5790 C.3   227  ASP227      0.1424
    146  CG       123.6130   23.1350  -61.3730 C.2   227  ASP227      0.3668
    147  OD1      124.1660   23.0580  -62.5120 O.co2 227  ASP227     -0.2456
    148  OD2      123.3490   24.2370  -60.8210 O.co2 227  ASP227     -0.2456
    149  N        123.1600   20.5310  -63.7890 N.am  228  TYR228     -0.1976
    150  CA       122.3190   20.5510  -64.9790 C.3   228  TYR228      0.1639
    151  C        122.1000   19.1730  -65.6110 C.2   228  TYR228      0.2290
    152  O        121.4320   19.0930  -66.6460 O.2   228  TYR228     -0.2864
    153  CB       122.9170   21.5190  -66.0060 C.3   228  TYR228      0.0560
    154  CG       124.3610   21.2140  -66.3680 C.ar  228  TYR228     -0.0198
    155  CD1      124.6830   20.2380  -67.3310 C.ar  228  TYR228     -0.0009
    156  CD2      125.4030   21.8460  -65.7040 C.ar  228  TYR228     -0.0009
    157  CE1      126.0130   19.9520  -67.6490 C.ar  228  TYR228      0.0417
    158  CE2      126.7160   21.5580  -65.9970 C.ar  228  TYR228      0.0417
    159  CZ       127.0250   20.6100  -66.9730 C.ar  228  TYR228      0.1957
    160  OH       128.3510   20.3520  -67.2600 O.3   228  TYR228     -0.2866
    161  N        132.4630   27.0700  -59.1460 N.3   255  ASN255     -0.1240
    162  CA       131.1520   26.5270  -58.8120 C.3   255  ASN255      0.1653
    163  C        131.1940   25.0260  -59.0940 C.2   255  ASN255      0.2266
    164  O        131.0740   24.6130  -60.2620 O.2   255  ASN255     -0.2867
    165  CB       130.0700   27.2210  -59.6460 C.3   255  ASN255      0.1155
    166  CG       128.6550   26.8020  -59.2460 C.2   255  ASN255      0.2627
    167  OD1      128.3920   26.5350  -58.0720 O.2   255  ASN255     -0.2716
    168  ND2      127.7360   26.7480  -60.2220 N.am  255  ASN255     -0.0877
@<TRIPOS>BOND
     1    90    92   ar
     2    90    88   ar
     3    92    91   ar
     4   110   109    2
     5   100   101    1
     6    88    87   ar
     7    88    86   ar
     8   109   108    1
     9    91    89   ar
    10    87    85   ar
    11   106   104    1
    12   107   108    1
    13   107   102   am
    14   101   104    1
    15   101   102    1
    16   104   105    1
    17   108   111    1
    18    86    89   ar
    19    86    84   ar
    20   111   112    1
    21   111   113    1
    22   102   103    2
    23    85    84   ar
    24    59    60    1
    25    61    62    2
    26    61    60    1
    27    96    95    2
    28    84    83    1
    29    98    97    1
    30    95    94    1
    31   157   155   ar
    32   157   159   ar
    33    60    63    1
    34   155   154   ar
    35   160   159    1
    36   159   158   ar
    37    67    65   ar
    38    67    69   ar
    39    65    64   ar
    40   152   151    2
    41    94    97    1
    42    94    93    1
    43    97    99    1
    44    70    69    1
    45    93    81   am
    46    69    68   ar
    47    64    63    1
    48    64    66   ar
    49    83    80    1
    50   154   153    1
    51   154   156   ar
    52   153   150    1
    53   158   156   ar
    54    68    66   ar
    55    81    80    1
    56    81    82    2
    57    80    79    1
    58   151   150    1
    59    51    50   ar
    60   131   130    2
    61   150   149    1
    62   135   133   am
    63   132   133    1
    64   132   129    1
    65   130   129    1
    66    46    45    1
    67    46    47    1
    68    46    49    1
    69    74    73    2
    70    45    39   am
    71    50    49    1
    72    50    52   ar
    73    47    48    2
    74    79    73   am
    75   133   134    2
    76   128   129    1
    77   139   138    2
    78    73    72    1
    79   149   143   am
    80   117   116    2
    81    39    38    1
    82    39    40    2
    83    38    41    1
    84    38    37    1
    85    41    42    1
    86   116   115    1
    87   138   137    1
    88   143   144    2
    89   143   142    1
    90   147   146   ar
    91   136   137    1
    92    72    71    1
    93    72    75    1
    94   140   137    1
    95    55    56    2
    96    55    54    1
    97   114   115    1
    98    58    57    1
    99    27    26    1
   100   141   142    1
   101   115   118    1
   102    25    26   ar
   103    25    23   ar
   104   118   119    1
   105   120   119   ar
   106   120   122   ar
   107    75    76    1
   108   146   148   ar
   109   146   145    1
   110   142   145    1
   111    42    44   ar
   112    42    43   ar
   113    54    57    1
   114    54    53    1
   115    26    24   ar
   116   119   121   ar
   117    23    21   ar
   118   122   123   ar
   119    24    22   ar
   120   164   163    2
   121   168   166   am
   122   121   123   ar
   123   121   124   ar
   124   123   125   ar
   125    21    22   ar
   126    21    20    1
   127    76    78    1
   128    76    77    1
   129    35    36    1
   130    35    34    1
   131   165   166    1
   132   165   162    1
   133   124   126   ar
   134    20    17    1
   135   166   167    2
   136   125   127   ar
   137   161   162    1
   138   163   162    1
   139    34    33    1
   140   126   127   ar
   141    16    17    1
   142    16     7   am
   143     4     3    2
   144    17    18    1
   145     9     6    1
   146     9    10    1
   147    33    32    1
   148     6     7    1
   149     6     5    1
   150    19    18    2
   151     7     8    2
   152     3     5   am
   153     3     2    1
   154    32    29    1
   155    10    12   ar
   156    10    11   ar
   157     2     1    1
   158    12    14   ar
   159    11    13   ar
   160    29    28    1
   161    29    30    1
   162    30    31    2
   163    14    15   ar
   164    13    15   ar
