@<TRIPOS>MOLECULE
tmp/5unaA00.pdb
 85 82 0 0 0
SMALL
GASTEIGER

@<TRIPOS>ATOM
      1  N         33.8700   57.1500   59.4910 N.3    23  ARG23      -0.1245
      2  CA        33.1000   56.0240   58.9240 C.3    23  ARG23       0.1563
      3  C         31.5910   56.1740   59.1000 C.2    23  ARG23       0.2260
      4  O         31.1140   56.2890   60.2240 O.2    23  ARG23      -0.2867
      5  CB        33.5950   54.6680   59.4700 C.3    23  ARG23       0.0307
      6  CG        33.4490   53.5960   58.4050 C.3    23  ARG23       0.0489
      7  CD        34.4440   52.4590   58.7050 C.3    23  ARG23       0.2205
      8  NE        35.2530   52.2080   57.5090 N.pl3  23  ARG23      -0.0865
      9  CZ        36.5720   52.2610   57.5820 C.cat  23  ARG23       0.5346
     10  NH1       37.1410   52.5400   58.7480 N.pl3  23  ARG23       0.1354
     11  NH2       37.3050   52.0350   56.5120 N.pl3  23  ARG23       0.1354
     12  N         37.8240   58.5030   50.5240 N.3    43  CYS43      -0.1221
     13  CA        38.2370   57.2390   49.9500 C.3    43  CYS43       0.1808
     14  C         38.5080   56.1720   51.0050 C.2    43  CYS43       0.2601
     15  O         37.7680   55.1920   51.0960 O.2    43  CYS43      -0.2717
     16  CB        39.4450   57.4510   49.0420 C.3    43  CYS43       0.0970
     17  SG        40.0570   55.9410   48.2570 S.3    43  CYS43      -0.0800
     18  N         39.5710   56.3670   51.8100 N.am   44  LYS44      -0.1979
     19  CA        40.0440   55.4120   52.8090 C.3    44  LYS44       0.1596
     20  C         39.0740   55.0970   53.9320 C.2    44  LYS44       0.2287
     21  O         39.0530   53.9490   54.3600 O.2    44  LYS44      -0.2864
     22  CB        41.3970   55.8570   53.4000 C.3    44  LYS44       0.0298
     23  CG        42.4310   56.1520   52.3460 C.3    44  LYS44       0.0038
     24  CD        43.0860   54.9010   51.8540 C.3    44  LYS44       0.0206
     25  CE        44.2100   55.1420   50.8550 C.3    44  LYS44       0.1093
     26  NZ        43.8280   55.9010   49.6710 N.3    44  LYS44      -0.1314
     27  N         35.5190   55.8260   54.3130 N.3    46  GLY46      -0.1225
     28  CA        34.0900   55.7510   54.0240 C.3    46  GLY46       0.1811
     29  C         33.1110   56.6680   54.7410 C.2    46  GLY46       0.2280
     30  O         32.1610   56.1580   55.3330 O.2    46  GLY46      -0.2866
     31  N         42.9240   60.9880   39.9960 N.3    68  HIS68      -0.1226
     32  CA        44.1500   60.4100   40.5790 C.3    68  HIS68       0.1752
     33  C         43.8650   59.4540   41.7500 C.2    68  HIS68       0.2596
     34  O         44.7190   58.6310   42.1040 O.2    68  HIS68      -0.2718
     35  CB        45.1390   61.4950   41.0420 C.3    68  HIS68       0.0759
     36  CG        45.4740   62.5070   40.0040 C.ar   68  HIS68       0.0818
     37  ND1       45.3970   63.8590   40.2770 N.ar   68  HIS68      -0.2268
     38  CD2       45.8490   62.3360   38.7140 C.ar   68  HIS68       0.1154
     39  CE1       45.7400   64.4700   39.1540 C.ar   68  HIS68       0.1986
     40  NE2       46.0090   63.5920   38.1810 N.ar   68  HIS68      -0.2212
     41  N         42.6850   59.5700   42.3570 N.am   69  TYR69      -0.1962
     42  CA        42.3030   58.6910   43.4450 C.3    69  TYR69       0.1771
     43  C         41.5770   57.4430   42.9370 C.2    69  TYR69       0.2619
     44  O         41.3590   56.5000   43.7070 O.2    69  TYR69      -0.2715
     45  CB        41.4800   59.4470   44.4700 C.3    69  TYR69       0.0574
     46  CG        42.3460   60.1270   45.4990 C.ar   69  TYR69      -0.0198
     47  CD1       42.5810   59.5410   46.7380 C.ar   69  TYR69      -0.0009
     48  CD2       42.9160   61.3690   45.2450 C.ar   69  TYR69      -0.0009
     49  CE1       43.3810   60.1670   47.6940 C.ar   69  TYR69       0.0417
     50  CE2       43.7200   62.0040   46.1900 C.ar   69  TYR69       0.0417
     51  CZ        43.9410   61.4070   47.4180 C.ar   69  TYR69       0.1957
     52  OH        44.7080   62.0720   48.3480 O.3    69  TYR69      -0.2866
     53  N         41.2470   57.4170   41.6280 N.am   70  LEU70      -0.1977
     54  CA        40.5660   56.2890   40.9860 C.3    70  LEU70       0.1596
     55  C         41.5650   55.4430   40.1860 C.2    70  LEU70       0.2287
     56  O         41.7620   54.2620   40.4840 O.2    70  LEU70      -0.2864
     57  CB        39.4130   56.7830   40.0840 C.3    70  LEU70       0.0297
     58  CG        38.3340   57.6420   40.7610 C.3    70  LEU70       0.0022
     59  CD1       37.4940   58.3590   39.7480 C.3    70  LEU70       0.0001
     60  CD2       37.4730   56.8290   41.6860 C.3    70  LEU70       0.0001
     61  N         33.6810   50.3500   45.0800 N.3    71  VAL71      -0.1245
     62  CA        33.1000   51.0410   43.9310 C.3    71  VAL71       0.1561
     63  C         31.5900   51.2550   44.0700 C.2    71  VAL71       0.2260
     64  O         30.8790   50.3050   44.4390 O.2    71  VAL71      -0.2867
     65  CB        33.4580   50.3580   42.5900 C.3    71  VAL71       0.0252
     66  CG1       32.8370   51.0830   41.4010 C.3    71  VAL71       0.0019
     67  CG2       34.9790   50.3780   42.4230 C.3    71  VAL71       0.0019
     68  N         29.6700   55.3920   48.5810 N.3    80  VAL80      -0.1231
     69  CA        31.0530   54.9780   48.3620 C.3    80  VAL80       0.1692
     70  C         31.7400   56.0020   47.4690 C.2    80  VAL80       0.2592
     71  O         31.1040   56.5710   46.5650 O.2    80  VAL80      -0.2718
     72  CB        31.1310   53.5680   47.6730 C.3    80  VAL80       0.0266
     73  CG1       32.5460   52.9970   47.7130 C.3    80  VAL80       0.0020
     74  CG2       30.1400   52.5780   48.2500 C.3    80  VAL80       0.0020
     75  N         33.0650   56.1570   47.6690 N.am   81  PHE81      -0.1976
     76  CA        33.9350   57.0280   46.8860 C.3    81  PHE81       0.1639
     77  C         33.9010   56.5750   45.4130 C.2    81  PHE81       0.2290
     78  O         33.8800   55.3730   45.1770 O.2    81  PHE81      -0.2864
     79  CB        35.3690   56.9840   47.4550 C.3    81  PHE81       0.0560
     80  CG        36.3170   57.9420   46.7990 C.ar   81  PHE81      -0.0200
     81  CD1       36.3850   59.2640   47.2080 C.ar   81  PHE81      -0.0042
     82  CD2       37.0940   57.5440   45.7170 C.ar   81  PHE81      -0.0042
     83  CE1       37.2460   60.1570   46.5820 C.ar   81  PHE81      -0.0003
     84  CE2       37.9470   58.4400   45.0840 C.ar   81  PHE81      -0.0003
     85  CZ        38.0230   59.7350   45.5290 C.ar   81  PHE81      -0.0000
@<TRIPOS>BOND
     1    40    38   ar
     2    40    39   ar
     3    38    36   ar
     4    39    37   ar
     5    59    58    1
     6    31    32    1
     7    36    37   ar
     8    36    35    1
     9    57    58    1
    10    57    54    1
    11    55    56    2
    12    55    54    1
    13    32    35    1
    14    32    33    1
    15    58    60    1
    16    54    53    1
    17    66    65    1
    18    53    43   am
    19    33    34    2
    20    33    41   am
    21    41    42    1
    22    67    65    1
    23    65    62    1
    24    43    42    1
    25    43    44    2
    26    42    45    1
    27    62    63    1
    28    62    61    1
    29    63    64    2
    30    45    46    1
    31    84    85   ar
    32    84    82   ar
    33    78    77    2
    34    48    46   ar
    35    48    50   ar
    36    77    76    1
    37    46    47   ar
    38    85    83   ar
    39    82    80   ar
    40    50    51   ar
    41    71    70    2
    42    83    81   ar
    43    47    49   ar
    44    80    81   ar
    45    80    79    1
    46    76    79    1
    47    76    75    1
    48    51    49   ar
    49    51    52    1
    50    70    75   am
    51    70    69    1
    52    72    73    1
    53    72    74    1
    54    72    69    1
    55    17    16    1
    56    69    68    1
    57    16    13    1
    58    26    25    1
    59    13    12    1
    60    13    14    1
    61    25    24    1
    62    14    15    2
    63    14    18   am
    64    18    19    1
    65    24    23    1
    66    23    22    1
    67    19    22    1
    68    19    20    1
    69    20    21    2
    70    28    27    1
    71    28    29    1
    72    29    30    2
    73    11     9    1
    74     8     9    2
    75     8     7    1
    76     9    10    1
    77     6     7    1
    78     6     5    1
    79     2     3    1
    80     2     5    1
    81     2     1    1
    82     3     4    2
