@<TRIPOS>MOLECULE
tmp/5uncA00.pdb
 142 134 0 0 0
SMALL
GASTEIGER

@<TRIPOS>ATOM
      1  N         51.8530    5.5250  151.3240 N.3    39  TRP39      -0.1241
      2  CA        51.6950    6.7990  150.6340 C.3    39  TRP39       0.1605
      3  C         52.4100    6.6790  149.2930 C.2    39  TRP39       0.2264
      4  O         53.6210    6.4350  149.2550 O.2    39  TRP39      -0.2867
      5  CB        52.2870    7.9310  151.4740 C.3    39  TRP39       0.0550
      6  CG        52.3180    9.3190  150.8690 C.ar   39  TRP39       0.0003
      7  CD1       53.4270   10.0030  150.4750 C.ar   39  TRP39       0.0946
      8  CD2       51.2040   10.2130  150.6630 C.ar   39  TRP39       0.0152
      9  NE1       53.0760   11.2610  150.0140 N.ar   39  TRP39      -0.2442
     10  CE2       51.7200   11.4100  150.1220 C.ar   39  TRP39       0.0810
     11  CE3       49.8210   10.1070  150.8610 C.ar   39  TRP39       0.0012
     12  CZ2       50.9060   12.4970  149.7950 C.ar   39  TRP39       0.0191
     13  CZ3       49.0180   11.1900  150.5430 C.ar   39  TRP39       0.0001
     14  CH2       49.5630   12.3680  150.0120 C.ar   39  TRP39       0.0015
     15  N         54.0110    8.3210  146.8730 N.3    41  SER41      -0.1217
     16  CA        54.5610    9.6700  146.9320 C.3    41  SER41       0.1889
     17  C         54.9560   10.2000  145.5600 C.2    41  SER41       0.2288
     18  O         55.7620    9.5780  144.8530 O.2    41  SER41      -0.2866
     19  CB        55.7880    9.6530  147.8460 C.3    41  SER41       0.2089
     20  OG        56.5330   10.8410  147.7070 O.3    41  SER41      -0.2183
     21  N         56.8350   12.8420  145.0800 N.3    43  LEU43      -0.1245
     22  CA        58.2660   13.1120  145.1900 C.3    43  LEU43       0.1561
     23  C         59.0870   11.8350  145.0240 C.2    43  LEU43       0.2260
     24  O         60.0160   11.7870  144.2100 O.2    43  LEU43      -0.2867
     25  CB        58.5700   13.7770  146.5350 C.3    43  LEU43       0.0270
     26  CG        59.9920   14.2680  146.8340 C.3    43  LEU43       0.0019
     27  CD1       60.8730   13.1640  147.4060 C.3    43  LEU43       0.0001
     28  CD2       60.6500   14.9130  145.6230 C.3    43  LEU43       0.0001
     29  N         59.4740   16.6450  140.5090 N.3    53  ASP53      -0.1239
     30  CA        58.1330   16.4100  141.0560 C.3    53  ASP53       0.1674
     31  C         57.2460   17.5920  140.6560 C.2    53  ASP53       0.2266
     32  O         56.9280   18.4660  141.4610 O.2    53  ASP53      -0.2867
     33  CB        58.2310   16.2510  142.5810 C.3    53  ASP53       0.1410
     34  CG        56.8830   15.9860  143.2550 C.2    53  ASP53       0.3668
     35  OD1       55.9470   15.4990  142.5690 O.co2  53  ASP53      -0.2456
     36  OD2       56.7770   16.2800  144.4820 O.co2  53  ASP53      -0.2456
     37  N         49.1340   10.0170  146.1840 N.3    78  ASP78      -0.1239
     38  CA        49.3960   11.4350  145.9440 C.3    78  ASP78       0.1674
     39  C         49.0970   11.7260  144.4770 C.2    78  ASP78       0.2266
     40  O         49.8390   11.2910  143.5870 O.2    78  ASP78      -0.2867
     41  CB        50.8480   11.7320  146.3030 C.3    78  ASP78       0.1410
     42  CG        51.2930   13.1350  145.9560 C.2    78  ASP78       0.3668
     43  OD1       50.4730   14.0120  145.5880 O.co2  78  ASP78      -0.2456
     44  OD2       52.5140   13.3540  146.0750 O.co2  78  ASP78      -0.2456
     45  N         45.3190   18.4620  145.4620 N.3   105  GLU105     -0.1245
     46  CA        45.6560   19.6930  146.1670 C.3   105  GLU105      0.1567
     47  C         45.1530   20.9240  145.4230 C.2   105  GLU105      0.2260
     48  O         45.0430   20.9290  144.1940 O.2   105  GLU105     -0.2867
     49  CB        47.1640   19.8040  146.3640 C.3   105  GLU105      0.0388
     50  CG        47.9290   19.9800  145.0760 C.3   105  GLU105      0.1160
     51  CD        49.4250   19.8260  145.2640 C.2   105  GLU105      0.3649
     52  OE1       49.8990   19.9360  146.4050 O.co2 105  GLU105     -0.2457
     53  OE2       50.1290   19.5860  144.2620 O.co2 105  GLU105     -0.2457
     54  N         51.6060   20.8930  138.7410 N.3   111  LYS111     -0.1231
     55  CA        51.9660   21.0280  140.1460 C.3   111  LYS111      0.1693
     56  C         53.3360   21.6720  140.3250 C.2   111  LYS111      0.2592
     57  O         54.2740   21.4040  139.5690 O.2   111  LYS111     -0.2718
     58  CB        51.9570   19.6320  140.7830 C.3   111  LYS111      0.0285
     59  CG        52.7710   19.4820  142.0400 C.3   111  LYS111      0.0035
     60  CD        52.5890   18.0730  142.5900 C.3   111  LYS111      0.0206
     61  CE        53.8180   17.5990  143.3210 C.3   111  LYS111      0.1093
     62  NZ        53.6240   16.2140  143.8720 N.3   111  LYS111     -0.1314
     63  N         53.4410   22.5320  141.3330 N.am  112  VAL112     -0.1966
     64  CA        54.7190   22.9680  141.8870 C.3   112  VAL112      0.1727
     65  C         54.8690   22.2700  143.2340 C.2   112  VAL112      0.2616
     66  O         53.9770   22.3740  144.0860 O.2   112  VAL112     -0.2715
     67  CB        54.7870   24.4970  142.0350 C.3   112  VAL112      0.0290
     68  CG1       54.8310   25.1740  140.6780 C.3   112  VAL112      0.0023
     69  CG2       53.6330   25.0120  142.8970 C.3   112  VAL112      0.0023
     70  N         55.9630   21.5160  143.4040 N.am  113  ASN113     -0.1958
     71  CA        56.2390   20.8320  144.6670 C.3   113  ASN113      0.1819
     72  C         56.2040   21.8450  145.8070 C.2   113  ASN113      0.2622
     73  O         56.6020   23.0000  145.6380 O.2   113  ASN113     -0.2715
     74  CB        57.6060   20.1230  144.6020 C.3   113  ASN113      0.1195
     75  CG        58.0210   19.4640  145.9360 C.2   113  ASN113      0.2630
     76  OD1       58.3450   20.1550  146.9000 O.2   113  ASN113     -0.2716
     77  ND2       58.0610   18.1180  145.9710 N.am  113  ASN113     -0.0877
     78  N         55.6950   21.4170  146.9660 N.am  114  SER114     -0.1936
     79  CA        55.5000   22.3520  148.0720 C.3   114  SER114      0.2055
     80  C         56.8000   22.9980  148.5240 C.2   114  SER114      0.2643
     81  O         56.7600   24.0740  149.1360 O.2   114  SER114     -0.2714
     82  CB        54.8370   21.6450  149.2570 C.3   114  SER114      0.2130
     83  OG        53.5490   21.1760  148.9030 O.3   114  SER114     -0.2179
     84  N         57.9470   22.3780  148.2400 N.am  115  PHE115     -0.1973
     85  CA        59.2310   22.9100  148.6880 C.3   115  PHE115      0.1639
     86  C         59.8630   23.8700  147.6900 C.2   115  PHE115      0.2290
     87  O         60.9710   24.3580  147.9470 O.2   115  PHE115     -0.2864
     88  CB        60.2080   21.7700  148.9910 C.3   115  PHE115      0.0560
     89  CG        59.7130   20.8130  150.0380 C.ar  115  PHE115     -0.0200
     90  CD1       59.4210   21.2550  151.3110 C.ar  115  PHE115     -0.0042
     91  CD2       59.5330   19.4660  149.7420 C.ar  115  PHE115     -0.0042
     92  CE1       58.9560   20.3780  152.2770 C.ar  115  PHE115     -0.0003
     93  CE2       59.0760   18.5800  150.7110 C.ar  115  PHE115     -0.0003
     94  CZ        58.7850   19.0420  151.9780 C.ar  115  PHE115     -0.0000
     95  N         43.7750   18.3570  149.7810 N.3   148  ARG148     -0.1245
     96  CA        45.0230   18.8620  150.3380 C.3   148  ARG148      0.1563
     97  C         45.1010   20.3850  150.2100 C.2   148  ARG148      0.2260
     98  O         44.9220   20.9390  149.1200 O.2   148  ARG148     -0.2867
     99  CB        46.2100   18.1860  149.6510 C.3   148  ARG148      0.0307
    100  CG        47.5390   18.7370  150.0570 C.3   148  ARG148      0.0489
    101  CD        48.6330   17.8520  149.5260 C.3   148  ARG148      0.2205
    102  NE        49.9270   18.5130  149.5880 N.pl3 148  ARG148     -0.0865
    103  CZ        51.0830   17.9290  149.3010 C.cat 148  ARG148      0.5346
    104  NH1       51.1210   16.6500  148.9130 N.pl3 148  ARG148      0.1354
    105  NH2       52.2070   18.6290  149.4060 N.pl3 148  ARG148      0.1354
    106  N         49.0280   21.2130  154.9430 N.3   179  HIS179     -0.1241
    107  CA        50.4660   21.1240  154.7690 C.3   179  HIS179      0.1621
    108  C         51.1410   22.4220  155.2000 C.2   179  HIS179      0.2264
    109  O         50.5430   23.5020  155.1750 O.2   179  HIS179     -0.2867
    110  CB        50.8430   20.7730  153.3150 C.3   179  HIS179      0.0745
    111  CG        52.1850   20.1180  153.1960 C.ar  179  HIS179      0.0817
    112  ND1       52.7230   19.3500  154.2080 N.ar  179  HIS179     -0.2268
    113  CD2       53.1030   20.1250  152.2000 C.ar  179  HIS179      0.1154
    114  CE1       53.9140   18.9090  153.8410 C.ar  179  HIS179      0.1986
    115  NE2       54.1650   19.3540  152.6200 N.ar  179  HIS179     -0.2212
    116  N         51.5250   15.8340  157.3320 N.3   204  VAL204     -0.1245
    117  CA        52.7400   15.3330  156.6980 C.3   204  VAL204      0.1561
    118  C         53.9180   16.0570  157.3410 C.2   204  VAL204      0.2260
    119  O         54.3620   17.0920  156.8230 O.2   204  VAL204     -0.2867
    120  CB        52.7170   15.5570  155.1730 C.3   204  VAL204      0.0252
    121  CG1       53.9200   14.8890  154.5120 C.3   204  VAL204      0.0019
    122  CG2       51.3970   15.0780  154.5530 C.3   204  VAL204      0.0019
    123  N         57.0530   16.3920  157.3880 N.3   206  THR206     -0.1218
    124  CA        58.3950   16.3160  156.8130 C.3   206  THR206      0.1862
    125  C         59.3340   17.3490  157.4280 C.2   206  THR206      0.2287
    126  O         60.4570   17.0230  157.8330 O.2   206  THR206     -0.2866
    127  CB        58.3210   16.5170  155.3010 C.3   206  THR206      0.1770
    128  OG1       57.4190   15.5550  154.7450 O.3   206  THR206     -0.2211
    129  CG2       59.6970   16.3730  154.6750 C.3   206  THR206      0.0375
    130  N         56.4930   10.8180  154.3850 N.3   226  ALA226     -0.1231
    131  CA        56.2920   10.7980  152.9350 C.3   226  ALA226      0.1694
    132  C         57.5130   10.3560  152.1410 C.2   226  ALA226      0.2592
    133  O         57.3540    9.7740  151.0610 O.2   226  ALA226     -0.2718
    134  CB        55.8690   12.1840  152.4540 C.3   226  ALA226      0.0304
    135  N         58.7260   10.6700  152.5900 N.am  227  ASN227     -0.1974
    136  CA        59.8700   10.4620  151.7070 C.3   227  ASN227      0.1688
    137  C         61.1030    9.9240  152.4270 C.2   227  ASN227      0.2292
    138  O         62.2130    9.9780  151.8690 O.2   227  ASN227     -0.2864
    139  CB        60.2030   11.7630  150.9480 C.3   227  ASN227      0.1181
    140  CG        60.1620   12.9830  151.8320 C.2   227  ASN227      0.2629
    141  OD1       60.7400   12.9930  152.9240 O.2   227  ASN227     -0.2716
    142  ND2       59.4600   14.0230  151.3770 N.am  227  ASN227     -0.0877
@<TRIPOS>BOND
     1    54    55    1
     2    57    56    2
     3    55    56    1
     4    55    58    1
     5    56    63   am
     6    29    30    1
     7    31    30    1
     8    31    32    2
     9    68    67    1
    10    58    59    1
    11    30    33    1
    12    63    64    1
    13    64    67    1
    14    64    65    1
    15    67    69    1
    16    59    60    1
    17    35    34   ar
    18    33    34    1
    19    60    61    1
    20    65    70   am
    21    65    66    2
    22    34    36   ar
    23    61    62    1
    24    70    71    1
    25    40    39    2
    26    48    47    2
    27    24    23    2
    28    53    51   ar
    29    39    38    1
    30    74    71    1
    31    74    75    1
    32    71    72    1
    33    18    17    2
    34    23    22    1
    35    50    51    1
    36    50    49    1
    37    21    22    1
    38    22    25    1
    39    51    52   ar
    40    47    46    1
    41    45    46    1
    42    17    16    1
    43    43    42   ar
    44    28    26    1
    45    73    72    2
    46    72    78   am
    47    75    77   am
    48    75    76    2
    49    38    37    1
    50    38    41    1
    51    42    44   ar
    52    42    41    1
    53    46    49    1
    54    25    26    1
    55    26    27    1
    56    15    16    1
    57    16    19    1
    58    78    79    1
    59    86    87    2
    60    86    85    1
    61    20    19    1
    62    79    80    1
    63    79    82    1
    64    84    80   am
    65    84    85    1
    66    80    81    2
    67    85    88    1
    68    83    82    1
    69   104   103    1
    70    88    89    1
    71    98    97    2
    72     4     3    2
    73     3     2    1
    74   103   105    1
    75   103   102    2
    76   101   102    1
    77   101   100    1
    78    99   100    1
    79    99    96    1
    80    91    89   ar
    81    91    93   ar
    82    95    96    1
    83    12    14   ar
    84    12    10   ar
    85    14    13   ar
    86     9    10   ar
    87     9     7   ar
    88    89    90   ar
    89    10     8   ar
    90    97    96    1
    91     7     6   ar
    92    13    11   ar
    93     2     1    1
    94     2     5    1
    95     8    11   ar
    96     8     6   ar
    97    93    94   ar
    98     6     5    1
    99   139   136    1
   100   139   140    1
   101   133   132    2
   102    90    92   ar
   103   142   140   am
   104   136   137    1
   105   136   135    1
   106   140   141    2
   107   138   137    2
   108    94    92   ar
   109   132   135   am
   110   132   131    1
   111   113   115   ar
   112   113   111   ar
   113   134   131    1
   114   115   114   ar
   115   131   130    1
   116   111   110    1
   117   111   112   ar
   118   110   107    1
   119   114   112   ar
   120   121   120    1
   121   122   120    1
   122   129   127    1
   123   128   127    1
   124   107   106    1
   125   107   108    1
   126   120   117    1
   127   109   108    2
   128   127   124    1
   129   117   116    1
   130   117   118    1
   131   124   123    1
   132   124   125    1
   133   119   118    2
   134   125   126    2
