@<TRIPOS>MOLECULE
tmp/5unfA00.pdb
 269 263 0 0 0
SMALL
GASTEIGER

@<TRIPOS>ATOM
      1  N         77.9110   -8.8260   51.7380 N.3   105  ILE105     -0.1245
      2  CA        77.8800   -8.5720   50.2880 C.3   105  ILE105      0.1561
      3  C         77.7950   -9.9270   49.4960 C.2   105  ILE105      0.2260
      4  O         76.8090  -10.0820   48.7800 O.2   105  ILE105     -0.2867
      5  CB        79.1040   -7.7180   49.8320 C.3   105  ILE105      0.0252
      6  CG1       79.0290   -6.2670   50.3910 C.3   105  ILE105      0.0019
      7  CG2       79.2810   -7.7110   48.3030 C.3   105  ILE105      0.0019
      8  CD1       77.8020   -5.4100   49.9290 C.3   105  ILE105      0.0001
      9  N         74.2320  -10.8910   47.4780 N.3   109  TYR109     -0.1241
     10  CA        74.3240  -11.1110   46.0290 C.3   109  TYR109      0.1605
     11  C         73.7150  -12.4760   45.6320 C.2   109  TYR109      0.2264
     12  O         73.0750  -12.5520   44.5840 O.2   109  TYR109     -0.2867
     13  CB        75.7870  -11.0170   45.5610 C.3   109  TYR109      0.0534
     14  CG        76.2600   -9.6080   45.2500 C.ar  109  TYR109     -0.0201
     15  CD1       76.1650   -8.5930   46.2010 C.ar  109  TYR109     -0.0009
     16  CD2       76.9520   -9.3290   44.0760 C.ar  109  TYR109     -0.0009
     17  CE1       76.6140   -7.3020   45.9290 C.ar  109  TYR109      0.0417
     18  CE2       77.4350   -8.0500   43.8060 C.ar  109  TYR109      0.0417
     19  CZ        77.2710   -7.0410   44.7410 C.ar  109  TYR109      0.1957
     20  OH        77.7410   -5.7760   44.4890 O.3   109  TYR109     -0.2866
     21  N         71.2860  -11.3220   33.1980 N.3   151  LEU151     -0.1245
     22  CA        71.9770  -10.3060   34.0060 C.3   151  LEU151      0.1561
     23  C         72.2090  -10.8300   35.4290 C.2   151  LEU151      0.2260
     24  O         73.3170  -10.7120   35.9590 O.2   151  LEU151     -0.2867
     25  CB        71.1660   -8.9920   34.0370 C.3   151  LEU151      0.0270
     26  CG        71.7510   -7.8130   34.8360 C.3   151  LEU151      0.0019
     27  CD1       73.0240   -7.2920   34.2030 C.3   151  LEU151      0.0001
     28  CD2       70.7560   -6.6740   34.9200 C.3   151  LEU151      0.0001
     29  N         80.4520  -12.2090   40.5730 N.3   158  TRP158     -0.1241
     30  CA        80.8500  -10.9970   41.2970 C.3   158  TRP158      0.1605
     31  C         80.9360  -11.2770   42.7930 C.2   158  TRP158      0.2264
     32  O         81.7910  -10.6980   43.4580 O.2   158  TRP158     -0.2867
     33  CB        79.8980   -9.8150   41.0290 C.3   158  TRP158      0.0550
     34  CG        79.5160   -9.6270   39.5810 C.ar  158  TRP158      0.0003
     35  CD1       78.2490   -9.6020   39.0780 C.ar  158  TRP158      0.0946
     36  CD2       80.3940   -9.6930   38.4410 C.ar  158  TRP158      0.0152
     37  NE1       78.2850   -9.5040   37.7060 N.ar  158  TRP158     -0.2442
     38  CE2       79.5870   -9.5960   37.2850 C.ar  158  TRP158      0.0810
     39  CE3       81.7890   -9.7970   38.2840 C.ar  158  TRP158      0.0012
     40  CZ2       80.1260   -9.5900   35.9900 C.ar  158  TRP158      0.0191
     41  CZ3       82.3200   -9.7990   37.0030 C.ar  158  TRP158      0.0001
     42  CH2       81.4950   -9.6830   35.8740 C.ar  158  TRP158      0.0015
     43  N         84.3130  -13.1880   43.0430 N.3   161  TYR161     -0.1227
     44  CA        85.3640  -12.1920   42.7920 C.3   161  TYR161      0.1736
     45  C         85.5280  -11.2760   44.0270 C.2   161  TYR161      0.2595
     46  O         86.6600  -11.0050   44.4250 O.2   161  TYR161     -0.2718
     47  CB        85.0190  -11.3860   41.5230 C.3   161  TYR161      0.0548
     48  CG        85.9710  -10.2640   41.1490 C.ar  161  TYR161     -0.0200
     49  CD1       87.2820  -10.5350   40.7650 C.ar  161  TYR161     -0.0009
     50  CD2       85.5050   -8.9660   40.9680 C.ar  161  TYR161     -0.0009
     51  CE1       88.1420   -9.5160   40.3460 C.ar  161  TYR161      0.0417
     52  CE2       86.3480   -7.9440   40.5300 C.ar  161  TYR161      0.0417
     53  CZ        87.6660   -8.2210   40.2250 C.ar  161  TYR161      0.1957
     54  OH        88.4920   -7.2090   39.7960 O.3   161  TYR161     -0.2866
     55  N         84.4080  -10.8750   44.6730 N.am  162  TYR162     -0.1976
     56  CA        84.4360  -10.0550   45.8910 C.3   162  TYR162      0.1639
     57  C         84.9960  -10.8690   47.0750 C.2   162  TYR162      0.2290
     58  O         85.7470  -10.3140   47.8820 O.2   162  TYR162     -0.2864
     59  CB        83.0320   -9.5180   46.2240 C.3   162  TYR162      0.0560
     60  CG        82.9830   -8.5850   47.4180 C.ar  162  TYR162     -0.0198
     61  CD1       83.1180   -7.2110   47.2590 C.ar  162  TYR162     -0.0009
     62  CD2       82.7440   -9.0720   48.7000 C.ar  162  TYR162     -0.0009
     63  CE1       83.0490   -6.3440   48.3510 C.ar  162  TYR162      0.0417
     64  CE2       82.6880   -8.2170   49.8010 C.ar  162  TYR162      0.0417
     65  CZ        82.8280   -6.8520   49.6210 C.ar  162  TYR162      0.1957
     66  OH        82.7600   -6.0060   50.7040 O.3   162  TYR162     -0.2866
     67  N         88.8730   -9.3150   45.3170 N.3   166  TYR166     -0.1241
     68  CA        89.0390   -8.8490   43.9360 C.3   166  TYR166      0.1605
     69  C         90.2510   -9.5380   43.2620 C.2   166  TYR166      0.2264
     70  O         91.0690   -8.8770   42.6110 O.2   166  TYR166     -0.2867
     71  CB        89.1740   -7.3180   43.8720 C.3   166  TYR166      0.0534
     72  CG        87.9580   -6.6150   44.4200 C.ar  166  TYR166     -0.0201
     73  CD1       86.8020   -6.4900   43.6620 C.ar  166  TYR166     -0.0009
     74  CD2       87.9620   -6.0710   45.7010 C.ar  166  TYR166     -0.0009
     75  CE1       85.6720   -5.8650   44.1700 C.ar  166  TYR166      0.0417
     76  CE2       86.8430   -5.4250   46.2120 C.ar  166  TYR166      0.0417
     77  CZ        85.7000   -5.3240   45.4420 C.ar  166  TYR166      0.1957
     78  OH        84.5990   -4.6870   45.9350 O.3   166  TYR166     -0.2866
     79  N         90.6870  -12.0380   40.3720 N.3   168  TRP168     -0.1241
     80  CA        90.0510  -12.6780   39.2300 C.3   168  TRP168      0.1605
     81  C         90.7840  -13.9890   38.9160 C.2   168  TRP168      0.2264
     82  O         91.9460  -13.9710   38.4940 O.2   168  TRP168     -0.2867
     83  CB        90.0340  -11.7250   38.0250 C.3   168  TRP168      0.0550
     84  CG        89.2250  -12.2280   36.8680 C.ar  168  TRP168      0.0003
     85  CD1       89.6720  -12.9630   35.8110 C.ar  168  TRP168      0.0946
     86  CD2       87.8100  -12.0870   36.6900 C.ar  168  TRP168      0.0152
     87  NE1       88.6290  -13.2560   34.9640 N.ar  168  TRP168     -0.2442
     88  CE2       87.4730  -12.7340   35.4810 C.ar  168  TRP168      0.0810
     89  CE3       86.7900  -11.4730   37.4360 C.ar  168  TRP168      0.0012
     90  CZ2       86.1580  -12.7820   34.9970 C.ar  168  TRP168      0.0191
     91  CZ3       85.4900  -11.5140   36.9540 C.ar  168  TRP168      0.0001
     92  CH2       85.1830  -12.1620   35.7480 C.ar  168  TRP168      0.0015
     93  N         82.4600   -9.5000   31.3590 N.3   179  GLY179     -0.1225
     94  CA        82.4040   -8.0580   31.5640 C.3   179  GLY179      0.1811
     95  C         81.4540   -7.4150   30.5680 C.2   179  GLY179      0.2280
     96  O         80.6210   -6.5930   30.9550 O.2   179  GLY179     -0.2866
     97  N         77.7010   -8.8100   30.9550 N.3   182  LEU182     -0.1231
     98  CA        77.0640   -8.0560   32.0340 C.3   182  LEU182      0.1693
     99  C         76.4480   -6.7580   31.5080 C.2   182  LEU182      0.2592
    100  O         75.2710   -6.5030   31.7430 O.2   182  LEU182     -0.2718
    101  CB        78.1060   -7.7420   33.1300 C.3   182  LEU182      0.0284
    102  CG        77.7310   -6.7060   34.1960 C.3   182  LEU182      0.0019
    103  CD1       76.6460   -7.2230   35.1250 C.3   182  LEU182      0.0001
    104  CD2       78.9420   -6.3060   34.9840 C.3   182  LEU182      0.0001
    105  N         77.2610   -5.9370   30.8220 N.am  183  THR183     -0.1953
    106  CA        76.8790   -4.6340   30.2810 C.3   183  THR183      0.1897
    107  C         75.8200   -4.8210   29.1570 C.2   183  THR183      0.2313
    108  O         74.8680   -4.0400   29.0990 O.2   183  THR183     -0.2863
    109  CB        78.1500   -3.9240   29.7810 C.3   183  THR183      0.1794
    110  OG1       79.0980   -3.8860   30.8480 O.3   183  THR183     -0.2208
    111  CG2       77.8930   -2.5140   29.2910 C.3   183  THR183      0.0378
    112  N         72.5730   -5.7310   30.7750 N.3   186  MET186     -0.1230
    113  CA        72.1680   -4.6000   31.6200 C.3   186  MET186      0.1702
    114  C         71.4460   -3.5640   30.7730 C.2   186  MET186      0.2592
    115  O         70.3560   -3.1280   31.1420 O.2   186  MET186     -0.2718
    116  CB        73.3580   -3.9560   32.3490 C.3   186  MET186      0.0401
    117  CG        72.9380   -2.7860   33.2220 C.3   186  MET186      0.0596
    118  SD        74.2780   -1.7290   33.8040 S.3   186  MET186     -0.1393
    119  CE        74.8360   -1.0230   32.2720 C.3   186  MET186      0.0692
    120  N         72.0550   -3.1770   29.6300 N.am  187  PHE187     -0.1976
    121  CA        71.4570   -2.2170   28.7130 C.3   187  PHE187      0.1639
    122  C         70.2530   -2.8280   28.0070 C.2   187  PHE187      0.2290
    123  O         69.2720   -2.1170   27.8130 O.2   187  PHE187     -0.2864
    124  CB        72.4600   -1.6860   27.6840 C.3   187  PHE187      0.0560
    125  CG        73.3870   -0.6340   28.2400 C.ar  187  PHE187     -0.0200
    126  CD1       72.9210    0.6430   28.5260 C.ar  187  PHE187     -0.0042
    127  CD2       74.7440   -0.8820   28.3730 C.ar  187  PHE187     -0.0042
    128  CE1       73.7790    1.6230   29.0270 C.ar  187  PHE187     -0.0003
    129  CE2       75.6070    0.1060   28.8530 C.ar  187  PHE187     -0.0003
    130  CZ        75.1180    1.3490   29.1860 C.ar  187  PHE187     -0.0000
    131  N         76.6940   -0.8210   22.9650 N.3   226  SER226     -0.1217
    132  CA        76.9180   -0.1750   24.2640 C.3   226  SER226      0.1889
    133  C         77.9340   -0.9540   25.1220 C.2   226  SER226      0.2288
    134  O         78.5900   -0.3550   25.9820 O.2   226  SER226     -0.2866
    135  CB        75.6030   -0.0470   25.0300 C.3   226  SER226      0.2089
    136  OG        74.6500    0.7330   24.3290 O.3   226  SER226     -0.2183
    137  N         82.8650   -0.7680   24.2970 N.3   229  PRO229     -0.2102
    138  CA        83.9850   -0.1230   25.0200 C.3   229  PRO229      0.1504
    139  C         84.3820   -0.9030   26.2810 C.2   229  PRO229      0.2576
    140  O         85.4730   -0.7030   26.8100 O.2   229  PRO229     -0.2718
    141  CB        83.4290    1.2570   25.3770 C.3   229  PRO229      0.0282
    142  CG        82.3750    1.5130   24.3530 C.3   229  PRO229      0.0208
    143  CD        81.7310    0.1720   24.1520 C.3   229  PRO229      0.0893
    144  N         83.5110   -1.8270   26.7230 N.am  230  THR230     -0.1953
    145  CA        83.7560   -2.7270   27.8460 C.3   230  THR230      0.1897
    146  C         84.7570   -3.8080   27.4030 C.2   230  THR230      0.2313
    147  O         85.7460   -4.0450   28.0930 O.2   230  THR230     -0.2863
    148  CB        82.4260   -3.3280   28.3310 C.3   230  THR230      0.1794
    149  OG1       81.4490   -2.2950   28.4940 O.3   230  THR230     -0.2208
    150  CG2       82.5790   -4.1550   29.5950 C.3   230  THR230      0.0378
    151  N         88.1740   -3.5780   29.4490 N.3   234  ARG234     -0.1245
    152  CA        88.2280   -4.5450   30.5620 C.3   234  ARG234      0.1563
    153  C         89.3240   -5.5830   30.2960 C.2   234  ARG234      0.2260
    154  O         89.4060   -6.1160   29.1930 O.2   234  ARG234     -0.2867
    155  CB        86.8690   -5.2370   30.8080 C.3   234  ARG234      0.0307
    156  CG        85.8460   -4.3840   31.5680 C.3   234  ARG234      0.0489
    157  CD        86.2280   -4.2360   33.0320 C.3   234  ARG234      0.2205
    158  NE        85.3280   -3.3560   33.7730 N.pl3 234  ARG234     -0.0865
    159  CZ        85.4580   -3.0810   35.0680 C.cat 234  ARG234      0.5346
    160  NH1       86.4390   -3.6280   35.7740 N.pl3 234  ARG234      0.1354
    161  NH2       84.6050   -2.2640   35.6680 N.pl3 234  ARG234      0.1354
    162  N         90.2910   -7.7060   37.5880 N.3   247  CYS247     -0.1235
    163  CA        89.6150   -7.5040   36.3060 C.3   247  CYS247      0.1677
    164  C         89.1800   -6.0460   36.2360 C.2   247  CYS247      0.2270
    165  O         88.0610   -5.7130   36.6290 O.2   247  CYS247     -0.2867
    166  CB        88.4440   -8.4790   36.1680 C.3   247  CYS247      0.0956
    167  SG        87.4290   -8.2530   34.6800 S.3   247  CYS247     -0.0801
    168  N         89.2930   -1.8770   34.3550 N.3   249  MET249     -0.1245
    169  CA        89.0370   -1.1360   33.1300 C.3   249  MET249      0.1570
    170  C         90.3840   -0.5310   32.6820 C.2   249  MET249      0.2261
    171  O         90.6860    0.6190   33.0060 O.2   249  MET249     -0.2867
    172  CB        87.9410   -0.0860   33.4140 C.3   249  MET249      0.0387
    173  CG        87.2520    0.4680   32.1890 C.3   249  MET249      0.0595
    174  SD        86.0790   -0.6500   31.3970 S.3   249  MET249     -0.1393
    175  CE        85.4130    0.4320   30.1530 C.3   249  MET249      0.0692
    176  N         84.2030    7.6470   30.7890 N.3   263  ILE263     -0.1245
    177  CA        83.3640    6.4410   30.7470 C.3   263  ILE263      0.1561
    178  C         82.3420    6.4860   31.9260 C.2   263  ILE263      0.2260
    179  O         81.2490    5.9400   31.7790 O.2   263  ILE263     -0.2867
    180  CB        84.2360    5.1460   30.7630 C.3   263  ILE263      0.0252
    181  CG1       85.1690    5.0960   29.5230 C.3   263  ILE263      0.0019
    182  CG2       83.4020    3.8570   30.8560 C.3   263  ILE263      0.0019
    183  CD1       84.4710    5.1000   28.0820 C.3   263  ILE263      0.0001
    184  N         79.4870    8.3880   30.5670 N.3   266  MET266     -0.1230
    185  CA        78.7910    7.5090   29.6140 C.3   266  MET266      0.1702
    186  C         77.7430    6.6660   30.3480 C.2   266  MET266      0.2592
    187  O         76.6250    6.5170   29.8590 O.2   266  MET266     -0.2718
    188  CB        79.8020    6.6040   28.8720 C.3   266  MET266      0.0401
    189  CG        79.1650    5.5940   27.9140 C.3   266  MET266      0.0596
    190  SD        80.3900    4.5040   27.1380 S.3   266  MET266     -0.1393
    191  CE        79.3140    3.4040   26.2430 C.3   266  MET266      0.0692
    192  N         78.1030    6.1570   31.5390 N.am  267  LYS267     -0.1980
    193  CA        77.2310    5.3430   32.3920 C.3   267  LYS267      0.1596
    194  C         75.9790    6.1170   32.8040 C.2   267  LYS267      0.2287
    195  O         74.8750    5.5830   32.7180 O.2   267  LYS267     -0.2864
    196  CB        77.9910    4.8780   33.6540 C.3   267  LYS267      0.0298
    197  CG        79.2340    4.0450   33.3690 C.3   267  LYS267      0.0038
    198  CD        79.9550    3.6720   34.6440 C.3   267  LYS267      0.0206
    199  CE        81.1770    2.8450   34.3570 C.3   267  LYS267      0.1093
    200  NZ        81.8480    2.4180   35.6080 N.3   267  LYS267     -0.1314
    201  N         68.2600    2.4630   40.5050 N.3   321  TRP321     -0.1241
    202  CA        69.4610    2.8830   39.7800 C.3   321  TRP321      0.1605
    203  C         70.0260    4.2690   40.2060 C.2   321  TRP321      0.2264
    204  O         71.2110    4.4940   39.9620 O.2   321  TRP321     -0.2867
    205  CB        69.1970    2.9350   38.2700 C.3   321  TRP321      0.0550
    206  CG        69.1080    1.5780   37.6380 C.ar  321  TRP321      0.0003
    207  CD1       67.9740    0.9050   37.2890 C.ar  321  TRP321      0.0946
    208  CD2       70.2000    0.6850   37.3820 C.ar  321  TRP321      0.0152
    209  NE1       68.2970   -0.3280   36.7670 N.ar  321  TRP321     -0.2442
    210  CE2       69.6560   -0.4950   36.8260 C.ar  321  TRP321      0.0810
    211  CE3       71.5930    0.7740   37.5570 C.ar  321  TRP321      0.0012
    212  CZ2       70.4550   -1.5750   36.4360 C.ar  321  TRP321      0.0191
    213  CZ3       72.3800   -0.2980   37.1770 C.ar  321  TRP321      0.0001
    214  CH2       71.8130   -1.4530   36.6160 C.ar  321  TRP321      0.0015
    215  N         73.4160    4.2260   42.4610 N.3   324  PHE324     -0.1227
    216  CA        74.6030    3.8630   41.6850 C.3   324  PHE324      0.1736
    217  C         75.1310    5.0460   40.8470 C.2   324  PHE324      0.2595
    218  O         76.3410    5.2840   40.8400 O.2   324  PHE324     -0.2718
    219  CB        74.3160    2.6660   40.7480 C.3   324  PHE324      0.0547
    220  CG        75.4870    2.3250   39.8540 C.ar  324  PHE324     -0.0202
    221  CD1       76.5180    1.5190   40.3100 C.ar  324  PHE324     -0.0042
    222  CD2       75.5790    2.8460   38.5680 C.ar  324  PHE324     -0.0042
    223  CE1       77.6220    1.2420   39.4980 C.ar  324  PHE324     -0.0003
    224  CE2       76.6850    2.5740   37.7610 C.ar  324  PHE324     -0.0003
    225  CZ        77.6990    1.7750   38.2300 C.ar  324  PHE324     -0.0000
    226  N         74.2430    5.7430   40.1150 N.am  325  HIS325     -0.1975
    227  CA        74.6460    6.8240   39.2190 C.3   325  HIS325      0.1656
    228  C         75.0280    8.0860   40.0070 C.2   325  HIS325      0.2291
    229  O         75.8180    8.8770   39.4920 O.2   325  HIS325     -0.2864
    230  CB        73.5440    7.1320   38.2070 C.3   325  HIS325      0.0771
    231  CG        73.3500    5.9990   37.2490 C.ar  325  HIS325      0.0820
    232  ND1       74.1380    5.8690   36.1220 N.ar  325  HIS325     -0.2267
    233  CD2       72.5320    4.9240   37.3340 C.ar  325  HIS325      0.1154
    234  CE1       73.7470    4.7480   35.5380 C.ar  325  HIS325      0.1986
    235  NE2       72.7850    4.1440   36.2320 N.ar  325  HIS325     -0.2212
    236  N         79.4380    1.6050   47.0300 N.3   352  LEU352     -0.1231
    237  CA        79.3270    1.1370   45.6470 C.3   352  LEU352      0.1678
    238  C         78.8660   -0.3550   45.5660 C.2   352  LEU352      0.2434
    239  O         77.9560   -0.6140   44.7790 O.2   352  LEU352     -0.2733
    240  CB        80.6600    1.3050   44.9010 C.3   352  LEU352      0.0284
    241  CG        80.7000    0.9540   43.4210 C.3   352  LEU352      0.0019
    242  CD1       79.9430    1.9860   42.5940 C.3   352  LEU352      0.0001
    243  CD2       82.1430    0.8450   42.9350 C.3   352  LEU352      0.0001
    244  N         79.4080   -1.3460   46.3400 N.am  353  PRO353     -0.2729
    245  CA        78.9090   -2.7340   46.1950 C.3   353  PRO353      0.1401
    246  C         77.4160   -2.8680   46.5080 C.2   353  PRO353      0.2269
    247  O         76.7460   -3.7100   45.9120 O.2   353  PRO353     -0.2865
    248  CB        79.7360   -3.5190   47.2130 C.3   353  PRO353      0.0296
    249  CG        80.9450   -2.6960   47.4410 C.3   353  PRO353      0.0237
    250  CD        80.4910   -1.2800   47.3420 C.3   353  PRO353      0.0939
    251  N         75.3230   -1.2380   43.5270 N.3   356  ILE356     -0.1245
    252  CA        75.3920   -2.1780   42.3980 C.3   356  ILE356      0.1561
    253  C         74.3150   -3.2700   42.5900 C.2   356  ILE356      0.2260
    254  O         73.6900   -3.6830   41.6110 O.2   356  ILE356     -0.2867
    255  CB        76.8270   -2.7840   42.2570 C.3   356  ILE356      0.0252
    256  CG1       77.8320   -1.6920   41.7910 C.3   356  ILE356      0.0019
    257  CG2       76.8420   -3.9770   41.2800 C.3   356  ILE356      0.0019
    258  CD1       79.3060   -2.0960   41.7370 C.3   356  ILE356      0.0001
    259  N         70.7390   -4.7380   40.1820 N.3   360  PHE360     -0.1241
    260  CA        70.2980   -6.1160   39.9300 C.3   360  PHE360      0.1605
    261  C         68.9190   -6.3730   40.5300 C.2   360  PHE360      0.2264
    262  O         68.1860   -7.2170   40.0200 O.2   360  PHE360     -0.2867
    263  CB        71.2950   -7.1510   40.4940 C.3   360  PHE360      0.0534
    264  CG        72.6340   -7.2480   39.8040 C.ar  360  PHE360     -0.0203
    265  CD1       72.7830   -8.0040   38.6450 C.ar  360  PHE360     -0.0042
    266  CD2       73.7700   -6.6880   40.3750 C.ar  360  PHE360     -0.0042
    267  CE1       74.0290   -8.1280   38.0260 C.ar  360  PHE360     -0.0003
    268  CE2       75.0200   -6.8290   39.7660 C.ar  360  PHE360     -0.0003
    269  CZ        75.1390   -7.5410   38.5900 C.ar  360  PHE360     -0.0000
@<TRIPOS>BOND
     1   131   132    1
     2   143   137    1
     3   143   142    1
     4   132   135    1
     5   132   133    1
     6   137   138    1
     7   136   135    1
     8   142   141    1
     9   138   141    1
    10   138   139    1
    11   133   134    2
    12   191   190    1
    13   139   144   am
    14   139   140    2
    15   144   145    1
    16   190   189    1
    17   146   145    1
    18   146   147    2
    19   124   125    1
    20   124   121    1
    21   123   122    2
    22   145   148    1
    23   189   188    1
    24   122   121    1
    25   183   181    1
    26   125   127   ar
    27   125   126   ar
    28   148   149    1
    29   148   150    1
    30   127   129   ar
    31   126   128   ar
    32   121   120    1
    33   129   130   ar
    34   188   185    1
    35   128   130   ar
    36   108   107    2
    37   107   106    1
    38   154   153    2
    39   111   109    1
    40   151   152    1
    41   181   180    1
    42   185   186    1
    43   185   184    1
    44   120   114   am
    45   109   106    1
    46   109   110    1
    47   187   186    2
    48   175   174    1
    49   106   105    1
    50   153   152    1
    51   186   192   am
    52   152   155    1
    53    95    96    2
    54    95    94    1
    55   177   180    1
    56   177   176    1
    57   177   178    1
    58   180   182    1
    59   114   115    2
    60   114   113    1
    61   112   113    1
    62   155   156    1
    63   105    99   am
    64    97    98    1
    65    93    94    1
    66   174   173    1
    67    99   100    2
    68    99    98    1
    69   192   193    1
    70   156   157    1
    71   113   116    1
    72   179   178    2
    73    98   101    1
    74   173   172    1
    75   119   118    1
    76   116   117    1
    77   193   194    1
    78   193   196    1
    79   170   171    2
    80   170   169    1
    81   195   194    2
    82   157   158    1
    83   101   102    1
    84   169   172    1
    85   169   168    1
    86    21    22    1
    87   117   118    1
    88   197   196    1
    89   197   198    1
    90   158   159    2
    91    22    25    1
    92    22    23    1
    93    25    26    1
    94   102   104    1
    95   102   103    1
    96    27    26    1
    97   199   198    1
    98   199   200    1
    99   167   166    1
   100    26    28    1
   101    87    88   ar
   102    87    85   ar
   103    90    88   ar
   104    90    92   ar
   105   159   161    1
   106   159   160    1
   107    23    24    2
   108    88    86   ar
   109   234   232   ar
   110   234   235   ar
   111    92    91   ar
   112    85    84   ar
   113    42    40   ar
   114    42    41   ar
   115    40    38   ar
   116   232   231   ar
   117   166   163    1
   118   235   233   ar
   119   164   163    1
   120   164   165    2
   121   163   162    1
   122   212   214   ar
   123   212   210   ar
   124   214   213   ar
   125    86    84   ar
   126    86    89   ar
   127   209   210   ar
   128   209   207   ar
   129   210   208   ar
   130    84    83    1
   131    91    89   ar
   132    41    39   ar
   133   213   211   ar
   134   231   233   ar
   135   231   230    1
   136    38    37   ar
   137    38    36   ar
   138   207   206   ar
   139   208   211   ar
   140   208   206   ar
   141   206   205    1
   142    37    35   ar
   143   224   225   ar
   144   224   222   ar
   145    83    80    1
   146   267   269   ar
   147   267   265   ar
   148   230   227    1
   149   225   223   ar
   150   205   202    1
   151    39    36   ar
   152    36    34   ar
   153    82    81    2
   154   222   220   ar
   155   269   268   ar
   156   265   264   ar
   157    81    80    1
   158    35    34   ar
   159   227   228    1
   160   227   226    1
   161    80    79    1
   162   229   228    2
   163   223   221   ar
   164    34    33    1
   165   268   266   ar
   166   202   203    1
   167   202   201    1
   168    54    53    1
   169   264   266   ar
   170   264   263    1
   171   220   221   ar
   172   220   219    1
   173   260   259    1
   174   260   263    1
   175   260   261    1
   176   204   203    2
   177   262   261    2
   178   226   217   am
   179    53    51   ar
   180    53    52   ar
   181    51    49   ar
   182    52    50   ar
   183    29    30    1
   184   219   216    1
   185    49    48   ar
   186   218   217    2
   187   217   216    1
   188    50    48   ar
   189    33    30    1
   190    48    47    1
   191   257   255    1
   192    30    31    1
   193    47    44    1
   194   254   253    2
   195   216   215    1
   196   258   256    1
   197   256   255    1
   198   255   252    1
   199   252   253    1
   200   252   251    1
   201   242   241    1
   202    70    69    2
   203    44    43    1
   204    44    45    1
   205    31    32    2
   206   243   241    1
   207    69    68    1
   208   241   240    1
   209    73    75   ar
   210    73    72   ar
   211    18    16   ar
   212    18    19   ar
   213    71    68    1
   214    71    72    1
   215    68    67    1
   216    45    46    2
   217    45    55   am
   218    16    14   ar
   219    75    77   ar
   220    72    74   ar
   221    20    19    1
   222    12    11    2
   223    55    56    1
   224    19    17   ar
   225   239   238    2
   226   240   237    1
   227    14    13    1
   228    14    15   ar
   229    77    78    1
   230    77    76   ar
   231    13    10    1
   232   238   237    1
   233   238   244   am
   234    11    10    1
   235   237   236    1
   236    74    76   ar
   237    56    59    1
   238    56    57    1
   239   247   246    2
   240    17    15   ar
   241    10     9    1
   242   245   244    1
   243   245   246    1
   244   245   248    1
   245    59    60    1
   246   244   250    1
   247    57    58    2
   248   248   249    1
   249    61    60   ar
   250    61    63   ar
   251   250   249    1
   252    60    62   ar
   253     7     5    1
   254    63    65   ar
   255    62    64   ar
   256     4     3    2
   257     3     2    1
   258    65    64   ar
   259    65    66    1
   260     5     2    1
   261     5     6    1
   262     8     6    1
   263     2     1    1
