@<TRIPOS>MOLECULE
tmp/5ungA02.pdb
 76 68 0 0 0
SMALL
GASTEIGER

@<TRIPOS>ATOM
      1  N          9.3810  -18.6970  -33.2330 N.3   332  LYS332     -0.1245
      2  CA         8.4860  -17.5580  -33.4660 C.3   332  LYS332      0.1561
      3  C          8.1060  -16.9010  -32.1370 C.2   332  LYS332      0.2260
      4  O          7.9990  -15.6750  -32.0720 O.2   332  LYS332     -0.2867
      5  CB         7.2310  -17.9880  -34.2420 C.3   332  LYS332      0.0271
      6  CG         7.4640  -18.1320  -35.7410 C.3   332  LYS332      0.0035
      7  CD         6.2220  -18.6460  -36.4590 C.3   332  LYS332      0.0206
      8  CE         6.4500  -18.8620  -37.9370 C.3   332  LYS332      0.1093
      9  NZ         7.2590  -20.0810  -38.2100 N.3   332  LYS332     -0.1314
     10  N         11.2960  -15.1260  -30.7760 N.3   335  ALA335     -0.1231
     11  CA        11.5680  -13.9000  -31.5350 C.3   335  ALA335      0.1694
     12  C         10.5660  -12.7990  -31.1920 C.2   335  ALA335      0.2591
     13  O         10.8850  -11.6210  -31.3390 O.2   335  ALA335     -0.2718
     14  CB        11.5350  -14.1860  -33.0290 C.3   335  ALA335      0.0304
     15  N          9.3550  -13.1840  -30.7490 N.am  336  ALA336     -0.1980
     16  CA         8.2790  -12.2620  -30.3850 C.3   336  ALA336      0.1597
     17  C          8.6240  -11.3880  -29.1780 C.2   336  ALA336      0.2287
     18  O          8.2580  -10.2140  -29.1710 O.2   336  ALA336     -0.2864
     19  CB         6.9940  -13.0300  -30.1300 C.3   336  ALA336      0.0319
     20  N         11.4180   -8.7980  -30.3270 N.3   339  LEU339     -0.1231
     21  CA        10.7940   -7.8440  -31.2460 C.3   339  LEU339      0.1693
     22  C          9.8890   -6.8540  -30.5070 C.2   339  LEU339      0.2591
     23  O          9.9510   -5.6580  -30.7910 O.2   339  LEU339     -0.2718
     24  CB        10.0140   -8.5750  -32.3520 C.3   339  LEU339      0.0284
     25  CG        10.6190   -8.5290  -33.7590 C.3   339  LEU339      0.0019
     26  CD1       11.7690   -9.5200  -33.9100 C.3   339  LEU339      0.0001
     27  CD2        9.5660   -8.8310  -34.8030 C.3   339  LEU339      0.0001
     28  N          9.0730   -7.3460  -29.5450 N.am  340  ALA340     -0.1980
     29  CA         8.1700   -6.5130  -28.7420 C.3   340  ALA340      0.1597
     30  C          8.9390   -5.5440  -27.8420 C.2   340  ALA340      0.2287
     31  O          8.4860   -4.4170  -27.6510 O.2   340  ALA340     -0.2864
     32  CB         7.2390   -7.3780  -27.9110 C.3   340  ALA340      0.0319
     33  N         10.2450   -2.6000  -30.4530 N.3   343  ILE343     -0.1231
     34  CA         9.1340   -1.7350  -30.8880 C.3   343  ILE343      0.1692
     35  C          8.6440   -0.7940  -29.7650 C.2   343  ILE343      0.2592
     36  O          8.4230    0.3920  -30.0150 O.2   343  ILE343     -0.2718
     37  CB         7.9710   -2.5780  -31.5130 C.3   343  ILE343      0.0266
     38  CG1        8.4450   -3.3490  -32.7710 C.3   343  ILE343      0.0019
     39  CG2        6.7350   -1.7130  -31.8400 C.3   343  ILE343      0.0020
     40  CD1        7.6600   -4.6470  -33.0830 C.3   343  ILE343      0.0001
     41  N          8.5110   -1.3230  -28.5370 N.am  344  CYS344     -0.1970
     42  CA         8.0100   -0.5980  -27.3720 C.3   344  CYS344      0.1712
     43  C          9.0190    0.3420  -26.7100 C.2   344  CYS344      0.2296
     44  O          8.6040    1.3960  -26.2260 O.2   344  CYS344     -0.2864
     45  CB         7.4250   -1.5710  -26.3550 C.3   344  CYS344      0.0983
     46  SG         5.9240   -2.4180  -26.9150 S.3   344  CYS344     -0.0798
     47  N          4.4750    4.0280  -25.3350 N.3   382  LEU382     -0.1245
     48  CA         4.9680    2.7810  -25.9220 C.3   382  LEU382      0.1561
     49  C          5.6720    1.9060  -24.8780 C.2   382  LEU382      0.2260
     50  O          5.5480    0.6830  -24.9290 O.2   382  LEU382     -0.2867
     51  CB         5.8930    3.0660  -27.1140 C.3   382  LEU382      0.0270
     52  CG         5.2000    3.2570  -28.4550 C.3   382  LEU382      0.0019
     53  CD1        5.8930    4.3210  -29.2740 C.3   382  LEU382      0.0001
     54  CD2        5.1350    1.9520  -29.2270 C.3   382  LEU382      0.0001
     55  N          3.0000    0.3590  -22.9630 N.3   385  THR385     -0.1218
     56  CA         2.3270   -0.6020  -23.8470 C.3   385  THR385      0.1862
     57  C          2.9910   -1.9870  -23.7400 C.2   385  THR385      0.2287
     58  O          2.2990   -2.9970  -23.8710 O.2   385  THR385     -0.2866
     59  CB         2.2200   -0.0420  -25.2810 C.3   385  THR385      0.1770
     60  OG1        1.5330    1.2100  -25.2270 O.3   385  THR385     -0.2211
     61  CG2        1.4710   -0.9710  -26.2350 C.3   385  THR385      0.0375
     62  N          1.5000   -5.9750  -23.4180 N.3   389  VAL389     -0.1245
     63  CA         1.9340   -7.0590  -24.3100 C.3   389  VAL389      0.1561
     64  C          2.4890   -8.2550  -23.5000 C.2   389  VAL389      0.2260
     65  O          2.2710   -9.4020  -23.8950 O.2   389  VAL389     -0.2867
     66  CB         2.9240   -6.5500  -25.4070 C.3   389  VAL389      0.0252
     67  CG1        3.3250   -7.6640  -26.3700 C.3   389  VAL389      0.0019
     68  CG2        2.3320   -5.3800  -26.1880 C.3   389  VAL389      0.0019
     69  N          2.3850  -12.5160  -24.2270 N.3   393  LEU393     -0.1245
     70  CA         3.5940  -13.2330  -24.6520 C.3   393  LEU393      0.1561
     71  C          4.1210  -14.2860  -23.6750 C.2   393  LEU393      0.2260
     72  O          4.8040  -15.2140  -24.1130 O.2   393  LEU393     -0.2867
     73  CB         4.7300  -12.2510  -24.9930 C.3   393  LEU393      0.0270
     74  CG         4.5820  -11.3600  -26.2260 C.3   393  LEU393      0.0019
     75  CD1        5.8060  -10.4960  -26.3900 C.3   393  LEU393      0.0001
     76  CD2        4.3720  -12.1760  -27.5010 C.3   393  LEU393      0.0001
@<TRIPOS>BOND
     1     9     8    1
     2     8     7    1
     3     7     6    1
     4     6     5    1
     5    27    25    1
     6     5     2    1
     7    26    25    1
     8    25    24    1
     9     2     1    1
    10     2     3    1
    11    40    38    1
    12    14    11    1
    13    38    37    1
    14    24    21    1
    15     3     4    2
    16    39    37    1
    17    11    12    1
    18    11    10    1
    19    37    34    1
    20    13    12    2
    21    21    22    1
    22    21    20    1
    23    12    15   am
    24    34    33    1
    25    34    35    1
    26    23    22    2
    27    15    16    1
    28    22    28   am
    29    16    19    1
    30    16    17    1
    31    36    35    2
    32    35    41   am
    33    28    29    1
    34    53    52    1
    35    54    52    1
    36    17    18    2
    37    29    32    1
    38    29    30    1
    39    41    42    1
    40    52    51    1
    41    30    31    2
    42    76    74    1
    43    42    43    1
    44    42    45    1
    45    51    48    1
    46    46    45    1
    47    43    44    2
    48    75    74    1
    49    67    66    1
    50    61    59    1
    51    74    73    1
    52    68    66    1
    53    48    47    1
    54    48    49    1
    55    66    63    1
    56    59    60    1
    57    59    56    1
    58    73    70    1
    59    50    49    2
    60    70    69    1
    61    70    71    1
    62    63    64    1
    63    63    62    1
    64    72    71    2
    65    65    64    2
    66    58    57    2
    67    56    57    1
    68    56    55    1
