@<TRIPOS>MOLECULE
tmp/5unhB00.pdb
 249 241 0 0 0
SMALL
GASTEIGER

@<TRIPOS>ATOM
      1  N        114.4590  -97.8670   47.0710 N.3   108  TYR108     -0.1241
      2  CA       114.5650  -98.0370   45.6260 C.3   108  TYR108      0.1605
      3  C        113.8760  -99.3340   45.2020 C.2   108  TYR108      0.2264
      4  O        113.1550  -99.3540   44.2020 O.2   108  TYR108     -0.2867
      5  CB       116.0430  -98.0080   45.2010 C.3   108  TYR108      0.0534
      6  CG       116.5660  -96.6070   44.9540 C.ar  108  TYR108     -0.0201
      7  CD1      116.4200  -95.6050   45.9100 C.ar  108  TYR108     -0.0009
      8  CD2      117.2300  -96.2880   43.7710 C.ar  108  TYR108     -0.0009
      9  CE1      116.8740  -94.3090   45.6760 C.ar  108  TYR108      0.0417
     10  CE2      117.7040  -94.9990   43.5330 C.ar  108  TYR108      0.0417
     11  CZ       117.5300  -94.0160   44.4920 C.ar  108  TYR108      0.1957
     12  OH       117.9980  -92.7480   44.2620 O.3   108  TYR108     -0.2866
     13  N        111.7060  -98.2000   32.8210 N.3   144  LEU144     -0.1245
     14  CA       112.3910  -97.2460   33.6830 C.3   144  LEU144      0.1561
     15  C        112.5300  -97.8130   35.1030 C.2   144  LEU144      0.2260
     16  O        113.5960  -97.6920   35.7150 O.2   144  LEU144     -0.2867
     17  CB       111.6060  -95.9210   33.6750 C.3   144  LEU144      0.0270
     18  CG       112.1650  -94.7440   34.4730 C.3   144  LEU144      0.0019
     19  CD1      113.4400  -94.1970   33.8550 C.3   144  LEU144      0.0001
     20  CD2      111.1380  -93.6370   34.5780 C.3   144  LEU144      0.0001
     21  N        120.7330  -99.1660   40.1380 N.3   151  TRP151     -0.1241
     22  CA       121.1210  -97.9670   40.8990 C.3   151  TRP151      0.1605
     23  C        121.1420  -98.2210   42.4090 C.2   151  TRP151      0.2264
     24  O        121.8860  -97.5390   43.1210 O.2   151  TRP151     -0.2867
     25  CB       120.2160  -96.7660   40.5730 C.3   151  TRP151      0.0550
     26  CG       119.8220  -96.6510   39.1270 C.ar  151  TRP151      0.0003
     27  CD1      118.5570  -96.5320   38.6370 C.ar  151  TRP151      0.0946
     28  CD2      120.6950  -96.6910   37.9830 C.ar  151  TRP151      0.0152
     29  NE1      118.5830  -96.4840   37.2590 N.ar  151  TRP151     -0.2442
     30  CE2      119.8840  -96.5750   36.8320 C.ar  151  TRP151      0.0810
     31  CE3      122.0860  -96.8130   37.8180 C.ar  151  TRP151      0.0012
     32  CZ2      120.4200  -96.5700   35.5340 C.ar  151  TRP151      0.0191
     33  CZ3      122.6140  -96.8150   36.5380 C.ar  151  TRP151      0.0001
     34  CH2      121.7870  -96.6960   35.4130 C.ar  151  TRP151      0.0015
     35  N        124.5080  -99.9980   42.8240 N.3   154  TYR154     -0.1227
     36  CA       125.5010  -98.9470   42.5560 C.3   154  TYR154      0.1736
     37  C        125.7100  -98.0680   43.7980 C.2   154  TYR154      0.2595
     38  O        126.8400  -97.6620   44.0720 O.2   154  TYR154     -0.2718
     39  CB       125.0590  -98.0910   41.3500 C.3   154  TYR154      0.0548
     40  CG       126.0280  -97.0010   40.9320 C.ar  154  TYR154     -0.0200
     41  CD1      127.1020  -97.2790   40.0890 C.ar  154  TYR154     -0.0009
     42  CD2      125.8230  -95.6770   41.3090 C.ar  154  TYR154     -0.0009
     43  CE1      127.9800  -96.2740   39.6780 C.ar  154  TYR154      0.0417
     44  CE2      126.6920  -94.6650   40.9030 C.ar  154  TYR154      0.0417
     45  CZ       127.7680  -94.9660   40.0850 C.ar  154  TYR154      0.1957
     46  OH       128.6150  -93.9610   39.6830 O.3   154  TYR154     -0.2866
     47  N        124.6240  -97.7900   44.5470 N.am  155  TYR155     -0.1976
     48  CA       124.6720  -96.9900   45.7680 C.3   155  TYR155      0.1639
     49  C        125.1300  -97.8420   46.9670 C.2   155  TYR155      0.2290
     50  O        125.7420  -97.2930   47.8870 O.2   155  TYR155     -0.2864
     51  CB       123.3110  -96.3310   46.0510 C.3   155  TYR155      0.0560
     52  CG       123.3520  -95.3050   47.1640 C.ar  155  TYR155     -0.0198
     53  CD1      123.7810  -94.0020   46.9240 C.ar  155  TYR155     -0.0009
     54  CD2      122.9590  -95.6350   48.4590 C.ar  155  TYR155     -0.0009
     55  CE1      123.8230  -93.0530   47.9460 C.ar  155  TYR155      0.0417
     56  CE2      122.9940  -94.6950   49.4880 C.ar  155  TYR155      0.0417
     57  CZ       123.4270  -93.4050   49.2270 C.ar  155  TYR155      0.1957
     58  OH       123.4600  -92.4760   50.2390 O.3   155  TYR155     -0.2866
     59  N        128.7750  -95.6230   45.2220 N.3   159  TYR159     -0.1241
     60  CA       129.0970  -95.0780   43.8870 C.3   159  TYR159      0.1605
     61  C        130.2820  -95.8460   43.2660 C.2   159  TYR159      0.2264
     62  O        131.3930  -95.3160   43.1770 O.2   159  TYR159     -0.2867
     63  CB       129.3760  -93.5540   43.9270 C.3   159  TYR159      0.0534
     64  CG       128.1520  -92.6680   44.0380 C.ar  159  TYR159     -0.0201
     65  CD1      127.6000  -92.3600   45.2790 C.ar  159  TYR159     -0.0009
     66  CD2      127.6160  -92.0450   42.9150 C.ar  159  TYR159     -0.0009
     67  CE1      126.5000  -91.5080   45.3910 C.ar  159  TYR159      0.0417
     68  CE2      126.5090  -91.2010   43.0130 C.ar  159  TYR159      0.0417
     69  CZ       125.9580  -90.9300   44.2540 C.ar  159  TYR159      0.1957
     70  OH       124.8770  -90.0870   44.3520 O.3   159  TYR159     -0.2866
     71  N        122.8780  -96.3410   30.8990 N.3   172  GLY172     -0.1225
     72  CA       122.8270  -94.9060   31.1560 C.3   172  GLY172      0.1811
     73  C        121.8730  -94.2100   30.2040 C.2   172  GLY172      0.2280
     74  O        121.0500  -93.4080   30.6400 O.2   172  GLY172     -0.2866
     75  N        118.0560  -95.5350   30.4510 N.3   175  LEU175     -0.1231
     76  CA       117.4050  -94.8420   31.5590 C.3   175  LEU175      0.1693
     77  C        116.8030  -93.5080   31.0890 C.2   175  LEU175      0.2592
     78  O        115.6360  -93.2410   31.3670 O.2   175  LEU175     -0.2718
     79  CB       118.4200  -94.6090   32.6950 C.3   175  LEU175      0.0284
     80  CG       117.9650  -93.7420   33.8630 C.3   175  LEU175      0.0019
     81  CD1      117.1110  -94.5320   34.8360 C.3   175  LEU175      0.0001
     82  CD2      119.1490  -93.1420   34.5760 C.3   175  LEU175      0.0001
     83  N        117.5990  -92.6950   30.3620 N.am  176  THR176     -0.1953
     84  CA       117.2260  -91.3740   29.8460 C.3   176  THR176      0.1897
     85  C        116.1510  -91.4950   28.7340 C.2   176  THR176      0.2313
     86  O        115.2140  -90.6940   28.7220 O.2   176  THR176     -0.2863
     87  CB       118.4920  -90.6310   29.3800 C.3   176  THR176      0.1794
     88  OG1      119.4520  -90.6580   30.4370 O.3   176  THR176     -0.2208
     89  CG2      118.2300  -89.1880   29.0090 C.3   176  THR176      0.0378
     90  N        112.8390  -92.3390   30.4540 N.3   179  MET179     -0.1230
     91  CA       112.4290  -91.2700   31.3670 C.3   179  MET179      0.1702
     92  C        111.7430  -90.1710   30.5470 C.2   179  MET179      0.2592
     93  O        110.6530  -89.7390   30.9200 O.2   179  MET179     -0.2718
     94  CB       113.6180  -90.7240   32.1760 C.3   179  MET179      0.0401
     95  CG       113.2500  -89.6090   33.1350 C.3   179  MET179      0.0596
     96  SD       114.5700  -88.3810   33.3480 S.3   179  MET179     -0.1393
     97  CE       114.5220  -87.5440   31.7550 C.3   179  MET179      0.0692
     98  N        112.3450  -89.7820   29.4010 N.am  180  PHE180     -0.1976
     99  CA       111.7840  -88.7830   28.4930 C.3   180  PHE180      0.1639
    100  C        110.5210  -89.3060   27.8060 C.2   180  PHE180      0.2290
    101  O        109.5550  -88.5550   27.7120 O.2   180  PHE180     -0.2864
    102  CB       112.8080  -88.3280   27.4440 C.3   180  PHE180      0.0560
    103  CG       113.7750  -87.2680   27.9180 C.ar  180  PHE180     -0.0200
    104  CD1      113.3180  -86.0310   28.3610 C.ar  180  PHE180     -0.0042
    105  CD2      115.1460  -87.4870   27.8780 C.ar  180  PHE180     -0.0042
    106  CE1      114.2190  -85.0430   28.7850 C.ar  180  PHE180     -0.0003
    107  CE2      116.0450  -86.4940   28.2930 C.ar  180  PHE180     -0.0003
    108  CZ       115.5770  -85.2820   28.7490 C.ar  180  PHE180     -0.0000
    109  N        116.9590  -86.8560   22.6560 N.3   216  SER216     -0.1217
    110  CA       117.1870  -86.2160   23.9550 C.3   216  SER216      0.1889
    111  C        118.1600  -87.0110   24.8380 C.2   216  SER216      0.2288
    112  O        118.6880  -86.4540   25.8080 O.2   216  SER216     -0.2866
    113  CB       115.8660  -86.0220   24.6950 C.3   216  SER216      0.2089
    114  OG       114.9290  -85.2490   23.9650 O.3   216  SER216     -0.2183
    115  N        123.2350  -86.9400   24.3420 N.3   219  PRO219     -0.2102
    116  CA       124.3690  -86.4750   25.1760 C.3   219  PRO219      0.1504
    117  C        124.6990  -87.4610   26.3080 C.2   219  PRO219      0.2576
    118  O        125.8170  -87.4610   26.8160 O.2   219  PRO219     -0.2718
    119  CB       123.8780  -85.1340   25.7330 C.3   219  PRO219      0.0282
    120  CG       122.7300  -84.7500   24.8610 C.3   219  PRO219      0.0208
    121  CD       122.0770  -86.0410   24.5190 C.3   219  PRO219      0.0893
    122  N        123.7280  -88.3210   26.6820 N.am  220  THR220     -0.1953
    123  CA       123.9290  -89.3740   27.6750 C.3   220  THR220      0.1897
    124  C        124.8530  -90.4470   27.0670 C.2   220  THR220      0.2313
    125  O        125.7910  -90.8800   27.7360 O.2   220  THR220     -0.2863
    126  CB       122.5910  -89.9730   28.1350 C.3   220  THR220      0.1794
    127  OG1      121.5840  -88.9570   28.2160 O.3   220  THR220     -0.2208
    128  CG2      122.7120  -90.7240   29.4560 C.3   220  THR220      0.0378
    129  N        128.5240  -90.3250   29.0490 N.3   224  ARG224     -0.1245
    130  CA       128.6140  -91.3350   30.1200 C.3   224  ARG224      0.1563
    131  C        129.7410  -92.3430   29.8790 C.2   224  ARG224      0.2260
    132  O        129.8220  -92.9260   28.8030 O.2   224  ARG224     -0.2867
    133  CB       127.2850  -92.0950   30.3050 C.3   224  ARG224      0.0307
    134  CG       126.2260  -91.3460   31.1050 C.3   224  ARG224      0.0489
    135  CD       126.3370  -91.5690   32.5990 C.3   224  ARG224      0.2205
    136  NE       125.6210  -90.5390   33.3490 N.pl3 224  ARG224     -0.0865
    137  CZ       125.7210  -90.3650   34.6630 C.cat 224  ARG224      0.5346
    138  NH1      126.5090  -91.1460   35.3850 N.pl3 224  ARG224      0.1354
    139  NH2      125.0340  -89.4030   35.2640 N.pl3 224  ARG224      0.1354
    140  N        130.6650  -94.4470   37.2090 N.3   237  CYS237     -0.1235
    141  CA       129.9480  -94.2470   35.9470 C.3   237  CYS237      0.1677
    142  C        129.4420  -92.8000   35.9760 C.2   237  CYS237      0.2270
    143  O        128.5100  -92.4920   36.7160 O.2   237  CYS237     -0.2867
    144  CB       128.8160  -95.2700   35.8150 C.3   237  CYS237      0.0956
    145  SG       127.7710  -95.0760   34.3410 S.3   237  CYS237     -0.0801
    146  N        129.4120  -88.5680   33.7600 N.3   239  MET239     -0.1245
    147  CA       129.4200  -87.7820   32.5200 C.3   239  MET239      0.1570
    148  C        130.8430  -87.2290   32.3040 C.2   239  MET239      0.2261
    149  O        131.2060  -86.1930   32.8720 O.2   239  MET239     -0.2867
    150  CB       128.3650  -86.6550   32.5670 C.3   239  MET239      0.0387
    151  CG       126.9290  -87.1530   32.5710 C.3   239  MET239      0.0595
    152  SD       126.3870  -87.8110   30.9780 S.3   239  MET239     -0.1393
    153  CE       125.7630  -86.3380   30.2100 C.3   239  MET239      0.0692
    154  N        124.5410  -78.7990   30.5220 N.3   251  ILE251     -0.1245
    155  CA       123.7890  -80.0600   30.5430 C.3   251  ILE251      0.1561
    156  C        122.7050  -80.0020   31.6410 C.2   251  ILE251      0.2260
    157  O        121.5900  -80.4840   31.3990 O.2   251  ILE251     -0.2867
    158  CB       124.7280  -81.3060   30.6700 C.3   251  ILE251      0.0252
    159  CG1      125.5630  -81.5300   29.3630 C.3   251  ILE251      0.0019
    160  CG2      123.9710  -82.6030   31.0900 C.3   251  ILE251      0.0019
    161  CD1      124.7740  -81.7550   27.9860 C.3   251  ILE251      0.0001
    162  N        119.8200  -78.1380   30.2480 N.3   254  MET254     -0.1230
    163  CA       119.0850  -78.9350   29.2530 C.3   254  MET254      0.1702
    164  C        118.1590  -79.9630   29.9220 C.2   254  MET254      0.2592
    165  O        117.1340  -80.3140   29.3400 O.2   254  MET254     -0.2718
    166  CB       120.0420  -79.6440   28.2850 C.3   254  MET254      0.0401
    167  CG       120.7260  -78.6660   27.3640 C.3   254  MET254      0.0596
    168  SD       121.7510  -79.4610   26.0900 S.3   254  MET254     -0.1393
    169  CE       120.4640  -80.1670   25.1010 C.3   254  MET254      0.0692
    170  N        118.5170  -80.4400   31.1330 N.am  255  LYS255     -0.1980
    171  CA       117.7240  -81.3880   31.9240 C.3   255  LYS255      0.1596
    172  C        116.3980  -80.7520   32.3900 C.2   255  LYS255      0.2287
    173  O        115.3690  -81.4280   32.3860 O.2   255  LYS255     -0.2864
    174  CB       118.5330  -81.8790   33.1410 C.3   255  LYS255      0.0298
    175  CG       117.9140  -82.9910   34.0060 C.3   255  LYS255      0.0038
    176  CD       117.5810  -84.1780   33.1250 C.3   255  LYS255      0.0206
    177  CE       118.6740  -85.2090   32.9120 C.3   255  LYS255      0.1093
    178  NZ       118.0160  -86.5770   32.7800 N.3   255  LYS255     -0.1314
    179  N        114.0070  -79.4260   28.7960 N.3   258  LEU258     -0.1245
    180  CA       113.4040  -80.5660   28.1000 C.3   258  LEU258      0.1561
    181  C        112.6110  -81.5070   28.9970 C.2   258  LEU258      0.2260
    182  O        111.6700  -82.1410   28.5180 O.2   258  LEU258     -0.2867
    183  CB       114.4840  -81.3860   27.3860 C.3   258  LEU258      0.0270
    184  CG       114.8000  -80.9910   25.9470 C.3   258  LEU258      0.0019
    185  CD1      116.1170  -81.6060   25.5030 C.3   258  LEU258      0.0001
    186  CD2      113.6730  -81.4010   24.9910 C.3   258  LEU258      0.0001
    187  N        108.5520  -84.3010   40.2410 N.3   309  TRP309     -0.1241
    188  CA       109.7260  -83.8170   39.5190 C.3   309  TRP309      0.1605
    189  C        110.3000  -82.4480   39.9600 C.2   309  TRP309      0.2264
    190  O        111.4760  -82.2150   39.6780 O.2   309  TRP309     -0.2867
    191  CB       109.4280  -83.7750   38.0160 C.3   309  TRP309      0.0550
    192  CG       109.4380  -85.1350   37.3820 C.ar  309  TRP309      0.0003
    193  CD1      108.3550  -85.8710   36.9980 C.ar  309  TRP309      0.0946
    194  CD2      110.5920  -85.9420   37.1060 C.ar  309  TRP309      0.0152
    195  NE1      108.7640  -87.0720   36.4600 N.ar  309  TRP309     -0.2442
    196  CE2      110.1320  -87.1480   36.5290 C.ar  309  TRP309      0.0810
    197  CE3      111.9780  -85.7620   37.2930 C.ar  309  TRP309      0.0012
    198  CZ2      111.0060  -88.1680   36.1360 C.ar  309  TRP309      0.0191
    199  CZ3      112.8410  -86.7720   36.9060 C.ar  309  TRP309      0.0001
    200  CH2      112.3560  -87.9540   36.3280 C.ar  309  TRP309      0.0015
    201  N        113.6960  -82.5450   42.4130 N.3   312  PHE312     -0.1241
    202  CA       114.9130  -82.8970   41.6710 C.3   312  PHE312      0.1605
    203  C        115.3840  -81.7560   40.7480 C.2   312  PHE312      0.2264
    204  O        116.5860  -81.4810   40.6960 O.2   312  PHE312     -0.2867
    205  CB       114.7040  -84.1930   40.8540 C.3   312  PHE312      0.0534
    206  CG       115.7510  -84.4520   39.7940 C.ar  312  PHE312     -0.0203
    207  CD1      117.0140  -84.9230   40.1400 C.ar  312  PHE312     -0.0042
    208  CD2      115.4840  -84.1950   38.4550 C.ar  312  PHE312     -0.0042
    209  CE1      117.9930  -85.1340   39.1610 C.ar  312  PHE312     -0.0003
    210  CE2      116.4660  -84.3960   37.4790 C.ar  312  PHE312     -0.0003
    211  CZ       117.7110  -84.8730   37.8380 C.ar  312  PHE312     -0.0000
    212  N        120.0280  -85.3330   46.7950 N.3   340  LEU340     -0.1231
    213  CA       119.9990  -85.8260   45.4110 C.3   340  LEU340      0.1678
    214  C        119.3970  -87.2620   45.2340 C.2   340  LEU340      0.2434
    215  O        118.4990  -87.3720   44.4000 O.2   340  LEU340     -0.2733
    216  CB       121.4040  -85.7620   44.7860 C.3   340  LEU340      0.0284
    217  CG       121.4870  -85.8820   43.2600 C.3   340  LEU340      0.0019
    218  CD1      121.3820  -84.5160   42.5920 C.3   340  LEU340      0.0001
    219  CD2      122.7760  -86.5760   42.8410 C.3   340  LEU340      0.0001
    220  N        119.8010  -88.3510   45.9570 N.am  341  PRO341     -0.2729
    221  CA       119.1870  -89.6700   45.6910 C.3   341  PRO341      0.1401
    222  C        117.7190  -89.7860   46.1240 C.2   341  PRO341      0.2269
    223  O        117.0210  -90.6610   45.6180 O.2   341  PRO341     -0.2865
    224  CB       120.0690  -90.6460   46.4790 C.3   341  PRO341      0.0296
    225  CG       121.3240  -89.8840   46.7980 C.3   341  PRO341      0.0237
    226  CD       120.8630  -88.4750   46.9770 C.3   341  PRO341      0.0939
    227  N        115.7910  -88.1500   43.1940 N.3   344  ILE344     -0.1245
    228  CA       115.8860  -89.1040   42.0680 C.3   344  ILE344      0.1561
    229  C        114.8080  -90.2120   42.2190 C.2   344  ILE344      0.2260
    230  O        114.2970  -90.7190   41.2130 O.2   344  ILE344     -0.2867
    231  CB       117.3450  -89.6810   41.9730 C.3   344  ILE344      0.0252
    232  CG1      118.3050  -88.6500   41.3360 C.3   344  ILE344      0.0019
    233  CG2      117.4210  -91.0250   41.2210 C.3   344  ILE344      0.0019
    234  CD1      119.7890  -88.8430   41.6410 C.3   344  ILE344      0.0001
    235  N        111.1220  -89.0840   41.1340 N.3   347  GLY347     -0.1210
    236  CA       110.9810  -89.1780   39.6860 C.3   347  GLY347      0.1956
    237  C        110.4630  -90.5410   39.2650 C.2   347  GLY347      0.2611
    238  O        109.5830  -90.6310   38.4040 O.2   347  GLY347     -0.2717
    239  N        110.9820  -91.6110   39.9090 N.am  348  PHE348     -0.1976
    240  CA       110.5810  -93.0030   39.6820 C.3   348  PHE348      0.1639
    241  C        109.1880  -93.2760   40.2630 C.2   348  PHE348      0.2290
    242  O        108.4630  -94.1150   39.7300 O.2   348  PHE348     -0.2864
    243  CB       111.6070  -93.9730   40.2910 C.3   348  PHE348      0.0560
    244  CG       112.8970  -94.1640   39.5400 C.ar  348  PHE348     -0.0200
    245  CD1      112.9060  -94.6750   38.2550 C.ar  348  PHE348     -0.0042
    246  CD2      114.1220  -93.8510   40.1150 C.ar  348  PHE348     -0.0042
    247  CE1      114.1060  -94.8440   37.5460 C.ar  348  PHE348     -0.0003
    248  CE2      115.3090  -94.0670   39.4160 C.ar  348  PHE348     -0.0003
    249  CZ       115.2910  -94.5470   38.1550 C.ar  348  PHE348     -0.0000
@<TRIPOS>BOND
     1   109   110    1
     2   110   113    1
     3   110   111    1
     4   114   113    1
     5   115   121    1
     6   115   116    1
     7   121   120    1
     8   111   112    2
     9   120   119    1
    10   186   184    1
    11   169   168    1
    12   116   119    1
    13   116   117    1
    14   185   184    1
    15   184   183    1
    16   168   167    1
    17   117   122   am
    18   117   118    2
    19   122   123    1
    20   124   123    1
    21   124   125    2
    22   167   166    1
    23   183   180    1
    24   102   103    1
    25   102    99    1
    26   123   126    1
    27   101   100    2
    28   100    99    1
    29   105   103   ar
    30   105   107   ar
    31   103   104   ar
    32   161   159    1
    33   180   179    1
    34   180   181    1
    35   126   127    1
    36   126   128    1
    37   166   163    1
    38   107   108   ar
    39   104   106   ar
    40    99    98    1
    41   182   181    2
    42    86    85    2
    43    85    84    1
    44   108   106   ar
    45   132   131    2
    46    89    87    1
    47   129   130    1
    48   163   164    1
    49   163   162    1
    50   165   164    2
    51   159   158    1
    52    87    84    1
    53    87    88    1
    54    98    92   am
    55    84    83    1
    56   131   130    1
    57   164   170   am
    58   130   133    1
    59    73    74    2
    60    73    72    1
    61   153   152    1
    62   133   134    1
    63    83    77   am
    64    75    76    1
    65    90    91    1
    66   154   155    1
    67   155   158    1
    68   155   156    1
    69    92    93    2
    70    92    91    1
    71   158   160    1
    72    71    72    1
    73   152   151    1
    74    77    78    2
    75    77    76    1
    76   134   135    1
    77   170   171    1
    78    91    94    1
    79   157   156    2
    80    76    79    1
    81    97    96    1
    82   171   172    1
    83   171   174    1
    84    94    95    1
    85   148   147    1
    86   148   149    2
    87   173   172    2
    88   147   150    1
    89   147   146    1
    90   150   151    1
    91   135   136    1
    92    79    80    1
    93   178   177    1
    94    13    14    1
    95   177   176    1
    96   176   175    1
    97    95    96    1
    98   174   175    1
    99   136   137    2
   100    17    14    1
   101    17    18    1
   102    14    15    1
   103    19    18    1
   104    80    82    1
   105    80    81    1
   106   145   144    1
   107    18    20    1
   108   137   139    1
   109   137   138    1
   110    15    16    2
   111    34    32   ar
   112    34    33   ar
   113    32    30   ar
   114   144   141    1
   115   141   142    1
   116   141   140    1
   117   142   143    2
   118   198   200   ar
   119   198   196   ar
   120   200   199   ar
   121   195   196   ar
   122   195   193   ar
   123   196   194   ar
   124    33    31   ar
   125    30    29   ar
   126    30    28   ar
   127   199   197   ar
   128   193   192   ar
   129   194   197   ar
   130   194   192   ar
   131    29    27   ar
   132   192   191    1
   133   210   211   ar
   134   210   208   ar
   135   247   249   ar
   136   247   245   ar
   137    31    28   ar
   138   211   209   ar
   139    28    26   ar
   140   191   188    1
   141   249   248   ar
   142   245   244   ar
   143   238   237    2
   144   208   206   ar
   145    27    26   ar
   146    26    25    1
   147   209   207   ar
   148   237   236    1
   149   237   239   am
   150   248   246   ar
   151   188   189    1
   152   188   187    1
   153   244   246   ar
   154   244   243    1
   155    43    45   ar
   156    43    41   ar
   157   190   189    2
   158   240   239    1
   159   240   241    1
   160   240   243    1
   161    46    45    1
   162   236   235    1
   163   242   241    2
   164   206   207   ar
   165   206   205    1
   166    45    44   ar
   167    41    40   ar
   168    21    22    1
   169    25    22    1
   170   204   203    2
   171   203   202    1
   172   205   202    1
   173    22    23    1
   174    44    42   ar
   175    40    42   ar
   176    40    39    1
   177   230   229    2
   178   233   231    1
   179   232   234    1
   180   232   231    1
   181    39    36    1
   182   202   201    1
   183   231   228    1
   184   228   229    1
   185   228   227    1
   186    23    24    2
   187    36    35    1
   188    36    37    1
   189   218   217    1
   190   219   217    1
   191    66    68   ar
   192    66    64   ar
   193    68    69   ar
   194    62    61    2
   195   217   216    1
   196    61    60    1
   197    10     8   ar
   198    10    11   ar
   199     8     6   ar
   200    37    38    2
   201    37    47   am
   202    60    63    1
   203    60    59    1
   204    63    64    1
   205    64    65   ar
   206     4     3    2
   207    69    70    1
   208    69    67   ar
   209    12    11    1
   210   215   214    2
   211    11     9   ar
   212    47    48    1
   213   216   213    1
   214     6     5    1
   215     6     7   ar
   216     5     2    1
   217     3     2    1
   218   214   213    1
   219   214   220   am
   220    65    67   ar
   221   213   212    1
   222   223   222    2
   223     2     1    1
   224     9     7   ar
   225   221   220    1
   226   221   222    1
   227   221   224    1
   228    48    51    1
   229    48    49    1
   230   220   226    1
   231    51    52    1
   232   224   225    1
   233   225   226    1
   234    53    52   ar
   235    53    55   ar
   236    49    50    2
   237    52    54   ar
   238    55    57   ar
   239    54    56   ar
   240    57    56   ar
   241    57    58    1
