@<TRIPOS>MOLECULE
tmp/5uniB08.pdb
 106 101 0 0 0
SMALL
GASTEIGER

@<TRIPOS>ATOM
      1  N         -0.9130  135.1790   -6.9500 N.3    64  LEU64      -0.1231
      2  CA         0.1630  134.3810   -7.5890 C.3    64  LEU64       0.1693
      3  C          0.7120  133.2480   -6.6540 C.2    64  LEU64       0.2592
      4  O          0.7970  132.0680   -7.0440 O.2    64  LEU64      -0.2718
      5  CB         1.2800  135.2780   -8.0100 C.3    64  LEU64       0.0284
      6  CG         0.9310  136.2790   -9.1380 C.3    64  LEU64       0.0019
      7  CD1        2.0240  137.3280   -9.2130 C.3    64  LEU64       0.0001
      8  CD2        0.7370  135.5510  -10.4850 C.3    64  LEU64       0.0001
      9  N          1.0140  133.6110   -5.4060 N.am   65  GLY65      -0.1957
     10  CA         1.5780  132.6620   -4.4830 C.3    65  GLY65       0.1869
     11  C          0.7090  131.4850   -4.2190 C.2    65  GLY65       0.2309
     12  O          1.1420  130.3440   -4.3090 O.2    65  GLY65      -0.2863
     13  N         -0.5280  129.0020   -7.5320 N.3    68  VAL68      -0.1231
     14  CA         0.5390  128.1400   -7.9940 C.3    68  VAL68       0.1692
     15  C          0.8820  127.0970   -6.8860 C.2    68  VAL68       0.2591
     16  O          1.0550  125.8900   -7.1590 O.2    68  VAL68      -0.2718
     17  CB         1.7810  128.9880   -8.3620 C.3    68  VAL68       0.0266
     18  CG1        2.9350  128.0960   -8.8200 C.3    68  VAL68       0.0020
     19  CG2        1.4600  130.0480   -9.4450 C.3    68  VAL68       0.0020
     20  N          0.9510  127.5450   -5.6300 N.am   69  ALA69      -0.1980
     21  CA         1.1930  126.5950   -4.5090 C.3    69  ALA69       0.1597
     22  C          0.0960  125.5530   -4.4200 C.2    69  ALA69       0.2287
     23  O          0.3740  124.3850   -4.2340 O.2    69  ALA69      -0.2864
     24  CB         1.2960  127.3510   -3.1960 C.3    69  ALA69       0.0319
     25  N         -2.0010  124.6750   -6.8420 N.3    71  TRP71      -0.1227
     26  CA        -1.9180  123.8910   -8.0830 C.3    71  TRP71       0.1737
     27  C         -0.8420  122.7780   -7.9500 C.2    71  TRP71       0.2595
     28  O         -1.1420  121.6040   -8.1880 O.2    71  TRP71      -0.2718
     29  CB        -1.7080  124.8210   -9.2890 C.3    71  TRP71       0.0564
     30  CG        -1.4480  124.0730  -10.5420 C.ar   71  TRP71       0.0003
     31  CD1       -2.3730  123.5290  -11.3730 C.ar   71  TRP71       0.0946
     32  CD2       -0.1530  123.7320  -11.0970 C.ar   71  TRP71       0.0152
     33  NE1       -1.7480  122.8770  -12.4160 N.ar   71  TRP71      -0.2442
     34  CE2       -0.3900  122.9830  -12.2710 C.ar   71  TRP71       0.0810
     35  CE3        1.1820  123.9870  -10.7070 C.ar   71  TRP71       0.0012
     36  CZ2        0.6530  122.4800  -13.0660 C.ar   71  TRP71       0.0191
     37  CZ3        2.2220  123.4980  -11.5020 C.ar   71  TRP71       0.0001
     38  CH2        1.9480  122.7520  -12.6670 C.ar   71  TRP71       0.0015
     39  N          0.3600  123.1210   -7.4660 N.am   72  ALA72      -0.1980
     40  CA         1.3790  122.0930   -7.2010 C.3    72  ALA72       0.1597
     41  C          1.0000  121.0760   -6.1570 C.2    72  ALA72       0.2287
     42  O          1.2040  119.9060   -6.4030 O.2    72  ALA72      -0.2864
     43  CB         2.6890  122.7330   -6.8390 C.3    72  ALA72       0.0319
     44  N          0.8930  116.5950   -7.2660 N.3    76  VAL76      -0.1245
     45  CA         2.0140  115.6700   -7.0020 C.3    76  VAL76       0.1561
     46  C          1.5110  114.3590   -6.4220 C.2    76  VAL76       0.2260
     47  O          0.4620  114.3120   -5.7530 O.2    76  VAL76      -0.2867
     48  CB         3.1090  116.3020   -6.1140 C.3    76  VAL76       0.0252
     49  CG1        3.5480  117.6500   -6.6930 C.3    76  VAL76       0.0019
     50  CG2        2.6800  116.4420   -4.6630 C.3    76  VAL76       0.0019
     51  N          7.2280  118.4710   -0.3230 N.3    84  MET84      -0.1245
     52  CA         6.3310  119.6000   -0.5250 C.3    84  MET84       0.1570
     53  C          6.2800  120.3650    0.8060 C.2    84  MET84       0.2261
     54  O          6.3040  121.5930    0.8400 O.2    84  MET84      -0.2867
     55  CB         4.9180  119.1410   -1.0030 C.3    84  MET84       0.0387
     56  CG         4.8500  118.4890   -2.4280 C.3    84  MET84       0.0595
     57  SD         5.8690  119.3870   -3.6230 S.3    84  MET84      -0.1393
     58  CE         4.8560  120.8170   -3.9210 C.3    84  MET84       0.0692
     59  N          9.4180  122.6240    0.7100 N.3    87  ILE87      -0.1231
     60  CA         9.5060  123.8400   -0.1720 C.3    87  ILE87       0.1692
     61  C          8.5600  124.9300    0.4230 C.2    87  ILE87       0.2592
     62  O          8.9470  126.0930    0.5330 O.2    87  ILE87      -0.2718
     63  CB         9.3090  123.5060   -1.6740 C.3    87  ILE87       0.0266
     64  CG1        9.6450  124.7090   -2.5440 C.3    87  ILE87       0.0019
     65  CG2        7.9260  123.0420   -1.9920 C.3    87  ILE87       0.0020
     66  CD1        9.6950  124.3600   -4.0240 C.3    87  ILE87       0.0001
     67  N          7.3920  124.5220    0.9300 N.am   88  TYR88      -0.1976
     68  CA         6.4940  125.4480    1.5610 C.3    88  TYR88       0.1639
     69  C          7.0190  125.9970    2.8510 C.2    88  TYR88       0.2290
     70  O          6.9210  127.2170    3.0900 O.2    88  TYR88      -0.2864
     71  CB         5.1030  124.8330    1.6910 C.3    88  TYR88       0.0560
     72  CG         4.4390  124.5640    0.2880 C.ar   88  TYR88      -0.0198
     73  CD1        4.6210  125.4100   -0.8260 C.ar   88  TYR88      -0.0009
     74  CD2        3.7060  123.4340    0.1020 C.ar   88  TYR88      -0.0009
     75  CE1        4.0220  125.1140   -2.0770 C.ar   88  TYR88       0.0417
     76  CE2        3.1570  123.1070   -1.1070 C.ar   88  TYR88       0.0417
     77  CZ         3.2810  123.9440   -2.1870 C.ar   88  TYR88       0.1957
     78  OH         2.6520  123.4710   -3.3080 O.3    88  TYR88      -0.2866
     79  N          9.7080  128.6180    1.8700 N.3    91  MET91      -0.1245
     80  CA         9.0510  129.8560    1.4450 C.3    91  MET91       0.1570
     81  C          8.5950  130.7150    2.6140 C.2    91  MET91       0.2261
     82  O          8.7880  131.9110    2.5690 O.2    91  MET91      -0.2867
     83  CB         7.9160  129.5280    0.4650 C.3    91  MET91       0.0387
     84  CG         8.5590  129.1450   -0.8770 C.3    91  MET91       0.0595
     85  SD         7.4800  128.7850   -2.2460 S.3    91  MET91      -0.1393
     86  CE         8.8170  128.5200   -3.4480 C.3    91  MET91       0.0692
     87  N         14.2700  119.9270   -0.2690 N.3   136  PHE136     -0.1241
     88  CA        13.4080  119.7070   -1.4610 C.3   136  PHE136      0.1605
     89  C         14.1840  119.1500   -2.7220 C.2   136  PHE136      0.2264
     90  O         13.8040  118.1320   -3.3420 O.2   136  PHE136     -0.2867
     91  CB        12.7050  121.0070   -1.8170 C.3   136  PHE136      0.0534
     92  CG        11.9600  120.9690   -3.1440 C.ar  136  PHE136     -0.0203
     93  CD1       10.7080  120.3720   -3.2390 C.ar  136  PHE136     -0.0042
     94  CD2       12.5320  121.5010   -4.2830 C.ar  136  PHE136     -0.0042
     95  CE1       10.0510  120.3280   -4.4630 C.ar  136  PHE136     -0.0003
     96  CE2       11.8720  121.4390   -5.5330 C.ar  136  PHE136     -0.0003
     97  CZ        10.6360  120.8780   -5.6160 C.ar  136  PHE136     -0.0000
     98  N         13.5100  115.5910   -4.3520 N.3   140  GLN140     -0.1245
     99  CA        12.8500  115.6880   -5.6540 C.3   140  GLN140      0.1566
    100  C         13.6140  115.0010   -6.8220 C.2   140  GLN140      0.2260
    101  O         12.9850  114.4930   -7.7420 O.2   140  GLN140     -0.2867
    102  CB        12.7080  117.1640   -5.9680 C.3   140  GLN140      0.0367
    103  CG        12.3930  117.5330   -7.4090 C.3   140  GLN140      0.0905
    104  CD        11.0160  117.1100   -7.7320 C.2   140  GLN140      0.2608
    105  OE1       10.1480  117.0020   -6.8270 O.2   140  GLN140     -0.2717
    106  NE2       10.7820  116.8450   -9.0060 N.am  140  GLN140     -0.0878
@<TRIPOS>BOND
     1    36    38   ar
     2    36    34   ar
     3    38    37   ar
     4    33    34   ar
     5    33    31   ar
     6    34    32   ar
     7    37    35   ar
     8    31    30   ar
     9    32    35   ar
    10    32    30   ar
    11    30    29    1
    12     8     6    1
    13    19    17    1
    14    29    26    1
    15     7     6    1
    16     6     5    1
    17   106   104   am
    18    18    17    1
    19    17    14    1
    20    28    27    2
    21    26    27    1
    22    26    25    1
    23     5     2    1
    24    14    13    1
    25    14    15    1
    26    27    39   am
    27   101   100    2
    28   104   103    1
    29   104   105    2
    30     2     1    1
    31     2     3    1
    32    39    40    1
    33   103   102    1
    34    44    45    1
    35    40    43    1
    36    40    41    1
    37    16    15    2
    38     4     3    2
    39    45    46    1
    40    45    48    1
    41    15    20   am
    42   100    99    1
    43    49    48    1
    44     3     9   am
    45    46    47    2
    46    42    41    2
    47    48    50    1
    48   102    99    1
    49    99    98    1
    50    20    21    1
    51    97    96   ar
    52    97    95   ar
    53    96    94   ar
    54     9    10    1
    55    21    22    1
    56    21    24    1
    57    10    11    1
    58    95    93   ar
    59    22    23    2
    60    12    11    2
    61    94    92   ar
    62    66    64    1
    63    58    57    1
    64    57    56    1
    65    86    85    1
    66    90    89    2
    67    78    77    1
    68    93    92   ar
    69    92    91    1
    70    89    88    1
    71    64    63    1
    72    56    55    1
    73    85    84    1
    74    77    75   ar
    75    77    76   ar
    76    75    73   ar
    77    65    63    1
    78    91    88    1
    79    63    60    1
    80    88    87    1
    81    76    74   ar
    82    55    52    1
    83    84    83    1
    84    73    72   ar
    85    52    51    1
    86    52    53    1
    87    60    61    1
    88    60    59    1
    89    74    72   ar
    90    72    71    1
    91    61    62    2
    92    61    67   am
    93    83    80    1
    94    53    54    2
    95    67    68    1
    96    80    79    1
    97    80    81    1
    98    68    71    1
    99    68    69    1
   100    82    81    2
   101    69    70    2
