@<TRIPOS>MOLECULE
tmp/5uniB01.pdb
 86 81 0 0 0
SMALL
GASTEIGER

@<TRIPOS>ATOM
      1  N         29.9140  115.5060    0.9350 N.3   149  LEU149     -0.1245
      2  CA        30.9740  115.6280    1.9360 C.3   149  LEU149      0.1561
      3  C         32.2280  116.1870    1.3070 C.2   149  LEU149      0.2260
      4  O         32.3990  116.1420    0.0860 O.2   149  LEU149     -0.2867
      5  CB        31.2910  114.2840    2.5600 C.3   149  LEU149      0.0270
      6  CG        30.0800  113.6350    3.2070 C.3   149  LEU149      0.0019
      7  CD1       30.3900  112.2280    3.7180 C.3   149  LEU149      0.0001
      8  CD2       29.5380  114.5210    4.3240 C.3   149  LEU149      0.0001
      9  N         34.8600  120.4280    6.1050 N.3   153  GLN153     -0.1231
     10  CA        33.4840  120.9220    5.9540 C.3   153  GLN153      0.1698
     11  C         32.9320  121.4210    7.2780 C.2   153  GLN153      0.2592
     12  O         32.4220  122.5270    7.3490 O.2   153  GLN153     -0.2718
     13  CB        32.5730  119.7840    5.4010 C.3   153  GLN153      0.0381
     14  CG        31.1710  120.2070    4.9420 C.3   153  GLN153      0.0905
     15  CD        30.4150  119.1540    4.1110 C.2   153  GLN153      0.2608
     16  OE1       29.5130  119.4790    3.3000 O.2   153  GLN153     -0.2717
     17  NE2       30.7510  117.8990    4.3330 N.am  153  GLN153     -0.0878
     18  N         33.0800  120.6430    8.3340 N.am  154  LYS154     -0.1980
     19  CA        32.6190  121.0740    9.6540 C.3   154  LYS154      0.1596
     20  C         33.1740  122.4570   10.0050 C.2   154  LYS154      0.2287
     21  O         32.4460  123.3290   10.4580 O.2   154  LYS154     -0.2864
     22  CB        33.0250  120.0870   10.7550 C.3   154  LYS154      0.0298
     23  CG        32.0250  118.9780   11.0220 C.3   154  LYS154      0.0038
     24  CD        32.1280  118.5130   12.4920 C.3   154  LYS154      0.0206
     25  CE        31.2760  117.2850   12.8440 C.3   154  LYS154      0.1093
     26  NZ        31.6190  116.0240   12.1040 N.3   154  LYS154     -0.1314
     27  N         31.7870  125.2960    7.8640 N.3   157  ASN157     -0.1240
     28  CA        30.3810  125.6280    8.1710 C.3   157  ASN157      0.1653
     29  C         30.3380  126.4890    9.4160 C.2   157  ASN157      0.2266
     30  O         29.6500  127.5410    9.4610 O.2   157  ASN157     -0.2867
     31  CB        29.5110  124.3570    8.3130 C.3   157  ASN157      0.1155
     32  CG        29.3140  123.5840    6.9800 C.2   157  ASN157      0.2627
     33  OD1       29.8890  123.8940    5.9130 O.2   157  ASN157     -0.2716
     34  ND2       28.5290  122.5280    7.0580 N.am  157  ASN157     -0.0877
     35  N         24.7040  123.7620    5.4780 N.3   194  MET194     -0.1245
     36  CA        24.2020  122.9020    6.5550 C.3   194  MET194      0.1570
     37  C         23.4410  121.6790    6.0460 C.2   194  MET194      0.2261
     38  O         23.4650  120.6160    6.6330 O.2   194  MET194     -0.2867
     39  CB        23.3140  123.8040    7.4310 C.3   194  MET194      0.0387
     40  CG        22.9220  123.2260    8.7510 C.3   194  MET194      0.0595
     41  SD        21.6340  124.1880    9.5570 S.3   194  MET194     -0.1393
     42  CE        20.7620  122.8180   10.3150 C.3   194  MET194      0.0692
     43  N         25.6010  117.9820    3.7340 N.3   197  PRO197     -0.2102
     44  CA        25.9680  116.6700    4.2130 C.3   197  PRO197      0.1504
     45  C         24.8370  115.7260    4.5760 C.2   197  PRO197      0.2575
     46  O         25.1260  114.6180    4.9920 O.2   197  PRO197     -0.2718
     47  CB        26.8130  116.9550    5.4820 C.3   197  PRO197      0.0282
     48  CG        26.5380  118.3410    5.8410 C.3   197  PRO197      0.0208
     49  CD        26.0190  119.0570    4.6460 C.3   197  PRO197      0.0893
     50  N         23.5750  116.1160    4.4070 N.am  198  ILE198     -0.1980
     51  CA        22.4970  115.3370    4.9720 C.3   198  ILE198      0.1595
     52  C         21.9640  114.4650    3.8720 C.2   198  ILE198      0.2287
     53  O         21.5270  114.9230    2.8140 O.2   198  ILE198     -0.2864
     54  CB        21.4080  116.2360    5.5760 C.3   198  ILE198      0.0276
     55  CG1       22.0020  117.0650    6.7580 C.3   198  ILE198      0.0022
     56  CG2       20.2230  115.3900    6.0520 C.3   198  ILE198      0.0022
     57  CD1       21.0090  118.0370    7.3270 C.3   198  ILE198      0.0001
     58  N         23.5010  114.3770   15.8540 N.3   258  ILE258     -0.1231
     59  CA        24.0510  113.4460   14.8250 C.3   258  ILE258      0.1692
     60  C         23.6500  113.8220   13.3900 C.2   258  ILE258      0.2593
     61  O         24.5200  113.9190   12.5230 O.2   258  ILE258     -0.2718
     62  CB        23.6600  111.9570   15.0690 C.3   258  ILE258      0.0266
     63  CG1       24.3080  111.3940   16.3460 C.3   258  ILE258      0.0019
     64  CG2       24.0500  111.0770   13.8690 C.3   258  ILE258      0.0020
     65  CD1       23.7420  110.0420   16.8070 C.3   258  ILE258      0.0001
     66  N         22.3680  114.0610   13.1250 N.am  259  SER259     -0.1938
     67  CA        21.9400  114.4140   11.7410 C.3   259  SER259      0.2055
     68  C         22.3970  115.8030   11.3280 C.2   259  SER259      0.2643
     69  O         23.0050  115.9930   10.3000 O.2   259  SER259     -0.2714
     70  CB        20.4190  114.3100   11.5840 C.3   259  SER259      0.2130
     71  OG        19.9770  113.0790   12.1360 O.3   259  SER259     -0.2179
     72  N         22.1120  116.7700   12.1680 N.am  260  VAL260     -0.1963
     73  CA        22.3320  118.1630   11.8460 C.3   260  VAL260      0.1727
     74  C         23.8450  118.6120   11.9200 C.2   260  VAL260      0.2616
     75  O         24.1890  119.6720   11.3480 O.2   260  VAL260     -0.2715
     76  CB        21.3370  118.9950   12.6990 C.3   260  VAL260      0.0290
     77  CG1       21.6250  120.4780   12.6360 C.3   260  VAL260      0.0023
     78  CG2       19.8930  118.7190   12.2500 C.3   260  VAL260      0.0023
     79  N         24.7300  117.8100   12.5760 N.am  261  LEU261     -0.1977
     80  CA        26.2190  118.0620   12.7100 C.3   261  LEU261      0.1596
     81  C         26.9980  116.9720   13.4610 C.2   261  LEU261      0.2287
     82  O         27.3270  115.9090   12.9310 O.2   261  LEU261     -0.2864
     83  CB        26.5180  119.4070   13.4070 C.3   261  LEU261      0.0297
     84  CG        26.0460  119.6660   14.8610 C.3   261  LEU261      0.0022
     85  CD1       27.2000  120.2030   15.6750 C.3   261  LEU261      0.0001
     86  CD2       24.8290  120.5880   15.0110 C.3   261  LEU261      0.0001
@<TRIPOS>BOND
     1     4     3    2
     2     1     2    1
     3     3     2    1
     4     2     5    1
     5     5     6    1
     6    53    52    2
     7     6     7    1
     8     6     8    1
     9    16    15    2
    10    43    44    1
    11    43    49    1
    12    52    51    1
    13    15    17   am
    14    15    14    1
    15    44    45    1
    16    44    47    1
    17    50    45   am
    18    50    51    1
    19    45    46    2
    20    49    48    1
    21    14    13    1
    22    51    54    1
    23    13    10    1
    24    35    36    1
    25    47    48    1
    26    54    56    1
    27    54    55    1
    28    33    32    2
    29    10     9    1
    30    10    11    1
    31    37    36    1
    32    37    38    2
    33    36    39    1
    34    55    57    1
    35    32    34   am
    36    32    31    1
    37    11    12    2
    38    11    18   am
    39    39    40    1
    40    27    28    1
    41    28    31    1
    42    28    29    1
    43    18    19    1
    44    40    41    1
    45    29    30    2
    46    41    42    1
    47    19    20    1
    48    19    22    1
    49    20    21    2
    50    69    68    2
    51    22    23    1
    52    23    24    1
    53    68    67    1
    54    68    72   am
    55    75    74    2
    56    70    67    1
    57    70    71    1
    58    67    66    1
    59    73    74    1
    60    73    72    1
    61    73    76    1
    62    74    79   am
    63    26    25    1
    64    78    76    1
    65    24    25    1
    66    61    60    2
    67    79    80    1
    68    77    76    1
    69    80    83    1
    70    80    81    1
    71    82    81    2
    72    66    60   am
    73    60    59    1
    74    83    84    1
    75    64    62    1
    76    59    62    1
    77    59    58    1
    78    84    86    1
    79    84    85    1
    80    62    63    1
    81    63    65    1
