@<TRIPOS>MOLECULE
tmp/5uniB05.pdb
 124 118 0 0 0
SMALL
GASTEIGER

@<TRIPOS>ATOM
      1  N         -7.9550  150.4400   16.9270 N.3     1  MET1       -0.1245
      2  CA        -8.0940  149.2060   16.0900 C.3     1  MET1        0.1570
      3  C         -8.3700  147.9290   16.9160 C.2     1  MET1        0.2261
      4  O         -7.6940  146.8780   16.8080 O.2     1  MET1       -0.2867
      5  CB        -6.9150  149.0490   15.1120 C.3     1  MET1        0.0387
      6  CG        -7.0370  149.8510   13.8060 C.3     1  MET1        0.0595
      7  SD        -8.5950  149.8900   12.8330 S.3     1  MET1       -0.1393
      8  CE        -9.4540  148.3400   13.1670 C.3     1  MET1        0.0692
      9  N        -11.1680  146.1320   16.3150 N.3     3  LEU3       -0.1231
     10  CA       -11.7170  145.0820   15.4510 C.3     3  LEU3        0.1693
     11  C        -10.6420  144.1650   14.8590 C.2     3  LEU3        0.2591
     12  O        -10.8430  142.9730   14.8360 O.2     3  LEU3       -0.2718
     13  CB       -12.6680  145.6580   14.3660 C.3     3  LEU3        0.0284
     14  CG       -14.0130  146.1770   14.9270 C.3     3  LEU3        0.0019
     15  CD1      -14.8950  146.8530   13.8700 C.3     3  LEU3        0.0001
     16  CD2      -14.7600  145.0550   15.6380 C.3     3  LEU3        0.0001
     17  N         -9.5140  144.7180   14.4350 N.am    4  ILE4       -0.1980
     18  CA        -8.3530  143.9300   14.0790 C.3     4  ILE4        0.1595
     19  C         -7.7950  143.1590   15.3090 C.2     4  ILE4        0.2287
     20  O         -7.4810  142.0090   15.1640 O.2     4  ILE4       -0.2864
     21  CB        -7.1990  144.7300   13.4070 C.3     4  ILE4        0.0276
     22  CG1       -7.6200  145.3250   12.0700 C.3     4  ILE4        0.0022
     23  CG2       -6.0420  143.7920   13.0560 C.3     4  ILE4        0.0022
     24  CD1       -6.5380  146.1660   11.3820 C.3     4  ILE4        0.0001
     25  N        -10.1120  140.3090   15.8120 N.3     7  ALA7       -0.1245
     26  CA        -9.9230  139.3200   14.7730 C.3     7  ALA7        0.1562
     27  C         -8.7210  138.4180   15.0300 C.2     7  ALA7        0.2260
     28  O         -8.8460  137.1690   15.0200 O.2     7  ALA7       -0.2867
     29  CB        -9.7660  140.0330   13.4520 C.3     7  ALA7        0.0290
     30  N         -9.2130  136.0340   17.7770 N.3    10  VAL10      -0.1245
     31  CA        -9.9390  134.8650   17.2920 C.3    10  VAL10       0.1561
     32  C         -9.0270  133.9100   16.4990 C.2    10  VAL10       0.2260
     33  O         -9.0700  132.6510   16.7420 O.2    10  VAL10      -0.2867
     34  CB       -11.2630  135.2890   16.5720 C.3    10  VAL10       0.0252
     35  CG1      -11.9780  134.0830   15.9090 C.3    10  VAL10       0.0019
     36  CG2      -12.1920  135.9600   17.5840 C.3    10  VAL10       0.0019
     37  N         -8.2920  129.7930   17.0920 N.3    14  LEU14      -0.1245
     38  CA        -8.4670  128.8210   16.0290 C.3    14  LEU14       0.1561
     39  C         -7.2140  128.0230   15.6560 C.2    14  LEU14       0.2260
     40  O         -7.3040  126.7910   15.3840 O.2    14  LEU14      -0.2867
     41  CB        -9.0640  129.4990   14.7850 C.3    14  LEU14       0.0270
     42  CG       -10.4650  130.1220   14.9240 C.3    14  LEU14       0.0019
     43  CD1      -10.8990  130.7890   13.6100 C.3    14  LEU14       0.0001
     44  CD2      -11.4790  129.1010   15.3430 C.3    14  LEU14       0.0001
     45  N        -10.4900  117.1740   11.4900 N.3    30  SER30      -0.1217
     46  CA       -11.1590  118.4310   11.8160 C.3    30  SER30       0.1889
     47  C        -10.1880  119.5650   12.1900 C.2    30  SER30       0.2288
     48  O        -10.5220  120.7440   12.0400 O.2    30  SER30      -0.2866
     49  CB       -12.1360  118.2150   12.9620 C.3    30  SER30       0.2089
     50  OG       -11.4530  117.9330   14.1840 O.3    30  SER30      -0.2183
     51  N         -9.0790  122.0130    9.5580 N.3    33  VAL33      -0.1231
     52  CA       -10.2160  122.8740    9.2150 C.3    33  VAL33       0.1692
     53  C        -10.3280  124.0970   10.1510 C.2    33  VAL33       0.2592
     54  O        -10.5100  125.2290    9.7050 O.2    33  VAL33      -0.2718
     55  CB       -11.5900  122.0710    9.1800 C.3    33  VAL33       0.0266
     56  CG1      -12.7760  123.0000    8.9200 C.3    33  VAL33       0.0020
     57  CG2      -11.5670  121.0060    8.0950 C.3    33  VAL33       0.0020
     58  N        -10.2720  123.8780   11.4450 N.am   34  TRP34      -0.1976
     59  CA       -10.2600  125.0320   12.4330 C.3    34  TRP34       0.1640
     60  C         -9.1110  125.9990   12.1210 C.2    34  TRP34       0.2290
     61  O         -9.2920  127.2110   12.0250 O.2    34  TRP34      -0.2864
     62  CB       -10.0370  124.5110   13.8310 C.3    34  TRP34       0.0576
     63  CG       -11.2100  123.9490   14.4820 C.ar   34  TRP34       0.0006
     64  CD1      -11.7210  122.6950   14.3280 C.ar   34  TRP34       0.0946
     65  CD2      -11.9940  124.5790   15.4850 C.ar   34  TRP34       0.0152
     66  NE1      -12.7850  122.5070   15.1460 N.ar   34  TRP34      -0.2442
     67  CE2      -12.9860  123.6420   15.8860 C.ar   34  TRP34       0.0810
     68  CE3      -11.9420  125.8280   16.1210 C.ar   34  TRP34       0.0012
     69  CZ2      -13.9560  123.9350   16.8810 C.ar   34  TRP34       0.0191
     70  CZ3      -12.9390  126.1220   17.1370 C.ar   34  TRP34       0.0001
     71  CH2      -13.9100  125.1740   17.4840 C.ar   34  TRP34       0.0015
     72  N         -9.7800  128.1750    8.8660 N.3    37  TRP37      -0.1241
     73  CA       -10.5970  129.3390    9.2100 C.3    37  TRP37       0.1605
     74  C         -9.8270  130.4190    9.8710 C.2    37  TRP37       0.2264
     75  O        -10.0520  131.5930    9.5370 O.2    37  TRP37      -0.2867
     76  CB       -11.8000  128.9300   10.0840 C.3    37  TRP37       0.0550
     77  CG       -12.8490  128.3230    9.2540 C.ar   37  TRP37       0.0003
     78  CD1      -13.3290  127.0470    9.3270 C.ar   37  TRP37       0.0946
     79  CD2      -13.5090  128.9480    8.1400 C.ar   37  TRP37       0.0152
     80  NE1      -14.2490  126.8400    8.3330 N.ar   37  TRP37      -0.2442
     81  CE2      -14.3930  127.9890    7.5940 C.ar   37  TRP37       0.0810
     82  CE3      -13.4530  130.2340    7.5680 C.ar   37  TRP37       0.0012
     83  CZ2      -15.2330  128.2720    6.4840 C.ar   37  TRP37       0.0191
     84  CZ3      -14.2880  130.5230    6.4430 C.ar   37  TRP37       0.0001
     85  CH2      -15.1630  129.5340    5.9280 C.ar   37  TRP37       0.0015
     86  N         -7.8380  132.2310    7.0350 N.3    40  VAL40      -0.1231
     87  CA        -8.7900  133.0990    6.2580 C.3    40  VAL40       0.1692
     88  C         -9.1070  134.4060    6.9960 C.2    40  VAL40       0.2591
     89  O         -9.0310  135.5070    6.4090 O.2    40  VAL40      -0.2718
     90  CB       -10.1120  132.3750    5.9720 C.3    40  VAL40       0.0266
     91  CG1      -11.1660  133.3390    5.3520 C.3    40  VAL40       0.0020
     92  CG2       -9.8750  131.2160    5.0220 C.3    40  VAL40       0.0020
     93  N         -9.4250  134.2800    8.3060 N.am   41  LEU41      -0.1980
     94  CA        -9.7700  135.4650    9.0960 C.3    41  LEU41       0.1596
     95  C         -8.5450  136.3890    9.2300 C.2    41  LEU41       0.2287
     96  O         -8.6600  137.6300    9.1960 O.2    41  LEU41      -0.2864
     97  CB       -10.3920  135.0520   10.4370 C.3    41  LEU41       0.0297
     98  CG       -10.5050  136.2120   11.4520 C.3    41  LEU41       0.0022
     99  CD1      -11.4050  137.2600   10.8430 C.3    41  LEU41       0.0001
    100  CD2      -11.0790  135.7620   12.7970 C.3    41  LEU41       0.0001
    101  N         -8.0190  138.2660    5.8310 N.3    44  LEU44      -0.1231
    102  CA        -9.1340  139.2250    5.6980 C.3    44  LEU44       0.1693
    103  C         -8.9850  140.4140    6.6210 C.2    44  LEU44       0.2591
    104  O         -9.0450  141.5620    6.1800 O.2    44  LEU44      -0.2718
    105  CB       -10.5010  138.5400    5.8570 C.3    44  LEU44       0.0284
    106  CG       -10.9750  137.6200    4.6860 C.3    44  LEU44       0.0019
    107  CD1      -12.3260  137.0090    4.9920 C.3    44  LEU44       0.0001
    108  CD2      -11.0940  138.2700    3.3010 C.3    44  LEU44       0.0001
    109  N         -8.7550  140.1740    7.9000 N.am   45  ALA45      -0.1980
    110  CA        -8.6170  141.3030    8.8350 C.3    45  ALA45       0.1597
    111  C         -7.4940  142.2610    8.4690 C.2    45  ALA45       0.2287
    112  O         -7.5590  143.4380    8.7750 O.2    45  ALA45      -0.2864
    113  CB        -8.4160  140.7870   10.2520 C.3    45  ALA45       0.0319
    114  N         -7.6070  145.7940    6.5920 N.3    48  PHE48      -0.1241
    115  CA        -8.0450  146.9660    7.3560 C.3    48  PHE48       0.1605
    116  C         -6.9680  147.6230    8.2230 C.2    48  PHE48       0.2264
    117  O         -7.2760  148.4890    9.0260 O.2    48  PHE48      -0.2867
    118  CB        -9.2320  146.5610    8.2410 C.3    48  PHE48       0.0534
    119  CG       -10.4000  146.0120    7.4760 C.ar   48  PHE48      -0.0203
    120  CD1      -10.5240  144.6510    7.2250 C.ar   48  PHE48      -0.0042
    121  CD2      -11.3780  146.8710    6.9870 C.ar   48  PHE48      -0.0042
    122  CE1      -11.6120  144.1390    6.5380 C.ar   48  PHE48      -0.0003
    123  CE2      -12.4740  146.3570    6.3070 C.ar   48  PHE48      -0.0003
    124  CZ       -12.5850  144.9870    6.0710 C.ar   48  PHE48      -0.0000
@<TRIPOS>BOND
     1   108   106    1
     2   106   107    1
     3   106   105    1
     4    92    90    1
     5    91    90    1
     6   102   101    1
     7   102   105    1
     8   102   103    1
     9    85    84   ar
    10    85    83   ar
    11    90    87    1
    12   124   123   ar
    13   124   122   ar
    14   104   103    2
    15    87    88    1
    16    87    86    1
    17   123   121   ar
    18    89    88    2
    19    84    82   ar
    20    83    81   ar
    21   122   120   ar
    22   114   115    1
    23   103   109   am
    24   121   119   ar
    25    88    93   am
    26   120   119   ar
    27   115   116    1
    28   115   118    1
    29   119   118    1
    30    82    79   ar
    31    81    79   ar
    32    81    80   ar
    33   109   110    1
    34    57    55    1
    35    79    77   ar
    36   116   117    2
    37    93    94    1
    38    80    78   ar
    39   111   112    2
    40   111   110    1
    41   110   113    1
    42    72    73    1
    43    56    55    1
    44    94    95    1
    45    94    97    1
    46    55    52    1
    47    96    95    2
    48    73    74    1
    49    73    76    1
    50    52    51    1
    51    52    53    1
    52    77    78   ar
    53    77    76    1
    54    75    74    2
    55    54    53    2
    56    53    58   am
    57    97    98    1
    58    99    98    1
    59    24    22    1
    60    58    59    1
    61    98   100    1
    62    45    46    1
    63    46    47    1
    64    46    49    1
    65    61    60    2
    66    48    47    2
    67    22    21    1
    68    60    59    1
    69    59    62    1
    70     7     8    1
    71     7     6    1
    72    49    50    1
    73    23    21    1
    74    21    18    1
    75    29    26    1
    76    43    42    1
    77     6     5    1
    78    62    63    1
    79    15    14    1
    80    18    17    1
    81    18    19    1
    82    64    63   ar
    83    64    66   ar
    84    13    14    1
    85    13    10    1
    86    17    11   am
    87    63    65   ar
    88    26    27    1
    89    26    25    1
    90    41    42    1
    91    41    38    1
    92    12    11    2
    93    11    10    1
    94    42    44    1
    95    14    16    1
    96    28    27    2
    97     5     2    1
    98    66    67   ar
    99    20    19    2
   100    40    39    2
   101    10     9    1
   102    65    67   ar
   103    65    68   ar
   104    39    38    1
   105    67    69   ar
   106    35    34    1
   107    38    37    1
   108     2     3    1
   109     2     1    1
   110    68    70   ar
   111    32    33    2
   112    32    31    1
   113    34    31    1
   114    34    36    1
   115     4     3    2
   116    69    71   ar
   117    70    71   ar
   118    31    30    1
