@<TRIPOS>MOLECULE
tmp/5unpA00.pdb
 175 165 0 0 0
SMALL
GASTEIGER

@<TRIPOS>ATOM
      1  N         -2.3390  -44.3190  -33.4040 N.3    33  LEU33      -0.1231
      2  CA        -2.9870  -43.0710  -32.9950 C.3    33  LEU33       0.1693
      3  C         -2.4170  -41.8410  -33.6840 C.2    33  LEU33       0.2593
      4  O         -3.0990  -40.8330  -33.8050 O.2    33  LEU33      -0.2718
      5  CB        -2.8650  -42.8580  -31.4920 C.3    33  LEU33       0.0284
      6  CG        -3.6580  -43.8040  -30.6030 C.3    33  LEU33       0.0019
      7  CD1       -3.4270  -43.3910  -29.1630 C.3    33  LEU33       0.0001
      8  CD2       -5.1440  -43.8250  -30.9210 C.3    33  LEU33       0.0001
      9  N         -1.1630  -41.9070  -34.1080 N.am   34  GLY34      -0.1942
     10  CA        -0.5440  -40.7720  -34.7660 C.3    34  GLY34       0.2014
     11  C          0.8350  -41.0390  -35.3120 C.2    34  GLY34       0.2639
     12  O          1.4010  -42.1100  -35.1290 O.2    34  GLY34      -0.2714
     13  N          1.3680  -40.0420  -35.9980 N.am   35  GLU35      -0.1963
     14  CA         2.7130  -40.1020  -36.5260 C.3    35  GLU35       0.1733
     15  C          3.4200  -38.8030  -36.1910 C.2    35  GLU35       0.2616
     16  O          2.7810  -37.8040  -35.8510 O.2    35  GLU35      -0.2715
     17  CB         2.6760  -40.3190  -38.0340 C.3    35  GLU35       0.0429
     18  CG         4.0470  -40.5540  -38.6460 C.3    35  GLU35       0.1163
     19  CD         3.9890  -40.9000  -40.1150 C.2    35  GLU35       0.3649
     20  OE1        3.2250  -40.2350  -40.8480 O.co2  35  GLU35      -0.2457
     21  OE2        4.7220  -41.8250  -40.5340 O.co2  35  GLU35      -0.2457
     22  N          4.7440  -38.8300  -36.2540 N.am   36  GLY36      -0.1955
     23  CA         5.5370  -37.6300  -36.0670 C.3    36  GLY36       0.1869
     24  C          6.9130  -37.7310  -36.6860 C.2    36  GLY36       0.2309
     25  O          7.2520  -38.6940  -37.3900 O.2    36  GLY36      -0.2863
     26  N          9.4660  -37.8380  -34.7260 N.3    38  PHE38      -0.1241
     27  CA        10.1000  -38.7630  -33.7920 C.3    38  PHE38       0.1605
     28  C          9.8000  -40.2230  -34.1010 C.2    38  PHE38       0.2264
     29  O         10.5660  -41.1020  -33.7280 O.2    38  PHE38      -0.2867
     30  CB         9.6080  -38.4820  -32.3820 C.3    38  PHE38       0.0534
     31  CG         8.1560  -38.7680  -32.2000 C.ar   38  PHE38      -0.0203
     32  CD1        7.2430  -37.7450  -32.2290 C.ar   38  PHE38      -0.0042
     33  CD2        7.7020  -40.0720  -32.0370 C.ar   38  PHE38      -0.0042
     34  CE1        5.9010  -37.9940  -32.0610 C.ar   38  PHE38      -0.0003
     35  CE2        6.3600  -40.3330  -31.8790 C.ar   38  PHE38      -0.0003
     36  CZ         5.4570  -39.2880  -31.8890 C.ar   38  PHE38      -0.0000
     37  N          2.9280  -42.9920  -32.5460 N.3    41  VAL41      -0.1245
     38  CA         2.2440  -43.3110  -31.2940 C.3    41  VAL41       0.1561
     39  C          1.0960  -44.2810  -31.5720 C.2    41  VAL41       0.2260
     40  O          0.1590  -43.9530  -32.3160 O.2    41  VAL41      -0.2867
     41  CB         1.6900  -42.0620  -30.5870 C.3    41  VAL41       0.0252
     42  CG1        0.8490  -42.4580  -29.3820 C.3    41  VAL41       0.0019
     43  CG2        2.8240  -41.1590  -30.1570 C.3    41  VAL41       0.0019
     44  N         -1.1150  -45.5370  -24.4720 N.3    55  ALA55      -0.1245
     45  CA        -0.5280  -44.9470  -25.6610 C.3    55  ALA55       0.1562
     46  C          0.9540  -45.1600  -25.5690 C.2    55  ALA55       0.2260
     47  O          1.5460  -44.9590  -24.5090 O.2    55  ALA55      -0.2867
     48  CB        -0.8400  -43.4590  -25.7190 C.3    55  ALA55       0.0290
     49  N          4.5100  -44.3180  -27.3490 N.3    57  LYS57      -0.1245
     50  CA         5.3860  -43.5860  -28.2420 C.3    57  LYS57       0.1561
     51  C          6.5320  -44.4850  -28.6700 C.2    57  LYS57       0.2260
     52  O          7.2830  -44.9750  -27.8570 O.2    57  LYS57      -0.2867
     53  CB         5.9130  -42.3390  -27.5390 C.3    57  LYS57       0.0271
     54  CG         6.7050  -41.4020  -28.4290 C.3    57  LYS57       0.0035
     55  CD         7.1280  -40.1770  -27.6420 C.3    57  LYS57       0.0206
     56  CE         7.5250  -39.0160  -28.5350 C.3    57  LYS57       0.1093
     57  NZ         7.4630  -37.7510  -27.7560 N.3    57  LYS57      -0.1314
     58  N         13.4740  -36.9730  -22.8860 N.3    72  GLU72      -0.1245
     59  CA        12.0340  -36.9870  -22.5580 C.3    72  GLU72       0.1567
     60  C         11.7490  -37.9090  -21.3820 C.2    72  GLU72       0.2260
     61  O         10.9930  -37.5640  -20.4670 O.2    72  GLU72      -0.2867
     62  CB        11.1490  -37.4030  -23.7490 C.3    72  GLU72       0.0388
     63  CG         9.6820  -37.5940  -23.3500 C.3    72  GLU72       0.1160
     64  CD         8.6810  -37.3170  -24.4540 C.2    72  GLU72       0.3649
     65  OE1        8.9980  -37.5790  -25.6300 O.co2  72  GLU72      -0.2457
     66  OE2        7.5590  -36.8440  -24.1330 O.co2  72  GLU72      -0.2457
     67  N          1.1000  -35.1060  -18.6330 N.3    91  VAL91      -0.1245
     68  CA         0.8060  -36.5000  -18.9290 C.3    91  VAL91       0.1561
     69  C          1.6340  -37.4080  -18.0130 C.2    91  VAL91       0.2260
     70  O          2.7130  -37.0310  -17.5380 O.2    91  VAL91      -0.2867
     71  CB         1.0490  -36.8240  -20.4330 C.3    91  VAL91       0.0252
     72  CG1        2.5370  -36.8780  -20.7750 C.3    91  VAL91       0.0019
     73  CG2        0.3680  -38.1230  -20.8320 C.3    91  VAL91       0.0019
     74  N          2.3490  -44.0630  -21.8900 N.3   107  PHE107     -0.1227
     75  CA         1.6190  -42.9640  -21.2740 C.3   107  PHE107      0.1736
     76  C          0.1680  -43.3480  -21.1490 C.2   107  PHE107      0.2595
     77  O         -0.3110  -44.1810  -21.9240 O.2   107  PHE107     -0.2718
     78  CB         1.6450  -41.7320  -22.1740 C.3   107  PHE107      0.0547
     79  CG         3.0200  -41.2000  -22.4760 C.ar  107  PHE107     -0.0202
     80  CD1        3.5680  -40.2160  -21.6890 C.ar  107  PHE107     -0.0042
     81  CD2        3.7320  -41.6500  -23.5790 C.ar  107  PHE107     -0.0042
     82  CE1        4.8120  -39.7020  -21.9770 C.ar  107  PHE107     -0.0003
     83  CE2        4.9790  -41.1400  -23.8700 C.ar  107  PHE107     -0.0003
     84  CZ         5.5200  -40.1630  -23.0670 C.ar  107  PHE107     -0.0000
     85  N         -0.5340  -42.7090  -20.2110 N.am  108  GLU108     -0.1965
     86  CA        -1.9900  -42.8560  -20.0910 C.3   108  GLU108      0.1733
     87  C         -2.6840  -42.4860  -21.4030 C.2   108  GLU108      0.2616
     88  O         -2.2430  -41.5790  -22.1100 O.2   108  GLU108     -0.2715
     89  CB        -2.5520  -41.9990  -18.9450 C.3   108  GLU108      0.0429
     90  CG        -2.4220  -40.4970  -19.1420 C.3   108  GLU108      0.1163
     91  CD        -2.7510  -39.6850  -17.8990 C.2   108  GLU108      0.3649
     92  OE1       -3.9470  -39.5700  -17.5440 O.co2 108  GLU108     -0.2457
     93  OE2       -1.8090  -39.1350  -17.2930 O.co2 108  GLU108     -0.2457
     94  N         -3.7570  -43.1970  -21.7340 N.am  109  LEU109     -0.1963
     95  CA        -4.4580  -42.9390  -22.9740 C.3   109  LEU109      0.1728
     96  C         -5.3030  -41.7220  -22.7680 C.2   109  LEU109      0.2616
     97  O         -6.0470  -41.6530  -21.7920 O.2   109  LEU109     -0.2715
     98  CB        -5.3490  -44.1020  -23.3810 C.3   109  LEU109      0.0311
     99  CG        -5.9490  -43.9850  -24.7930 C.3   109  LEU109      0.0022
    100  CD1       -4.8730  -44.1570  -25.8520 C.3   109  LEU109      0.0001
    101  CD2       -7.0480  -45.0110  -25.0100 C.3   109  LEU109      0.0001
    102  N         -5.1650  -40.7690  -23.6960 N.am  110  LEU110     -0.1963
    103  CA        -5.9090  -39.5110  -23.6890 C.3   110  LEU110      0.1728
    104  C         -6.7190  -39.3660  -24.9780 C.2   110  LEU110      0.2617
    105  O         -6.6880  -40.2440  -25.8250 O.2   110  LEU110     -0.2715
    106  CB        -4.9280  -38.3500  -23.5540 C.3   110  LEU110      0.0311
    107  CG        -4.1120  -38.3120  -22.2560 C.3   110  LEU110      0.0022
    108  CD1       -2.9630  -37.3160  -22.3660 C.3   110  LEU110      0.0001
    109  CD2       -4.9960  -37.9760  -21.0630 C.3   110  LEU110      0.0001
    110  N         -7.4480  -38.2640  -25.1230 N.am  111  GLY111     -0.1940
    111  CA        -8.2280  -38.0030  -26.3320 C.3   111  GLY111      0.2014
    112  C         -7.4440  -37.3170  -27.4410 C.2   111  GLY111      0.2639
    113  O         -6.2060  -37.3830  -27.5050 O.2   111  GLY111     -0.2714
    114  N         -8.1840  -36.6650  -28.3310 N.am  112  LEU112     -0.1963
    115  CA        -7.5900  -35.8410  -29.3780 C.3   112  LEU112      0.1728
    116  C         -6.9580  -34.5590  -28.8320 C.2   112  LEU112      0.2616
    117  O         -7.3920  -34.0300  -27.8020 O.2   112  LEU112     -0.2715
    118  CB        -8.6670  -35.4330  -30.3700 C.3   112  LEU112      0.0311
    119  CG        -9.2800  -36.5480  -31.2020 C.3   112  LEU112      0.0022
    120  CD1      -10.6430  -36.0960  -31.6950 C.3   112  LEU112      0.0001
    121  CD2       -8.3680  -36.9140  -32.3650 C.3   112  LEU112      0.0001
    122  N         -5.9610  -34.0410  -29.5470 N.am  113  SER113     -0.1950
    123  CA        -5.4030  -32.7200  -29.2270 C.3   113  SER113      0.1924
    124  C         -6.4570  -31.6280  -29.3660 C.2   113  SER113      0.2314
    125  O         -7.3850  -31.7350  -30.1760 O.2   113  SER113     -0.2863
    126  CB        -4.1860  -32.3870  -30.1110 C.3   113  SER113      0.2116
    127  OG        -4.5320  -32.2670  -31.4800 O.3   113  SER113     -0.2180
    128  N         -6.6020  -30.9160  -33.0410 N.3   116  ASP116     -0.1239
    129  CA        -7.3870  -31.8580  -33.8350 C.3   116  ASP116      0.1674
    130  C         -8.8910  -31.6300  -33.6890 C.2   116  ASP116      0.2266
    131  O         -9.6230  -31.5980  -34.6810 O.2   116  ASP116     -0.2867
    132  CB        -7.0440  -33.2970  -33.4450 C.3   116  ASP116      0.1410
    133  CG        -5.7510  -33.7870  -34.0730 C.2   116  ASP116      0.3668
    134  OD1       -5.3990  -33.3310  -35.1870 O.co2 116  ASP116     -0.2456
    135  OD2       -5.0940  -34.6480  -33.4530 O.co2 116  ASP116     -0.2456
    136  N         -1.3540  -28.8600  -30.4130 N.3   158  GLU158     -0.1231
    137  CA        -1.0700  -30.2740  -30.6950 C.3   158  GLU158      0.1699
    138  C         -0.5320  -30.9910  -29.4620 C.2   158  GLU158      0.2592
    139  O         -0.7160  -32.1980  -29.3190 O.2   158  GLU158     -0.2718
    140  CB        -0.0730  -30.4360  -31.8530 C.3   158  GLU158      0.0402
    141  CG        -0.5830  -29.9220  -33.1970 C.3   158  GLU158      0.1161
    142  CD        -0.0730  -28.5370  -33.5460 C.2   158  GLU158      0.3649
    143  OE1       -0.0960  -27.6570  -32.6650 O.co2 158  GLU158     -0.2457
    144  OE2        0.3500  -28.3240  -34.7030 O.co2 158  GLU158     -0.2457
    145  N          0.1120  -30.2450  -28.5670 N.am  159  ASN159     -0.1974
    146  CA         0.6630  -30.8160  -27.3450 C.3   159  ASN159      0.1688
    147  C         -0.2110  -30.5930  -26.1180 C.2   159  ASN159      0.2292
    148  O          0.2520  -30.6680  -24.9850 O.2   159  ASN159     -0.2864
    149  CB         2.0810  -30.3050  -27.1310 C.3   159  ASN159      0.1181
    150  CG         3.0200  -30.8060  -28.2000 C.2   159  ASN159      0.2629
    151  OD1        2.7220  -31.7850  -28.8900 O.2   159  ASN159     -0.2716
    152  ND2        4.1510  -30.1360  -28.3630 N.am  159  ASN159     -0.0877
    153  N         -3.6870  -32.2820  -24.9340 N.3   161  LEU161     -0.1245
    154  CA        -4.7040  -33.2660  -25.2670 C.3   161  LEU161      0.1561
    155  C         -5.8350  -33.2620  -24.2640 C.2   161  LEU161      0.2260
    156  O         -5.6420  -33.0290  -23.0770 O.2   161  LEU161     -0.2867
    157  CB        -4.1090  -34.6620  -25.3770 C.3   161  LEU161      0.0270
    158  CG        -2.8750  -34.8500  -26.2690 C.3   161  LEU161      0.0019
    159  CD1       -2.7900  -36.3140  -26.6720 C.3   161  LEU161      0.0001
    160  CD2       -2.8520  -33.9920  -27.5220 C.3   161  LEU161      0.0001
    161  N          1.5870  -32.7410  -23.1840 N.3   190  VAL190     -0.1231
    162  CA         2.4310  -33.8340  -23.6500 C.3   190  VAL190      0.1692
    163  C          3.6840  -33.2980  -24.3020 C.2   190  VAL190      0.2592
    164  O          3.8460  -32.0960  -24.4260 O.2   190  VAL190     -0.2718
    165  CB         1.6790  -34.7410  -24.6410 C.3   190  VAL190      0.0266
    166  CG1        0.3150  -35.1160  -24.0800 C.3   190  VAL190      0.0020
    167  CG2        1.5220  -34.0570  -25.9900 C.3   190  VAL190      0.0020
    168  N          4.5590  -34.2160  -24.7000 N.am  191  ASP191     -0.1974
    169  CA         5.8070  -33.9090  -25.4100 C.3   191  ASP191      0.1709
    170  C          6.8200  -33.1700  -24.5530 C.2   191  ASP191      0.2293
    171  O          6.7690  -31.9530  -24.4260 O.2   191  ASP191     -0.2864
    172  CB         5.5620  -33.1190  -26.6990 C.3   191  ASP191      0.1436
    173  CG         6.8010  -33.0610  -27.5910 C.2   191  ASP191      0.3671
    174  OD1        7.7920  -33.7740  -27.3150 O.co2 191  ASP191     -0.2456
    175  OD2        6.7910  -32.2950  -28.5760 O.co2 191  ASP191     -0.2456
@<TRIPOS>BOND
     1    20    19   ar
     2    21    19   ar
     3    19    18    1
     4    18    17    1
     5    17    14    1
     6    25    24    2
     7    24    23    1
     8    14    15    1
     9    14    13    1
    10    22    15   am
    11    22    23    1
    12    15    16    2
    13    13    11   am
    14    11    12    2
    15    11    10    1
    16   134   133   ar
    17    10     9    1
    18    26    27    1
    19   144   142   ar
    20   131   130    2
    21     9     3   am
    22    28    27    1
    23    28    29    2
    24   133   135   ar
    25   133   132    1
    26   129   130    1
    27   129   132    1
    28   129   128    1
    29     4     3    2
    30    27    30    1
    31     3     2    1
    32   142   141    1
    33   142   143   ar
    34     1     2    1
    35   141   140    1
    36     2     5    1
    37    37    38    1
    38    30    31    1
    39   121   119    1
    40    40    39    2
    41    32    31   ar
    42    32    34   ar
    43    31    33   ar
    44    34    36   ar
    45    33    35   ar
    46    36    35   ar
    47   140   137    1
    48   120   119    1
    49    39    38    1
    50     5     6    1
    51   127   126    1
    52    38    41    1
    53   119   118    1
    54     8     6    1
    55   137   136    1
    56   137   138    1
    57     6     7    1
    58    41    43    1
    59    41    42    1
    60   118   115    1
    61   125   124    2
    62   126   123    1
    63   122   123    1
    64   122   116   am
    65   138   139    2
    66   138   145   am
    67   115   116    1
    68   115   114    1
    69   124   123    1
    70   151   150    2
    71   116   117    2
    72    51    50    1
    73    51    52    2
    74   175   173   ar
    75   145   146    1
    76    56    57    1
    77    56    55    1
    78    54    55    1
    79    54    53    1
    80   152   150   am
    81   114   112   am
    82    50    53    1
    83    50    49    1
    84   150   149    1
    85   173   174   ar
    86   173   172    1
    87   160   158    1
    88   113   112    2
    89   112   111    1
    90   146   149    1
    91   146   147    1
    92   172   169    1
    93   159   158    1
    94   111   110    1
    95   158   157    1
    96   147   148    2
    97   167   165    1
    98   100    99    1
    99   105   104    2
   100    48    45    1
   101    45    46    1
   102    45    44    1
   103    65    64   ar
   104    46    47    2
   105   169   168    1
   106   169   170    1
   107   157   154    1
   108   154   153    1
   109   154   155    1
   110   110   104   am
   111   101    99    1
   112   104   103    1
   113    99    98    1
   114   168   163   am
   115   165   166    1
   116   165   162    1
   117   170   171    2
   118    64    66   ar
   119    64    63    1
   120   164   163    2
   121   163   162    1
   122   155   156    2
   123    83    81   ar
   124    83    84   ar
   125    62    63    1
   126    62    59    1
   127   102   103    1
   128   102    96   am
   129   103   106    1
   130   162   161    1
   131    81    79   ar
   132   106   107    1
   133    98    95    1
   134    84    82   ar
   135    95    96    1
   136    95    94    1
   137    58    59    1
   138    96    97    2
   139    59    60    1
   140    79    78    1
   141    79    80   ar
   142   108   107    1
   143   107   109    1
   144    78    75    1
   145    88    87    2
   146    82    80   ar
   147    77    76    2
   148    74    75    1
   149    94    87   am
   150    87    86    1
   151    60    61    2
   152    75    76    1
   153    76    85   am
   154    73    71    1
   155    72    71    1
   156    71    68    1
   157    85    86    1
   158    86    89    1
   159    90    89    1
   160    90    91    1
   161    68    67    1
   162    68    69    1
   163    69    70    2
   164    91    92   ar
   165    91    93   ar
