@<TRIPOS>MOLECULE
tmp/5unrA02.pdb
 185 180 0 0 0
SMALL
GASTEIGER

@<TRIPOS>ATOM
      1  N          2.7600    9.0340   34.9650 N.3    38  MET38      -0.1245
      2  CA         3.1550    8.5430   33.6260 C.3    38  MET38       0.1570
      3  C          3.2190    9.6620   32.5690 C.2    38  MET38       0.2261
      4  O          4.2000    9.7790   31.8240 O.2    38  MET38      -0.2867
      5  CB         2.2000    7.4380   33.1560 C.3    38  MET38       0.0387
      6  CG         2.6140    6.7330   31.8500 C.3    38  MET38       0.0595
      7  SD         3.7730    5.3640   32.0870 S.3    38  MET38      -0.1393
      8  CE         2.7320    4.1510   32.9090 C.3    38  MET38       0.0692
      9  N         15.4220    7.6830   28.9920 N.3   106  CYS106     -0.1235
     10  CA        16.1230    6.6790   28.1910 C.3   106  CYS106      0.1677
     11  C         17.4560    6.2850   28.7990 C.2   106  CYS106      0.2270
     12  O         18.3480    7.1200   28.9340 O.2   106  CYS106     -0.2867
     13  CB        16.3670    7.1900   26.7540 C.3   106  CYS106      0.0956
     14  SG        17.2140    5.9730   25.7410 S.3   106  CYS106     -0.0801
     15  N          4.3870    0.3630   18.1770 N.3   169  GLN169     -0.1245
     16  CA         5.7080   -0.0180   17.6820 C.3   169  GLN169      0.1566
     17  C          5.5420   -0.6330   16.2940 C.2   169  GLN169      0.2260
     18  O          4.4900   -1.2080   16.0070 O.2   169  GLN169     -0.2867
     19  CB         6.3740   -1.0380   18.6150 C.3   169  GLN169      0.0367
     20  CG         6.6820   -0.5440   20.0310 C.3   169  GLN169      0.0905
     21  CD         7.1400   -1.6730   20.9380 C.2   169  GLN169      0.2608
     22  OE1        7.8140   -2.6110   20.5010 O.2   169  GLN169     -0.2717
     23  NE2        6.7560   -1.6020   22.1990 N.am  169  GLN169     -0.0878
     24  N          4.9080   -5.5710   16.6730 N.3   172  ARG172     -0.1245
     25  CA         4.2540   -5.9970   17.9100 C.3   172  ARG172      0.1563
     26  C          3.3060   -7.1700   17.6720 C.2   172  ARG172      0.2260
     27  O          2.7740   -7.3400   16.5690 O.2   172  ARG172     -0.2867
     28  CB         3.4970   -4.8410   18.5630 C.3   172  ARG172      0.0307
     29  CG         4.3530   -3.9780   19.4660 C.3   172  ARG172      0.0489
     30  CD         3.5230   -3.0740   20.3590 C.3   172  ARG172      0.2205
     31  NE         3.5980   -3.4900   21.7560 N.pl3 172  ARG172     -0.0865
     32  CZ         3.0400   -2.8320   22.7660 C.cat 172  ARG172      0.5346
     33  NH1        2.3680   -1.7130   22.5420 N.pl3 172  ARG172      0.1354
     34  NH2        3.1610   -3.2880   24.0070 N.pl3 172  ARG172      0.1354
     35  N         13.0080   -3.2670   18.7230 N.3   256  PRO256     -0.2116
     36  CA        12.0640   -2.3740   19.3940 C.3   256  PRO256      0.1372
     37  C         12.0540   -1.0550   18.6480 C.2   256  PRO256      0.2244
     38  O         13.0690   -0.3520   18.5670 O.2   256  PRO256     -0.2868
     39  CB        12.6610   -2.2170   20.8040 C.3   256  PRO256      0.0268
     40  CG        14.1430   -2.3780   20.6180 C.3   256  PRO256      0.0207
     41  CD        14.3480   -3.2200   19.3370 C.3   256  PRO256      0.0892
     42  N          9.8020    2.2380   18.3620 N.3   258  VAL258     -0.1245
     43  CA         8.6610    2.9870   18.8660 C.3   258  VAL258      0.1561
     44  C          8.1570    3.9570   17.8240 C.2   258  VAL258      0.2260
     45  O          8.9350    4.7370   17.2800 O.2   258  VAL258     -0.2867
     46  CB         9.0170    3.7250   20.1600 C.3   258  VAL258      0.0252
     47  CG1        7.9560    4.7580   20.4900 C.3   258  VAL258      0.0019
     48  CG2        9.1250    2.7170   21.2840 C.3   258  VAL258      0.0019
     49  N          4.8330    5.7910   17.9610 N.3   260  ASN260     -0.1225
     50  CA         3.7030    6.6460   18.3250 C.3   260  ASN260      0.1785
     51  C          4.0630    7.9980   18.9500 C.2   260  ASN260      0.2597
     52  O          3.1680    8.7350   19.3650 O.2   260  ASN260     -0.2718
     53  CB         2.7370    5.8980   19.2530 C.3   260  ASN260      0.1169
     54  CG         3.3990    5.4350   20.5530 C.2   260  ASN260      0.2627
     55  OD1        4.5450    5.7770   20.8500 O.2   260  ASN260     -0.2716
     56  ND2        2.6670    4.6510   21.3330 N.am  260  ASN260     -0.0877
     57  N          5.3520    8.3210   19.0270 N.am  261  MET261     -0.1979
     58  CA         5.7610    9.5800   19.6370 C.3   261  MET261      0.1605
     59  C          5.8490   10.7250   18.6320 C.2   261  MET261      0.2287
     60  O          5.8200   10.5060   17.4190 O.2   261  MET261     -0.2864
     61  CB         7.0720    9.4080   20.3920 C.3   261  MET261      0.0413
     62  CG         6.9390    8.4010   21.5270 C.3   261  MET261      0.0598
     63  SD         8.2560    8.4960   22.7350 S.3   261  MET261     -0.1393
     64  CE         7.6840    9.9450   23.6430 C.3   261  MET261      0.0692
     65  N         11.3080    5.4000   15.5860 N.3   275  PHE275     -0.1227
     66  CA        12.7190    5.1830   15.8960 C.3   275  PHE275      0.1736
     67  C         12.9710    3.8510   16.5870 C.2   275  PHE275      0.2596
     68  O         12.0590    3.2340   17.1330 O.2   275  PHE275     -0.2718
     69  CB        13.2820    6.3270   16.7190 C.3   275  PHE275      0.0547
     70  CG        12.4750    6.6450   17.9440 C.ar  275  PHE275     -0.0202
     71  CD1       12.6470    5.9190   19.1220 C.ar  275  PHE275     -0.0042
     72  CD2       11.5510    7.6800   17.9180 C.ar  275  PHE275     -0.0042
     73  CE1       11.9130    6.2300   20.2830 C.ar  275  PHE275     -0.0003
     74  CE2       10.8060    7.9910   19.0610 C.ar  275  PHE275     -0.0003
     75  CZ        10.9900    7.2620   20.2430 C.ar  275  PHE275     -0.0000
     76  N         14.2220    3.4120   16.5720 N.am  276  SER276     -0.1938
     77  CA        14.5160    2.0710   17.0160 C.3   276  SER276      0.2055
     78  C         15.9600    2.0230   17.4450 C.2   276  SER276      0.2644
     79  O         16.7820    2.7920   16.9490 O.2   276  SER276     -0.2714
     80  CB        14.2470    1.0600   15.8930 C.3   276  SER276      0.2130
     81  OG        15.1780    1.1890   14.8290 O.3   276  SER276     -0.2179
     82  N         16.2410    1.1740   18.4260 N.am  277  GLY277     -0.1939
     83  CA        17.5980    0.8760   18.8270 C.3   277  GLY277      0.2014
     84  C         17.6320   -0.6250   19.0010 C.2   277  GLY277      0.2639
     85  O         17.3370   -1.3640   18.0550 O.2   277  GLY277     -0.2714
     86  N         17.9680   -1.0830   20.2040 N.am  278  TRP278     -0.1959
     87  CA        17.9500   -2.5080   20.5080 C.3   278  TRP278      0.1771
     88  C         17.5400   -2.7000   21.9800 C.2   278  TRP278      0.2620
     89  O         17.6170   -1.7630   22.7770 O.2   278  TRP278     -0.2715
     90  CB        19.3160   -3.1380   20.2470 C.3   278  TRP278      0.0590
     91  CG        20.4120   -2.4650   20.9880 C.ar  278  TRP278      0.0006
     92  CD1       20.7140   -2.6010   22.3210 C.ar  278  TRP278      0.0946
     93  CD2       21.3550   -1.5330   20.4550 C.ar  278  TRP278      0.0152
     94  NE1       21.7920   -1.8110   22.6390 N.ar  278  TRP278     -0.2442
     95  CE2       22.2040   -1.1430   21.5120 C.ar  278  TRP278      0.0810
     96  CE3       21.5680   -0.9910   19.1840 C.ar  278  TRP278      0.0012
     97  CZ2       23.2510   -0.2340   21.3310 C.ar  278  TRP278      0.0191
     98  CZ3       22.6000   -0.0900   19.0090 C.ar  278  TRP278      0.0001
     99  CH2       23.4320    0.2760   20.0730 C.ar  278  TRP278      0.0015
    100  N         17.1200   -3.9100   22.3260 N.am  279  TYR279     -0.1960
    101  CA        16.5080   -4.1710   23.6330 C.3   279  TYR279      0.1771
    102  C         17.4800   -4.2350   24.8020 C.2   279  TYR279      0.2619
    103  O         18.6070   -4.7330   24.6790 O.2   279  TYR279     -0.2715
    104  CB        15.7590   -5.5020   23.5970 C.3   279  TYR279      0.0574
    105  CG        14.3080   -5.4130   23.2140 C.ar  279  TYR279     -0.0198
    106  CD1       13.8460   -6.0200   22.0440 C.ar  279  TYR279     -0.0009
    107  CD2       13.3890   -4.7440   24.0210 C.ar  279  TYR279     -0.0009
    108  CE1       12.5170   -5.9610   21.6880 C.ar  279  TYR279      0.0417
    109  CE2       12.0530   -4.6730   23.6690 C.ar  279  TYR279      0.0417
    110  CZ        11.6300   -5.2810   22.4900 C.ar  279  TYR279      0.1957
    111  OH        10.3110   -5.2250   22.1200 O.3   279  TYR279     -0.2866
    112  N         17.0180   -3.7470   25.9490 N.am  280  MET280     -0.1977
    113  CA        17.5630   -4.1750   27.2270 C.3   280  MET280      0.1605
    114  C         16.7230   -5.3790   27.6020 C.2   280  MET280      0.2287
    115  O         15.5050   -5.3540   27.4200 O.2   280  MET280     -0.2864
    116  CB        17.4150   -3.0680   28.2760 C.3   280  MET280      0.0413
    117  CG        18.0780   -3.4190   29.6090 C.3   280  MET280      0.0598
    118  SD        18.2460   -1.9570   30.6490 S.3   280  MET280     -0.1393
    119  CE        16.5130   -1.6560   31.0080 C.3   280  MET280      0.0692
    120  N         13.1170   -5.3670   29.4230 N.3   283  GLU283     -0.1245
    121  CA        11.9420   -4.8690   28.7290 C.3   283  GLU283      0.1567
    122  C         11.0540   -6.0210   28.2790 C.2   283  GLU283      0.2260
    123  O          9.8320   -5.9470   28.3620 O.2   283  GLU283     -0.2867
    124  CB        12.3490   -4.0760   27.4890 C.3   283  GLU283      0.0388
    125  CG        13.0290   -2.7510   27.7950 C.3   283  GLU283      0.1160
    126  CD        13.3900   -2.0020   26.5310 C.2   283  GLU283      0.3649
    127  OE1       12.5320   -1.2430   26.0410 O.co2 283  GLU283     -0.2457
    128  OE2       14.5280   -2.1760   26.0430 O.co2 283  GLU283     -0.2457
    129  N          8.9190   -6.9610   31.9100 N.3   287  ARG287     -0.1245
    130  CA         7.6900   -6.2440   31.5990 C.3   287  ARG287      0.1563
    131  C          6.8040   -7.0140   30.6240 C.2   287  ARG287      0.2260
    132  O          5.7000   -7.4210   30.9910 O.2   287  ARG287     -0.2867
    133  CB         7.9990   -4.8340   31.0790 C.3   287  ARG287      0.0307
    134  CG         8.8050   -3.9620   32.0660 C.3   287  ARG287      0.0489
    135  CD         8.1240   -3.8380   33.4570 C.3   287  ARG287      0.2205
    136  NE         6.7410   -3.3740   33.3440 N.pl3 287  ARG287     -0.0865
    137  CZ         6.3900   -2.1410   32.9730 C.cat 287  ARG287      0.5346
    138  NH1        7.3170   -1.2310   32.6920 N.pl3 287  ARG287      0.1354
    139  NH2        5.1080   -1.8090   32.8850 N.pl3 287  ARG287      0.1354
    140  N          0.0190   -8.1170   30.8400 N.3   294  ARG294     -0.1245
    141  CA         0.6990   -8.5010   29.6000 C.3   294  ARG294      0.1563
    142  C          0.6940  -10.0330   29.4400 C.2   294  ARG294      0.2260
    143  O         -0.3590  -10.6550   29.5520 O.2   294  ARG294     -0.2867
    144  CB         2.1160   -7.9170   29.5520 C.3   294  ARG294      0.0307
    145  CG         2.1890   -6.3870   29.5900 C.3   294  ARG294      0.0489
    146  CD         1.6900   -5.7300   28.3070 C.3   294  ARG294      0.2205
    147  NE         2.4180   -6.1720   27.1130 N.pl3 294  ARG294     -0.0865
    148  CZ         3.6060   -5.6990   26.7330 C.cat 294  ARG294      0.5346
    149  NH1        4.2200   -4.7740   27.4560 N.pl3 294  ARG294      0.1354
    150  NH2        4.1900   -6.1510   25.6270 N.pl3 294  ARG294      0.1354
    151  N         12.0960    5.9300   35.6340 N.3   369  TRP369     -0.1241
    152  CA        12.2230    5.1460   34.4090 C.3   369  TRP369      0.1605
    153  C         13.6050    4.5400   34.1970 C.2   369  TRP369      0.2264
    154  O         13.7320    3.4820   33.5710 O.2   369  TRP369     -0.2867
    155  CB        11.8250    6.0040   33.2050 C.3   369  TRP369      0.0550
    156  CG        10.3510    6.0710   33.0630 C.ar  369  TRP369      0.0003
    157  CD1        9.4570    6.6070   33.9570 C.ar  369  TRP369      0.0946
    158  CD2        9.5780    5.5640   31.9720 C.ar  369  TRP369      0.0152
    159  NE1        8.1760    6.4610   33.4770 N.ar  369  TRP369     -0.2442
    160  CE2        8.2250    5.8320   32.2570 C.ar  369  TRP369      0.0810
    161  CE3        9.9010    4.9190   30.7730 C.ar  369  TRP369      0.0012
    162  CZ2        7.1950    5.4720   31.3850 C.ar  369  TRP369      0.0191
    163  CZ3        8.8790    4.5630   29.9100 C.ar  369  TRP369      0.0001
    164  CH2        7.5440    4.8390   30.2210 C.ar  369  TRP369      0.0015
    165  N          4.8710   12.6240   24.0560 N.3   397  TYR397     -0.1227
    166  CA         3.6760   11.8080   23.9050 C.3   397  TYR397      0.1736
    167  C          2.7080   12.5900   23.0270 C.2   397  TYR397      0.2595
    168  O          2.7580   13.8240   22.9930 O.2   397  TYR397     -0.2718
    169  CB         3.0360   11.5430   25.2730 C.3   397  TYR397      0.0548
    170  CG         3.7290   10.4730   26.0980 C.ar  397  TYR397     -0.0200
    171  CD1        5.0420   10.6360   26.5320 C.ar  397  TYR397     -0.0009
    172  CD2        3.0620    9.3100   26.4610 C.ar  397  TYR397     -0.0009
    173  CE1        5.6750    9.6650   27.2840 C.ar  397  TYR397      0.0417
    174  CE2        3.6860    8.3340   27.2150 C.ar  397  TYR397      0.0417
    175  CZ         4.9920    8.5180   27.6240 C.ar  397  TYR397      0.1957
    176  OH         5.6200    7.5490   28.3720 O.3   397  TYR397     -0.2866
    177  N          1.8340   11.8840   22.3150 N.am  398  GLN398     -0.1979
    178  CA         0.7810   12.5230   21.5220 C.3   398  GLN398      0.1601
    179  C         -0.4540   11.6230   21.6030 C.2   398  GLN398      0.2287
    180  O         -0.3230   10.4250   21.8600 O.2   398  GLN398     -0.2864
    181  CB         1.2310   12.7540   20.0550 C.3   398  GLN398      0.0394
    182  CG         1.4840   11.4910   19.2330 C.3   398  GLN398      0.0908
    183  CD         2.0110   11.7900   17.8100 C.2   398  GLN398      0.2608
    184  OE1        1.6860   12.8080   17.2110 O.2   398  GLN398     -0.2717
    185  NE2        2.8310   10.8950   17.2870 N.am  398  GLN398     -0.0878
@<TRIPOS>BOND
     1    81    80    1
     2    65    66    1
     3    80    77    1
     4    66    67    1
     5    66    69    1
     6    18    17    2
     7    17    16    1
     8    27    26    2
     9    76    67   am
    10    76    77    1
    11    67    68    2
    12    24    25    1
    13    69    70    1
    14    79    78    2
    15    77    78    1
    16   184   183    2
    17    45    44    2
    18   185   183   am
    19    60    59    2
    20    78    82   am
    21    26    25    1
    22    16    15    1
    23    16    19    1
    24   183   182    1
    25    44    43    1
    26    25    28    1
    27    72    70   ar
    28    72    74   ar
    29    70    71   ar
    30    49    50    1
    31    85    84    2
    32    50    51    1
    33    50    53    1
    34    42    43    1
    35    82    83    1
    36    28    29    1
    37    38    37    2
    38    19    20    1
    39    59    58    1
    40    37    36    1
    41    35    41    1
    42    35    36    1
    43    83    84    1
    44    43    46    1
    45    51    57   am
    46    51    52    2
    47    84    86   am
    48    98    96   ar
    49    98    99   ar
    50    57    58    1
    51    74    75   ar
    52    71    73   ar
    53    96    93   ar
    54   182   181    1
    55    53    54    1
    56    41    40    1
    57    36    39    1
    58    29    30    1
    59    58    61    1
    60    20    21    1
    61   181   178    1
    62    99    97   ar
    63    46    47    1
    64    46    48    1
    65    86    87    1
    66    75    73   ar
    67    90    87    1
    68    90    91    1
    69    30    31    1
    70    61    62    1
    71    93    91   ar
    72    93    95   ar
    73    22    21    2
    74    87    88    1
    75    54    55    2
    76    54    56   am
    77    40    39    1
    78    21    23   am
    79    91    92   ar
    80    97    95   ar
    81    95    94   ar
    82   178   179    1
    83   178   177    1
    84    62    63    1
    85   179   180    2
    86   108   106   ar
    87   108   110   ar
    88    31    32    2
    89    88   100   am
    90    88    89    2
    91   106   105   ar
    92   111   110    1
    93   177   167   am
    94    92    94   ar
    95   100   101    1
    96   110   109   ar
    97    33    32    1
    98    63    64    1
    99    32    34    1
   100   168   167    2
   101   167   166    1
   102   105   104    1
   103   105   107   ar
   104   104   101    1
   105   101   102    1
   106   109   107   ar
   107   166   165    1
   108   166   169    1
   109   103   102    2
   110   102   112   am
   111   169   170    1
   112   150   148    1
   113    14    13    1
   114   112   113    1
   115   127   126   ar
   116   128   126   ar
   117   170   172   ar
   118   170   171   ar
   119   172   174   ar
   120   126   125    1
   121   171   173   ar
   122   148   147    2
   123   148   149    1
   124    13    10    1
   125   147   146    1
   126   174   175   ar
   127   113   114    1
   128   113   116    1
   129   173   175   ar
   130   115   114    2
   131   124   125    1
   132   124   121    1
   133   175   176    1
   134    10    11    1
   135    10     9    1
   136   116   117    1
   137   122   123    2
   138   122   121    1
   139   146   145    1
   140   121   120    1
   141    11    12    2
   142   142   143    2
   143   142   141    1
   144   144   145    1
   145   144   141    1
   146   141   140    1
   147   117   118    1
   148   163   164   ar
   149   163   161   ar
   150   164   162   ar
   151   131   132    2
   152   131   130    1
   153   118   119    1
   154   161   158   ar
   155   133   130    1
   156   133   134    1
   157   162   160   ar
   158   130   129    1
   159     4     3    2
   160     6     7    1
   161     6     5    1
   162   158   160   ar
   163   158   156   ar
   164   134   135    1
   165     7     8    1
   166   160   159   ar
   167     3     2    1
   168   138   137    1
   169   139   137    1
   170   137   136    2
   171   156   155    1
   172   156   157   ar
   173     5     2    1
   174   155   152    1
   175   136   135    1
   176   159   157   ar
   177   154   153    2
   178     2     1    1
   179   153   152    1
   180   152   151    1
