@<TRIPOS>MOLECULE
tmp/5unwA02.pdb
 206 202 0 0 0
SMALL
GASTEIGER

@<TRIPOS>ATOM
      1  N          2.5600    8.8490   34.6510 N.3    38  MET38      -0.1230
      2  CA         2.9340    8.3400   33.3270 C.3    38  MET38       0.1702
      3  C          3.0210    9.4780   32.3080 C.2    38  MET38       0.2592
      4  O          3.9550    9.5210   31.5060 O.2    38  MET38      -0.2718
      5  CB         1.9350    7.2790   32.8520 C.3    38  MET38       0.0401
      6  CG         2.2540    6.6580   31.4900 C.3    38  MET38       0.0596
      7  SD         3.3910    5.2530   31.5620 S.3    38  MET38      -0.1393
      8  CE         2.4560    4.0670   32.5350 C.3    38  MET38       0.0692
      9  N          2.0660   10.4060   32.3530 N.am   39  LEU39      -0.1980
     10  CA         2.0610   11.5140   31.4050 C.3    39  LEU39       0.1596
     11  C          1.2750   12.7360   31.8670 C.2    39  LEU39       0.2287
     12  O          0.0470   12.7210   31.8910 O.2    39  LEU39      -0.2864
     13  CB         1.5150   11.0380   30.0530 C.3    39  LEU39       0.0297
     14  CG         0.5830    9.8170   30.0170 C.3    39  LEU39       0.0022
     15  CD1       -0.8510   10.2030   30.3560 C.3    39  LEU39       0.0001
     16  CD2        0.6690    9.0900   28.6600 C.3    39  LEU39       0.0001
     17  N         16.7320   12.4860   21.0390 N.3   103  TRP103     -0.1241
     18  CA        17.1030   11.2630   21.7450 C.3   103  TRP103      0.1605
     19  C         17.9610   11.5960   22.9740 C.2   103  TRP103      0.2264
     20  O         17.6880   11.1200   24.0600 O.2   103  TRP103     -0.2867
     21  CB        17.8440   10.3230   20.8100 C.3   103  TRP103      0.0550
     22  CG        18.1910    9.0060   21.3860 C.ar  103  TRP103      0.0003
     23  CD1       17.7970    8.4930   22.5940 C.ar  103  TRP103      0.0946
     24  CD2       19.0180    8.0070   20.7740 C.ar  103  TRP103      0.0152
     25  NE1       18.3360    7.2400   22.7700 N.ar  103  TRP103     -0.2442
     26  CE2       19.0930    6.9180   21.6690 C.ar  103  TRP103      0.0810
     27  CE3       19.7070    7.9290   19.5520 C.ar  103  TRP103      0.0012
     28  CZ2       19.8310    5.7550   21.3810 C.ar  103  TRP103      0.0191
     29  CZ3       20.4370    6.7730   19.2630 C.ar  103  TRP103      0.0001
     30  CH2       20.4930    5.7040   20.1720 C.ar  103  TRP103      0.0015
     31  N         15.1750    7.5980   28.8160 N.3   109  CYS109     -0.1235
     32  CA        15.8440    6.5600   28.0250 C.3   109  CYS109      0.1677
     33  C         17.1980    6.2350   28.6260 C.2   109  CYS109      0.2270
     34  O         18.0320    7.1240   28.8200 O.2   109  CYS109     -0.2867
     35  CB        16.0020    6.9900   26.5480 C.3   109  CYS109      0.0956
     36  SG        17.0580    5.8630   25.5530 S.3   109  CYS109     -0.0801
     37  N          4.2370    0.2660   18.1200 N.3   172  GLN172     -0.1245
     38  CA         5.5600   -0.0970   17.6320 C.3   172  GLN172      0.1566
     39  C          5.4140   -0.6530   16.2140 C.2   172  GLN172      0.2260
     40  O          4.3590   -1.1970   15.8680 O.2   172  GLN172     -0.2867
     41  CB         6.2320   -1.1090   18.5670 C.3   172  GLN172      0.0367
     42  CG         6.6590   -0.5080   19.9190 C.3   172  GLN172      0.0905
     43  CD         6.7760   -1.5450   21.0290 C.2   172  GLN172      0.2608
     44  OE1        5.8040   -1.8330   21.7340 O.2   172  GLN172     -0.2717
     45  NE2        7.9660   -2.1090   21.1870 N.am  172  GLN172     -0.0878
     46  N          4.8080   -5.6020   16.6100 N.3   175  ARG175     -0.1245
     47  CA         4.1930   -6.0970   17.8480 C.3   175  ARG175      0.1563
     48  C          3.2610   -7.2640   17.5710 C.2   175  ARG175      0.2260
     49  O          2.6460   -7.3270   16.5110 O.2   175  ARG175     -0.2867
     50  CB         3.4130   -4.9960   18.5620 C.3   175  ARG175      0.0307
     51  CG         4.2720   -3.9750   19.2500 C.3   175  ARG175      0.0489
     52  CD         3.4710   -3.1800   20.2500 C.3   175  ARG175      0.2205
     53  NE         3.4620   -3.8300   21.5500 N.pl3 175  ARG175     -0.0865
     54  CZ         3.0620   -3.2390   22.6720 C.cat 175  ARG175      0.5346
     55  NH1        2.6450   -1.9800   22.6550 N.pl3 175  ARG175      0.1354
     56  NH2        3.0800   -3.9080   23.8150 N.pl3 175  ARG175      0.1354
     57  N         12.9950   -3.3440   18.5770 N.3   259  PRO259     -0.2116
     58  CA        12.0710   -2.4260   19.2480 C.3   259  PRO259      0.1372
     59  C         12.0210   -1.1140   18.4860 C.2   259  PRO259      0.2244
     60  O         13.0300   -0.4150   18.3440 O.2   259  PRO259     -0.2868
     61  CB        12.6880   -2.2400   20.6450 C.3   259  PRO259      0.0268
     62  CG        14.1800   -2.4260   20.4200 C.3   259  PRO259      0.0207
     63  CD        14.3270   -3.3740   19.2060 C.3   259  PRO259      0.0892
     64  N          9.6590    2.2510   18.0940 N.3   261  VAL261     -0.1245
     65  CA         8.5180    2.9600   18.6350 C.3   261  VAL261      0.1561
     66  C          7.9950    3.9410   17.6260 C.2   261  VAL261      0.2260
     67  O          8.7540    4.7180   17.0770 O.2   261  VAL261     -0.2867
     68  CB         8.8870    3.6740   19.9430 C.3   261  VAL261      0.0252
     69  CG1        7.8410    4.7310   20.3170 C.3   261  VAL261      0.0019
     70  CG2        8.9850    2.6480   20.9990 C.3   261  VAL261      0.0019
     71  N          4.6640    5.7250   17.7970 N.3   263  ASN263     -0.1225
     72  CA         3.5190    6.5860   18.0970 C.3   263  ASN263      0.1785
     73  C          3.8940    7.9140   18.7350 C.2   263  ASN263      0.2597
     74  O          3.0150    8.6320   19.1920 O.2   263  ASN263     -0.2718
     75  CB         2.5100    5.8750   19.0030 C.3   263  ASN263      0.1169
     76  CG         3.1240    5.3850   20.2960 C.2   263  ASN263      0.2627
     77  OD1        4.3120    5.5870   20.5580 O.2   263  ASN263     -0.2716
     78  ND2        2.3170    4.7160   21.1060 N.am  263  ASN263     -0.0877
     79  N          5.1760    8.2590   18.7650 N.am  264  MET264     -0.1979
     80  CA         5.5430    9.5110   19.4160 C.3   264  MET264      0.1605
     81  C          5.7360   10.6560   18.4230 C.2   264  MET264      0.2287
     82  O          5.8390   10.4470   17.2310 O.2   264  MET264     -0.2864
     83  CB         6.7920    9.3160   20.2690 C.3   264  MET264      0.0413
     84  CG         6.5930    8.2280   21.3020 C.3   264  MET264      0.0598
     85  SD         7.8160    8.2860   22.5980 S.3   264  MET264     -0.1393
     86  CE         7.3180    9.8110   23.3780 C.3   264  MET264      0.0692
     87  N         11.0870    5.2840   15.4120 N.3   278  PHE278     -0.1227
     88  CA        12.5070    5.1550   15.7250 C.3   278  PHE278      0.1736
     89  C         12.7640    3.8670   16.4820 C.2   278  PHE278      0.2596
     90  O         11.8720    3.2880   17.1020 O.2   278  PHE278     -0.2718
     91  CB        13.0070    6.3620   16.5200 C.3   278  PHE278      0.0547
     92  CG        12.1980    6.6550   17.7530 C.ar  278  PHE278     -0.0202
     93  CD1       12.4700    6.0040   18.9460 C.ar  278  PHE278     -0.0042
     94  CD2       11.1680    7.5800   17.7190 C.ar  278  PHE278     -0.0042
     95  CE1       11.7410    6.2920   20.1110 C.ar  278  PHE278     -0.0003
     96  CE2       10.4220    7.8520   18.8550 C.ar  278  PHE278     -0.0003
     97  CZ        10.7150    7.2050   20.0620 C.ar  278  PHE278     -0.0000
     98  N         14.0000    3.4150   16.4380 N.am  279  SER279     -0.1938
     99  CA        14.2710    2.0740   16.8660 C.3   279  SER279      0.2055
    100  C         15.7060    2.0060   17.3050 C.2   279  SER279      0.2644
    101  O         16.5330    2.8110   16.8760 O.2   279  SER279     -0.2714
    102  CB        13.9940    1.0660   15.7280 C.3   279  SER279      0.2130
    103  OG        14.9300    1.1990   14.6640 O.3   279  SER279     -0.2179
    104  N         15.9850    1.0630   18.1970 N.am  280  GLY280     -0.1939
    105  CA        17.3330    0.8280   18.6590 C.3   280  GLY280      0.2014
    106  C         17.4690   -0.6630   18.8000 C.2   280  GLY280      0.2639
    107  O         17.3300   -1.4100   17.8330 O.2   280  GLY280     -0.2714
    108  N         17.7460   -1.1000   20.0190 N.am  281  TRP281     -0.1959
    109  CA        17.7740   -2.5100   20.3500 C.3   281  TRP281      0.1771
    110  C         17.3550   -2.6780   21.8290 C.2   281  TRP281      0.2620
    111  O         17.3890   -1.7220   22.6180 O.2   281  TRP281     -0.2715
    112  CB        19.1590   -3.0950   20.0860 C.3   281  TRP281      0.0590
    113  CG        20.2480   -2.4010   20.8390 C.ar  281  TRP281      0.0006
    114  CD1       20.5560   -2.5470   22.1710 C.ar  281  TRP281      0.0946
    115  CD2       21.1780   -1.4470   20.3160 C.ar  281  TRP281      0.0152
    116  NE1       21.6230   -1.7450   22.4990 N.ar  281  TRP281     -0.2442
    117  CE2       22.0200   -1.0550   21.3820 C.ar  281  TRP281      0.0810
    118  CE3       21.3810   -0.8840   19.0500 C.ar  281  TRP281      0.0012
    119  CZ2       23.0500   -0.1290   21.2130 C.ar  281  TRP281      0.0191
    120  CZ3       22.4050    0.0350   18.8850 C.ar  281  TRP281      0.0001
    121  CH2       23.2290    0.3990   19.9570 C.ar  281  TRP281      0.0015
    122  N         16.9510   -3.8900   22.1860 N.am  282  TYR282     -0.1960
    123  CA        16.3200   -4.1360   23.4770 C.3   282  TYR282      0.1771
    124  C         17.3030   -4.2150   24.6440 C.2   282  TYR282      0.2619
    125  O         18.4320   -4.7170   24.5180 O.2   282  TYR282     -0.2715
    126  CB        15.5370   -5.4400   23.4330 C.3   282  TYR282      0.0574
    127  CG        14.0910   -5.3600   23.0140 C.ar  282  TYR282     -0.0198
    128  CD1       13.6280   -6.0820   21.9180 C.ar  282  TYR282     -0.0009
    129  CD2       13.1740   -4.6260   23.7440 C.ar  282  TYR282     -0.0009
    130  CE1       12.2970   -6.0550   21.5540 C.ar  282  TYR282      0.0417
    131  CE2       11.8400   -4.5880   23.3820 C.ar  282  TYR282      0.0417
    132  CZ        11.4130   -5.2990   22.2770 C.ar  282  TYR282      0.1957
    133  OH        10.0870   -5.2750   21.9160 O.3   282  TYR282     -0.2866
    134  N         16.8550   -3.7300   25.7950 N.am  283  MET283     -0.1977
    135  CA        17.4700   -4.1380   27.0460 C.3   283  MET283      0.1605
    136  C         16.7160   -5.3980   27.4230 C.2   283  MET283      0.2287
    137  O         15.4900   -5.4500   27.2770 O.2   283  MET283     -0.2864
    138  CB        17.3620   -3.0370   28.1040 C.3   283  MET283      0.0413
    139  CG        17.9900   -3.4130   29.4390 C.3   283  MET283      0.0598
    140  SD        18.1130   -1.9770   30.5030 S.3   283  MET283     -0.1393
    141  CE        16.3830   -1.7840   30.9240 C.3   283  MET283      0.0692
    142  N         13.1170   -5.4580   29.1830 N.3   286  GLU286     -0.1245
    143  CA        11.9520   -4.9940   28.4290 C.3   286  GLU286      0.1567
    144  C         11.0720   -6.1210   27.9270 C.2   286  GLU286      0.2260
    145  O          9.8530   -5.9990   27.9340 O.2   286  GLU286     -0.2867
    146  CB        12.3870   -4.1480   27.2500 C.3   286  GLU286      0.0388
    147  CG        12.7830   -2.7650   27.6820 C.3   286  GLU286      0.1160
    148  CD        13.1020   -1.8730   26.5140 C.2   286  GLU286      0.3649
    149  OE1       12.1870   -1.1400   26.0850 O.co2 286  GLU286     -0.2457
    150  OE2       14.2570   -1.9160   26.0350 O.co2 286  GLU286     -0.2457
    151  N          8.9030   -7.2930   31.6220 N.3   290  ARG290     -0.1231
    152  CA         7.6930   -6.5450   31.2960 C.3   290  ARG290      0.1694
    153  C          6.7900   -7.2920   30.3060 C.2   290  ARG290      0.2592
    154  O          5.6360   -7.5950   30.6250 O.2   290  ARG290     -0.2718
    155  CB         8.0530   -5.1610   30.7320 C.3   290  ARG290      0.0321
    156  CG         8.9140   -4.2580   31.6360 C.3   290  ARG290      0.0489
    157  CD         8.3390   -4.1040   33.0710 C.3   290  ARG290      0.2205
    158  NE         6.9300   -3.7160   33.0520 N.pl3 290  ARG290     -0.0865
    159  CZ         6.4970   -2.4900   32.7580 C.cat 290  ARG290      0.5346
    160  NH1        7.3650   -1.5200   32.4750 N.pl3 290  ARG290      0.1354
    161  NH2        5.1930   -2.2350   32.7550 N.pl3 290  ARG290      0.1354
    162  N          7.3190   -7.5830   29.1140 N.am  291  ASP291     -0.1974
    163  CA         6.5440   -8.2130   28.0330 C.3   291  ASP291      0.1709
    164  C          6.0510   -9.6370   28.3530 C.2   291  ASP291      0.2293
    165  O          5.0530  -10.0810   27.7940 O.2   291  ASP291     -0.2864
    166  CB         7.3670   -8.2430   26.7300 C.3   291  ASP291      0.1436
    167  CG         7.6530   -6.8460   26.1700 C.2   291  ASP291      0.3671
    168  OD1        6.8290   -5.9250   26.3650 O.co2 291  ASP291     -0.2456
    169  OD2        8.7120   -6.6680   25.5300 O.co2 291  ASP291     -0.2456
    170  N         -0.0390   -8.4050   30.5830 N.3   297  ARG297     -0.1245
    171  CA         0.7020   -8.8230   29.3880 C.3   297  ARG297      0.1563
    172  C          0.7250  -10.3560   29.2900 C.2   297  ARG297      0.2260
    173  O         -0.2620  -11.0030   29.6330 O.2   297  ARG297     -0.2867
    174  CB         2.1270   -8.2610   29.4070 C.3   297  ARG297      0.0307
    175  CG         2.2120   -6.7380   29.4720 C.3   297  ARG297      0.0489
    176  CD         1.7080   -6.0750   28.2030 C.3   297  ARG297      0.2205
    177  NE         2.4640   -6.4860   27.0180 N.pl3 297  ARG297     -0.0865
    178  CZ         3.6500   -5.9880   26.6740 C.cat 297  ARG297      0.5346
    179  NH1        4.2250   -5.0550   27.4220 N.pl3 297  ARG297      0.1354
    180  NH2        4.2650   -6.4240   25.5780 N.pl3 297  ARG297      0.1354
    181  N         12.1140    5.8060   35.4700 N.3   372  TRP372     -0.1241
    182  CA        12.1800    5.0080   34.2470 C.3   372  TRP372      0.1605
    183  C         13.5680    4.4340   33.9650 C.2   372  TRP372      0.2264
    184  O         13.6880    3.3930   33.3350 O.2   372  TRP372     -0.2867
    185  CB        11.6950    5.8450   33.0650 C.3   372  TRP372      0.0550
    186  CG        10.2030    5.9890   33.0570 C.ar  372  TRP372      0.0003
    187  CD1        9.4210    6.5850   34.0110 C.ar  372  TRP372      0.0946
    188  CD2        9.3130    5.5300   32.0370 C.ar  372  TRP372      0.0152
    189  NE1        8.0960    6.5190   33.6430 N.ar  372  TRP372     -0.2442
    190  CE2        8.0050    5.8710   32.4360 C.ar  372  TRP372      0.0810
    191  CE3        9.4970    4.8660   30.8140 C.ar  372  TRP372      0.0012
    192  CZ2        6.8870    5.5740   31.6580 C.ar  372  TRP372      0.0191
    193  CZ3        8.3880    4.5710   30.0420 C.ar  372  TRP372      0.0001
    194  CH2        7.0980    4.9260   30.4680 C.ar  372  TRP372      0.0015
    195  N          4.5370   12.4960   23.6800 N.3   400  TYR400     -0.1241
    196  CA         3.3680   11.6650   23.4480 C.3   400  TYR400      0.1605
    197  C          2.3340   12.4090   22.6270 C.2   400  TYR400      0.2264
    198  O          2.3190   13.6480   22.5640 O.2   400  TYR400     -0.2867
    199  CB         2.7230   11.2190   24.7730 C.3   400  TYR400      0.0534
    200  CG         3.5320   10.2370   25.5890 C.ar  400  TYR400     -0.0201
    201  CD1        3.9660   10.5660   26.8700 C.ar  400  TYR400     -0.0009
    202  CD2        3.8540    8.9750   25.0890 C.ar  400  TYR400     -0.0009
    203  CE1        4.7010    9.6750   27.6310 C.ar  400  TYR400      0.0417
    204  CE2        4.5940    8.0740   25.8420 C.ar  400  TYR400      0.0417
    205  CZ         5.0120    8.4320   27.1170 C.ar  400  TYR400      0.1957
    206  OH         5.7380    7.5540   27.8920 O.3   400  TYR400     -0.2866
@<TRIPOS>BOND
     1   103   102    1
     2    87    88    1
     3    88    89    1
     4    88    91    1
     5   102    99    1
     6    40    39    2
     7    39    38    1
     8    98    89   am
     9    98    99    1
    10    89    90    2
    11    49    48    2
    12    91    92    1
    13    46    47    1
    14    99   100    1
    15   101   100    2
    16    67    66    2
    17    82    81    2
    18   100   104   am
    19    48    47    1
    20    66    65    1
    21    38    37    1
    22    38    41    1
    23    94    92   ar
    24    94    96   ar
    25    92    93   ar
    26    71    72    1
    27   107   106    2
    28    47    50    1
    29    64    65    1
    30    72    73    1
    31    72    75    1
    32   104   105    1
    33    60    59    2
    34    81    80    1
    35    59    58    1
    36    50    51    1
    37    41    42    1
    38    57    63    1
    39    57    58    1
    40    65    68    1
    41   105   106    1
    42    73    79   am
    43    73    74    2
    44    79    80    1
    45   106   108   am
    46    96    97   ar
    47   120   118   ar
    48   120   121   ar
    49    93    95   ar
    50    75    76    1
    51   118   115   ar
    52    63    62    1
    53    58    61    1
    54    51    52    1
    55    29    27   ar
    56    29    30   ar
    57    80    83    1
    58    27    24   ar
    59    42    43    1
    60    68    69    1
    61    68    70    1
    62   121   119   ar
    63   108   109    1
    64    97    95   ar
    65   112   109    1
    66   112   113    1
    67    30    28   ar
    68    52    53    1
    69    83    84    1
    70    76    77    2
    71    76    78   am
    72   115   113   ar
    73   115   117   ar
    74   109   110    1
    75    62    61    1
    76    24    22   ar
    77    24    26   ar
    78    21    22    1
    79    21    18    1
    80   113   114   ar
    81    43    45   am
    82    43    44    2
    83    17    18    1
    84   119   117   ar
    85    84    85    1
    86    28    26   ar
    87   117   116   ar
    88    22    23   ar
    89    53    54    2
    90   130   128   ar
    91   130   132   ar
    92    26    25   ar
    93    18    19    1
    94   110   122   am
    95   110   111    2
    96   133   132    1
    97   128   127   ar
    98   114   116   ar
    99   122   123    1
   100   132   131   ar
   101   198   197    2
   102    23    25   ar
   103    85    86    1
   104   197   196    1
   105    55    54    1
   106    54    56    1
   107    19    20    2
   108   127   126    1
   109   127   129   ar
   110   131   129   ar
   111   126   123    1
   112   196   195    1
   113   196   199    1
   114   123   124    1
   115   125   124    2
   116   124   134   am
   117   199   200    1
   118   202   200   ar
   119   202   204   ar
   120   169   167   ar
   121    36    35    1
   122   180   178    1
   123   200   201   ar
   124   134   135    1
   125   204   205   ar
   126   150   148   ar
   127   149   148   ar
   128   167   168   ar
   129   167   166    1
   130   148   147    1
   131    35    32    1
   132   178   177    2
   133   178   179    1
   134   166   163    1
   135   201   203   ar
   136   177   176    1
   137   135   136    1
   138   135   138    1
   139   205   203   ar
   140   205   206    1
   141   146   147    1
   142   146   143    1
   143   137   136    2
   144   165   164    2
   145   144   145    2
   146   144   143    1
   147    32    33    1
   148    32    31    1
   149   163   164    1
   150   163   162    1
   151   138   139    1
   152   176   175    1
   153   143   142    1
   154    33    34    2
   155    16    14    1
   156   162   153   am
   157   172   171    1
   158   172   173    2
   159   171   174    1
   160   171   170    1
   161   174   175    1
   162   139   140    1
   163    14    13    1
   164    14    15    1
   165   193   194   ar
   166   193   191   ar
   167    13    10    1
   168   153   154    2
   169   153   152    1
   170   194   192   ar
   171   140   141    1
   172   155   152    1
   173   155   156    1
   174   191   188   ar
   175   152   151    1
   176    10    11    1
   177    10     9    1
   178     6     7    1
   179     6     5    1
   180     4     3    2
   181     7     8    1
   182   156   157    1
   183   192   190   ar
   184    11    12    2
   185   188   190   ar
   186   188   186   ar
   187     3     9   am
   188     3     2    1
   189   190   189   ar
   190   160   159    1
   191   161   159    1
   192   159   158    2
   193     5     2    1
   194   158   157    1
   195   186   185    1
   196   186   187   ar
   197   185   182    1
   198     2     1    1
   199   184   183    2
   200   189   187   ar
   201   183   182    1
   202   182   181    1
