@<TRIPOS>MOLECULE
tmp/5uo7B03.pdb
 217 213 0 0 0
SMALL
GASTEIGER

@<TRIPOS>ATOM
      1  N        107.5830  258.3100  336.6480 N.3    39  MET39      -0.1230
      2  CA       108.0810  257.9370  335.3230 C.3    39  MET39       0.1702
      3  C        108.0050  259.1180  334.3510 C.2    39  MET39       0.2592
      4  O        108.9440  259.3560  333.5940 O.2    39  MET39      -0.2718
      5  CB       107.3310  256.7280  334.7480 C.3    39  MET39       0.0401
      6  CG       107.9990  256.1710  333.4610 C.3    39  MET39       0.0596
      7  SD       107.6150  254.4540  333.0600 S.3    39  MET39      -0.1393
      8  CE       108.1280  253.5800  334.5480 C.3    39  MET39       0.0692
      9  N        106.8990  259.8580  334.3700 N.am   40  HIS40      -0.1976
     10  CA       106.7620  261.0470  333.5300 C.3    40  HIS40       0.1656
     11  C        106.1550  262.2070  334.3000 C.2    40  HIS40       0.2291
     12  O        104.9390  262.3370  334.3230 O.2    40  HIS40      -0.2864
     13  CB       105.8660  260.7990  332.3010 C.3    40  HIS40       0.0771
     14  CG       105.9240  259.4110  331.7460 C.ar   40  HIS40       0.0820
     15  ND1      106.9780  258.9540  330.9870 N.ar   40  HIS40      -0.2267
     16  CD2      105.0270  258.3980  331.7910 C.ar   40  HIS40       0.1154
     17  CE1      106.7440  257.7090  330.6130 C.ar   40  HIS40       0.1986
     18  NE2      105.5650  257.3480  331.0870 N.ar   40  HIS40      -0.2212
     19  N        121.2700  261.2090  322.6370 N.3   103  TRP103     -0.1241
     20  CA       121.7410  260.0230  323.3400 C.3   103  TRP103      0.1605
     21  C        122.6090  260.4700  324.5270 C.2   103  TRP103      0.2264
     22  O        122.4220  260.0030  325.6320 O.2   103  TRP103     -0.2867
     23  CB       122.5230  259.0880  322.3950 C.3   103  TRP103      0.0550
     24  CG       122.9280  257.7520  322.9870 C.ar  103  TRP103      0.0003
     25  CD1      122.5780  257.2500  324.2260 C.ar  103  TRP103      0.0946
     26  CD2      123.7580  256.7430  322.3710 C.ar  103  TRP103      0.0152
     27  NE1      123.1450  256.0020  324.4090 N.ar  103  TRP103     -0.2442
     28  CE2      123.8740  255.6700  323.2950 C.ar  103  TRP103      0.0810
     29  CE3      124.4050  256.6380  321.1270 C.ar  103  TRP103      0.0012
     30  CZ2      124.6190  254.5220  323.0190 C.ar  103  TRP103      0.0191
     31  CZ3      125.1510  255.4940  320.8520 C.ar  103  TRP103      0.0001
     32  CH2      125.2420  254.4460  321.7870 C.ar  103  TRP103      0.0015
     33  N        120.0270  256.3780  330.6600 N.3   109  CYS109     -0.1235
     34  CA       120.7050  255.3520  329.8780 C.3   109  CYS109      0.1677
     35  C        122.0930  255.0630  330.4230 C.2   109  CYS109      0.2270
     36  O        122.9790  255.9380  330.4380 O.2   109  CYS109     -0.2867
     37  CB       120.8100  255.7630  328.3810 C.3   109  CYS109      0.0956
     38  SG       121.8210  254.6440  327.3530 S.3   109  CYS109     -0.0801
     39  N        108.8810  248.7520  320.0340 N.3   172  GLN172     -0.1245
     40  CA       110.1960  248.3590  319.5360 C.3   172  GLN172      0.1566
     41  C        110.0230  247.7580  318.1460 C.2   172  GLN172      0.2260
     42  O        108.9670  247.1980  317.8430 O.2   172  GLN172     -0.2867
     43  CB       110.8850  247.3620  320.4690 C.3   172  GLN172      0.0367
     44  CG       111.3540  247.9310  321.8170 C.3   172  GLN172      0.0905
     45  CD       111.9540  246.8570  322.7140 C.2   172  GLN172      0.2608
     46  OE1      112.5730  245.8960  322.2380 O.2   172  GLN172     -0.2717
     47  NE2      111.7650  247.0090  324.0180 N.am  172  GLN172     -0.0878
     48  N        109.3950  242.9380  318.6510 N.3   175  ARG175     -0.1245
     49  CA       108.7520  242.4930  319.8960 C.3   175  ARG175      0.1563
     50  C        107.9660  241.2040  319.6860 C.2   175  ARG175      0.2260
     51  O        107.5610  240.8890  318.5710 O.2   175  ARG175     -0.2867
     52  CB       107.7950  243.5470  320.4340 C.3   175  ARG175      0.0307
     53  CG       108.4440  244.8030  320.8970 C.3   175  ARG175      0.0489
     54  CD       107.8370  245.2350  322.2030 C.3   175  ARG175      0.2205
     55  NE       108.6820  244.8700  323.3300 N.pl3 175  ARG175     -0.0865
     56  CZ       108.4320  245.2360  324.5800 C.cat 175  ARG175      0.5346
     57  NH1      107.3530  245.9710  324.8530 N.pl3 175  ARG175      0.1354
     58  NH2      109.2600  244.8710  325.5540 N.pl3 175  ARG175      0.1354
     59  N        117.6550  245.3000  320.4910 N.3   259  PRO259     -0.2116
     60  CA       116.7230  246.2080  321.1690 C.3   259  PRO259      0.1372
     61  C        116.6760  247.5460  320.4410 C.2   259  PRO259      0.2244
     62  O        117.6900  248.2310  320.2930 O.2   259  PRO259     -0.2868
     63  CB       117.3120  246.3410  322.5820 C.3   259  PRO259      0.0268
     64  CG       118.7820  246.1610  322.3840 C.3   259  PRO259      0.0207
     65  CD       118.9800  245.2830  321.1440 C.3   259  PRO259      0.0892
     66  N        114.2950  250.8260  320.2110 N.3   261  VAL261     -0.1245
     67  CA       113.1630  251.5590  320.7540 C.3   261  VAL261      0.1561
     68  C        112.6530  252.5350  319.7100 C.2   261  VAL261      0.2260
     69  O        113.4120  253.3410  319.1590 O.2   261  VAL261     -0.2867
     70  CB       113.5490  252.2680  322.0590 C.3   261  VAL261      0.0252
     71  CG1      112.5510  253.4010  322.4110 C.3   261  VAL261      0.0019
     72  CG2      113.5960  251.2340  323.1640 C.3   261  VAL261      0.0019
     73  N        109.2760  254.1860  319.8260 N.3   263  ASN263     -0.1225
     74  CA       108.0990  255.0020  320.1010 C.3   263  ASN263      0.1785
     75  C        108.4100  256.3650  320.7400 C.2   263  ASN263      0.2597
     76  O        107.4900  257.0910  321.1330 O.2   263  ASN263     -0.2718
     77  CB       107.1050  254.2100  320.9570 C.3   263  ASN263      0.1169
     78  CG       107.6170  253.9170  322.3570 C.2   263  ASN263      0.2627
     79  OD1      108.8040  254.0600  322.6550 O.2   263  ASN263     -0.2716
     80  ND2      106.7140  253.4810  323.2210 N.am  263  ASN263     -0.0877
     81  N        109.6890  256.7390  320.8050 N.am  264  MET264     -0.1979
     82  CA       110.0400  258.0250  321.4120 C.3   264  MET264      0.1605
     83  C        110.1600  259.1750  320.4150 C.2   264  MET264      0.2287
     84  O        110.2250  258.9710  319.2030 O.2   264  MET264     -0.2864
     85  CB       111.3370  257.8980  322.2130 C.3   264  MET264      0.0413
     86  CG       111.1710  257.0280  323.4690 C.3   264  MET264      0.0598
     87  SD       112.5630  257.0340  324.6190 S.3   264  MET264     -0.1393
     88  CE       112.1990  258.5160  325.5720 C.3   264  MET264      0.0692
     89  N        115.7760  253.9920  317.4190 N.3   278  PHE278     -0.1227
     90  CA       117.1990  253.8720  317.7230 C.3   278  PHE278      0.1736
     91  C        117.4680  252.5540  318.4100 C.2   278  PHE278      0.2596
     92  O        116.6280  252.0270  319.1280 O.2   278  PHE278     -0.2718
     93  CB       117.7010  255.0290  318.5900 C.3   278  PHE278      0.0547
     94  CG       116.7730  255.4010  319.7180 C.ar  278  PHE278     -0.0202
     95  CD1      116.9200  254.8360  320.9760 C.ar  278  PHE278     -0.0042
     96  CD2      115.7660  256.3250  319.5240 C.ar  278  PHE278     -0.0042
     97  CE1      116.0670  255.1870  322.0220 C.ar  278  PHE278     -0.0003
     98  CE2      114.9060  256.6820  320.5640 C.ar  278  PHE278     -0.0003
     99  CZ       115.0580  256.1030  321.8160 C.ar  278  PHE278     -0.0000
    100  N        118.6480  252.0130  318.1760 N.am  279  SER279     -0.1938
    101  CA       118.9450  250.6900  318.6690 C.3   279  SER279      0.2055
    102  C        120.4030  250.5990  319.1290 C.2   279  SER279      0.2644
    103  O        121.2620  251.3510  318.6700 O.2   279  SER279     -0.2714
    104  CB       118.6500  249.6580  317.5790 C.3   279  SER279      0.2130
    105  OG       119.6500  249.7110  316.5910 O.3   279  SER279     -0.2179
    106  N        120.6660  249.6900  320.0580 N.am  280  GLY280     -0.1939
    107  CA       122.0250  249.4430  320.5060 C.3   280  GLY280      0.2014
    108  C        122.1940  247.9580  320.7230 C.2   280  GLY280      0.2639
    109  O        121.9380  247.1520  319.8340 O.2   280  GLY280     -0.2714
    110  N        122.6080  247.5810  321.9200 N.am  281  TRP281     -0.1959
    111  CA       122.5680  246.1760  322.2870 C.3   281  TRP281      0.1771
    112  C        122.1210  246.0400  323.7550 C.2   281  TRP281      0.2620
    113  O        122.0840  247.0240  324.4980 O.2   281  TRP281     -0.2715
    114  CB       123.9240  245.5320  322.0400 C.3   281  TRP281      0.0590
    115  CG       125.0060  246.2160  322.7830 C.ar  281  TRP281      0.0006
    116  CD1      125.2810  246.1010  324.1170 C.ar  281  TRP281      0.0946
    117  CD2      125.9590  247.1410  322.2550 C.ar  281  TRP281      0.0152
    118  NE1      126.3590  246.8860  324.4480 N.ar  281  TRP281     -0.2442
    119  CE2      126.7910  247.5410  323.3260 C.ar  281  TRP281      0.0810
    120  CE3      126.1970  247.6670  320.9850 C.ar  281  TRP281      0.0012
    121  CZ2      127.8410  248.4430  323.1600 C.ar  281  TRP281      0.0191
    122  CZ3      127.2430  248.5640  320.8210 C.ar  281  TRP281      0.0001
    123  CH2      128.0540  248.9370  321.8970 C.ar  281  TRP281      0.0015
    124  N        121.7590  244.8260  324.1540 N.am  282  TYR282     -0.1960
    125  CA       121.1400  244.5880  325.4550 C.3   282  TYR282      0.1771
    126  C        122.0930  244.5570  326.6580 C.2   282  TYR282      0.2619
    127  O        123.2130  244.0370  326.5860 O.2   282  TYR282     -0.2715
    128  CB       120.3960  243.2630  325.4230 C.3   282  TYR282      0.0574
    129  CG       118.9230  243.3460  325.1210 C.ar  282  TYR282     -0.0198
    130  CD1      118.3670  242.5570  324.1200 C.ar  282  TYR282     -0.0009
    131  CD2      118.0800  244.1720  325.8540 C.ar  282  TYR282     -0.0009
    132  CE1      117.0190  242.5960  323.8450 C.ar  282  TYR282      0.0417
    133  CE2      116.7140  244.2160  325.5860 C.ar  282  TYR282      0.0417
    134  CZ       116.1950  243.4170  324.5800 C.ar  282  TYR282      0.1957
    135  OH       114.8540  243.4340  324.2880 O.3   282  TYR282     -0.2866
    136  N        121.6370  245.1170  327.7700 N.am  283  MET283     -0.1977
    137  CA       122.1910  244.7130  329.0560 C.3   283  MET283      0.1605
    138  C        121.3280  243.5270  329.4810 C.2   283  MET283      0.2287
    139  O        120.0960  243.5720  329.3630 O.2   283  MET283     -0.2864
    140  CB       122.1740  245.8540  330.0770 C.3   283  MET283      0.0413
    141  CG       122.8140  245.4880  331.4190 C.3   283  MET283      0.0598
    142  SD       122.9510  246.9170  332.5070 S.3   283  MET283     -0.1393
    143  CE       121.2510  247.0640  333.0570 C.3   283  MET283      0.0692
    144  N        117.8350  243.4610  331.3080 N.3   286  GLU286     -0.1245
    145  CA       116.6650  243.9720  330.5700 C.3   286  GLU286      0.1567
    146  C        115.7340  242.8420  330.1620 C.2   286  GLU286      0.2260
    147  O        114.5140  242.9750  330.2310 O.2   286  GLU286     -0.2867
    148  CB       117.0940  244.7490  329.3320 C.3   286  GLU286      0.0388
    149  CG       117.9160  245.9800  329.6460 C.3   286  GLU286      0.1160
    150  CD       118.2540  246.7860  328.4030 C.2   286  GLU286      0.3649
    151  OE1      117.3730  247.5510  327.9580 O.co2 286  GLU286     -0.2457
    152  OE2      119.3920  246.6590  327.8870 O.co2 286  GLU286     -0.2457
    153  N        113.6850  241.8190  333.7420 N.3   290  ARG290     -0.1245
    154  CA       112.4720  242.5900  333.4750 C.3   290  ARG290      0.1563
    155  C        111.5290  241.8490  332.5150 C.2   290  ARG290      0.2260
    156  O        110.3950  241.5080  332.8880 O.2   290  ARG290     -0.2867
    157  CB       112.8310  243.9820  332.9210 C.3   290  ARG290      0.0307
    158  CG       113.8350  244.8150  333.7760 C.3   290  ARG290      0.0489
    159  CD       113.3590  245.0760  335.2350 C.3   290  ARG290      0.2205
    160  NE       111.9590  245.5040  335.2850 N.pl3 290  ARG290     -0.0865
    161  CZ       111.5450  246.7600  335.1080 C.cat 290  ARG290      0.5346
    162  NH1      112.4240  247.7360  334.8750 N.pl3 290  ARG290      0.1354
    163  NH2      110.2470  247.0420  335.1560 N.pl3 290  ARG290      0.1354
    164  N        109.3570  240.0250  335.5460 N.3   294  ASP294     -0.1239
    165  CA       108.3170  240.9700  335.9340 C.3   294  ASP294      0.1674
    166  C        106.9760  240.2520  335.9610 C.2   294  ASP294      0.2266
    167  O        106.6550  239.4890  335.0360 O.2   294  ASP294     -0.2867
    168  CB       108.2550  242.1630  334.9800 C.3   294  ASP294      0.1410
    169  CG       109.2270  243.2710  335.3470 C.2   294  ASP294      0.3668
    170  OD1      110.1890  243.0170  336.1200 O.co2 294  ASP294     -0.2456
    171  OD2      109.0180  244.4040  334.8500 O.co2 294  ASP294     -0.2456
    172  N        104.8430  240.4950  333.0490 N.3   297  ARG297     -0.1245
    173  CA       105.5620  240.0180  331.8660 C.3   297  ARG297      0.1563
    174  C        105.5220  238.4860  331.7580 C.2   297  ARG297      0.2260
    175  O        104.4920  237.8700  332.0250 O.2   297  ARG297     -0.2867
    176  CB       107.0080  240.5200  331.8870 C.3   297  ARG297      0.0307
    177  CG       107.1320  242.0330  331.7740 C.3   297  ARG297      0.0489
    178  CD       106.4930  242.5640  330.4920 C.3   297  ARG297      0.2205
    179  NE       107.2300  242.1800  329.2870 N.pl3 297  ARG297     -0.0865
    180  CZ       108.3290  242.7940  328.8530 C.cat 297  ARG297      0.5346
    181  NH1      108.8300  243.8210  329.5330 N.pl3 297  ARG297      0.1354
    182  NH2      108.9360  242.3820  327.7450 N.pl3 297  ARG297      0.1354
    183  N        117.0430  254.9540  337.4550 N.3   372  TRP372     -0.1241
    184  CA       117.0990  254.0960  336.2740 C.3   372  TRP372      0.1605
    185  C        118.4720  253.4930  336.0010 C.2   372  TRP372      0.2264
    186  O        118.5570  252.4300  335.3790 O.2   372  TRP372     -0.2867
    187  CB       116.6270  254.8590  335.0250 C.3   372  TRP372      0.0550
    188  CG       115.1270  254.9360  334.9080 C.ar  372  TRP372      0.0003
    189  CD1      114.2570  255.5630  335.7710 C.ar  372  TRP372      0.0946
    190  CD2      114.3240  254.3930  333.8540 C.ar  372  TRP372      0.0152
    191  NE1      112.9660  255.4190  335.3240 N.ar  372  TRP372     -0.2442
    192  CE2      112.9810  254.7100  334.1460 C.ar  372  TRP372      0.0810
    193  CE3      114.6110  253.6730  332.6880 C.ar  372  TRP372      0.0012
    194  CZ2      111.9270  254.3280  333.3110 C.ar  372  TRP372      0.0191
    195  CZ3      113.5590  253.2890  331.8620 C.ar  372  TRP372      0.0001
    196  CH2      112.2340  253.6180  332.1840 C.ar  372  TRP372      0.0015
    197  N        109.1900  261.3870  325.7280 N.3   400  TYR400     -0.1227
    198  CA       108.0420  260.5170  325.5940 C.3   400  TYR400      0.1736
    199  C        106.9880  261.2000  324.7350 C.2   400  TYR400      0.2595
    200  O        106.9260  262.4350  324.6500 O.2   400  TYR400     -0.2718
    201  CB       107.4360  260.1780  326.9550 C.3   400  TYR400      0.0548
    202  CG       108.2720  259.2710  327.8080 C.ar  400  TYR400     -0.0200
    203  CD1      108.9980  259.7720  328.8810 C.ar  400  TYR400     -0.0009
    204  CD2      108.3330  257.9100  327.5490 C.ar  400  TYR400     -0.0009
    205  CE1      109.7620  258.9380  329.6750 C.ar  400  TYR400      0.0417
    206  CE2      109.0950  257.0710  328.3300 C.ar  400  TYR400      0.0417
    207  CZ       109.8040  257.5880  329.3920 C.ar  400  TYR400      0.1957
    208  OH       110.5620  256.7510  330.1720 O.3   400  TYR400     -0.2866
    209  N        106.1370  260.3960  324.1180 N.am  401  GLN401     -0.1979
    210  CA       105.0180  260.9330  323.3660 C.3   401  GLN401      0.1601
    211  C        103.8580  259.9620  323.5030 C.2   401  GLN401      0.2287
    212  O        104.0640  258.7940  323.8470 O.2   401  GLN401     -0.2864
    213  CB       105.4060  261.1560  321.8930 C.3   401  GLN401      0.0394
    214  CG       105.7760  259.8970  321.1310 C.3   401  GLN401      0.0908
    215  CD       106.2590  260.1960  319.7100 C.2   401  GLN401      0.2608
    216  OE1      105.8390  261.1730  319.0880 O.2   401  GLN401     -0.2717
    217  NE2      107.1530  259.3580  319.2030 N.am  401  GLN401     -0.0878
@<TRIPOS>BOND
     1   105   104    1
     2    89    90    1
     3   104   101    1
     4    90    91    1
     5    90    93    1
     6    42    41    2
     7    41    40    1
     8   100    91   am
     9   100   101    1
    10    91    92    2
    11    51    50    2
    12    93    94    1
    13    48    49    1
    14   101   102    1
    15   103   102    2
    16   216   215    2
    17   102   106   am
    18    69    68    2
    19    84    83    2
    20   217   215   am
    21    96    94   ar
    22    96    98   ar
    23    40    39    1
    24    40    43    1
    25    50    49    1
    26    68    67    1
    27   215   214    1
    28    94    95   ar
    29    73    74    1
    30   109   108    2
    31    49    52    1
    32   106   107    1
    33    74    75    1
    34    74    77    1
    35    66    67    1
    36    62    61    2
    37    83    82    1
    38    52    53    1
    39    61    60    1
    40    43    44    1
    41    59    65    1
    42    59    60    1
    43   107   108    1
    44    98    99   ar
    45   108   110   am
    46    75    81   am
    47    75    76    2
    48    67    70    1
    49    81    82    1
    50   122   120   ar
    51   122   123   ar
    52    31    29   ar
    53    31    32   ar
    54    53    54    1
    55    77    78    1
    56    95    97   ar
    57   120   117   ar
    58    29    26   ar
    59   214   213    1
    60    65    64    1
    61    60    63    1
    62    82    85    1
    63    32    30   ar
    64    99    97   ar
    65    44    45    1
    66   213   210    1
    67   123   121   ar
    68   110   111    1
    69   114   111    1
    70   114   115    1
    71    70    71    1
    72    70    72    1
    73    54    55    1
    74    85    86    1
    75    46    45    2
    76   117   115   ar
    77   117   119   ar
    78   111   112    1
    79    78    79    2
    80    78    80   am
    81    26    24   ar
    82    26    28   ar
    83    64    63    1
    84    23    24    1
    85    23    20    1
    86    19    20    1
    87    45    47   am
    88   115   116   ar
    89    24    25   ar
    90    30    28   ar
    91   121   119   ar
    92    28    27   ar
    93   119   118   ar
    94    55    56    2
    95    20    21    1
    96   210   211    1
    97   210   209    1
    98    86    87    1
    99   211   212    2
   100   112   124   am
   101   112   113    2
   102   132   130   ar
   103   132   134   ar
   104   116   118   ar
   105   209   199   am
   106   130   129   ar
   107   124   125    1
   108    25    27   ar
   109   135   134    1
   110    21    22    2
   111    56    57    1
   112    56    58    1
   113   134   133   ar
   114    87    88    1
   115   200   199    2
   116   199   198    1
   117   129   128    1
   118   129   131   ar
   119   128   125    1
   120   125   126    1
   121   133   131   ar
   122   198   197    1
   123   198   201    1
   124   127   126    2
   125   126   136   am
   126   201   202    1
   127    38    37    1
   128   204   202   ar
   129   204   206   ar
   130   182   180    1
   131   136   137    1
   132   202   203   ar
   133   152   150   ar
   134   151   150   ar
   135   206   207   ar
   136    37    34    1
   137   150   149    1
   138   180   179    2
   139   180   181    1
   140   203   205   ar
   141   137   138    1
   142   137   140    1
   143   179   178    1
   144   148   149    1
   145   148   145    1
   146   139   138    2
   147   207   205   ar
   148   207   208    1
   149    34    35    1
   150    34    33    1
   151   140   141    1
   152   146   147    2
   153   146   145    1
   154    35    36    2
   155   178   177    1
   156   145   144    1
   157    17    15   ar
   158    17    18   ar
   159    15    14   ar
   160    18    16   ar
   161   141   142    1
   162    14    16   ar
   163    14    13    1
   164   174   173    1
   165   174   175    2
   166   177   176    1
   167   195   196   ar
   168   195   193   ar
   169   173   176    1
   170   173   172    1
   171   196   194   ar
   172    13    10    1
   173   142   143    1
   174   155   156    2
   175   155   154    1
   176   193   190   ar
   177   157   154    1
   178   157   158    1
   179     7     6    1
   180     7     8    1
   181   194   192   ar
   182     6     5    1
   183   154   153    1
   184    10    11    1
   185    10     9    1
   186     4     3    2
   187   158   159    1
   188   190   192   ar
   189   190   188   ar
   190   192   191   ar
   191    11    12    2
   192     3     9   am
   193     3     2    1
   194     5     2    1
   195   171   169   ar
   196   162   161    1
   197   188   187    1
   198   188   189   ar
   199   168   169    1
   200   168   165    1
   201   187   184    1
   202   167   166    2
   203   161   163    1
   204   161   160    2
   205   159   160    1
   206     2     1    1
   207   191   189   ar
   208   169   170   ar
   209   186   185    2
   210   164   165    1
   211   165   166    1
   212   185   184    1
   213   184   183    1
