@<TRIPOS>MOLECULE
tmp/5uo9A02.pdb
 198 194 0 0 0
SMALL
GASTEIGER

@<TRIPOS>ATOM
      1  N         58.0910   25.5680 -171.8870 N.3    37  VAL37      -0.1231
      2  CA        58.2280   26.2060 -173.1980 C.3    37  VAL37       0.1692
      3  C         57.7440   27.6440 -173.1830 C.2    37  VAL37       0.2592
      4  O         58.5010   28.5500 -173.5240 O.2    37  VAL37      -0.2718
      5  CB        57.5050   25.4230 -174.3090 C.3    37  VAL37       0.0266
      6  CG1       57.6430   26.1390 -175.6700 C.3    37  VAL37       0.0020
      7  CG2       58.0600   24.0230 -174.3970 C.3    37  VAL37       0.0020
      8  N         56.4890   27.8440 -172.7880 N.am   38  PHE38      -0.1976
      9  CA        55.9220   29.1850 -172.6370 C.3    38  PHE38       0.1639
     10  C         55.7990   29.5960 -171.1660 C.2    38  PHE38       0.2290
     11  O         54.7740   29.3280 -170.5410 O.2    38  PHE38      -0.2864
     12  CB        54.5390   29.2620 -173.2860 C.3    38  PHE38       0.0560
     13  CG        54.5320   28.9060 -174.7370 C.ar   38  PHE38      -0.0200
     14  CD1       55.0120   29.7940 -175.6810 C.ar   38  PHE38      -0.0042
     15  CD2       54.0440   27.6840 -175.1590 C.ar   38  PHE38      -0.0042
     16  CE1       55.0110   29.4660 -177.0260 C.ar   38  PHE38      -0.0003
     17  CE2       54.0380   27.3440 -176.4970 C.ar   38  PHE38      -0.0003
     18  CZ        54.5180   28.2400 -177.4370 C.ar   38  PHE38      -0.0000
     19  N         68.3860   30.9160 -178.5450 N.3   108  CYS108     -0.1235
     20  CA        69.0540   30.8350 -179.8550 C.3   108  CYS108      0.1677
     21  C         70.5460   30.5120 -179.7640 C.2   108  CYS108      0.2270
     22  O         71.3050   31.2010 -179.0840 O.2   108  CYS108     -0.2867
     23  CB        68.8560   32.1250 -180.6710 C.3   108  CYS108      0.0956
     24  SG        69.7240   32.1130 -182.2540 S.3   108  CYS108     -0.0801
     25  N         55.4610   30.2600 -189.4630 N.3   171  GLN171     -0.1245
     26  CA        56.6250   30.4600 -190.3200 C.3   171  GLN171      0.1566
     27  C         56.1740   30.8430 -191.7190 C.2   171  GLN171      0.2260
     28  O         54.9990   30.7100 -192.0620 O.2   171  GLN171     -0.2867
     29  CB        57.5020   29.2080 -190.3710 C.3   171  GLN171      0.0367
     30  CG        58.5000   29.1240 -189.2330 C.3   171  GLN171      0.0905
     31  CD        59.2450   27.8190 -189.2080 C.2   171  GLN171      0.2608
     32  OE1       59.6900   27.3220 -190.2390 O.2   171  GLN171     -0.2717
     33  NE2       59.3780   27.2450 -188.0250 N.am  171  GLN171     -0.0878
     34  N         52.2140   19.3500 -186.8760 N.3   190  ALA190     -0.1245
     35  CA        52.3440   20.6250 -186.1680 C.3   190  ALA190      0.1562
     36  C         51.5010   21.7220 -186.8200 C.2   190  ALA190      0.2260
     37  O         51.0920   22.6740 -186.1560 O.2   190  ALA190     -0.2867
     38  CB        53.8080   21.0550 -186.0780 C.3   190  ALA190      0.0290
     39  N         64.3210   28.6920 -192.7790 N.3   258  PRO258     -0.2116
     40  CA        63.5450   28.7380 -191.5450 C.3   258  PRO258      0.1372
     41  C         63.2730   30.1880 -191.2460 C.2   258  PRO258      0.2244
     42  O         64.2040   30.9640 -191.0660 O.2   258  PRO258     -0.2868
     43  CB        64.5000   28.1430 -190.5100 C.3   258  PRO258      0.0268
     44  CG        65.8540   28.4860 -191.0130 C.3   258  PRO258      0.0207
     45  CD        65.7590   28.4920 -192.5230 C.3   258  PRO258      0.0892
     46  N         60.7300   32.5260 -188.9980 N.3   260  VAL260     -0.1245
     47  CA        59.7170   32.5880 -187.9610 C.3   260  VAL260      0.1561
     48  C         58.8690   33.8410 -188.0640 C.2   260  VAL260      0.2260
     49  O         59.3680   34.9630 -187.9450 O.2   260  VAL260     -0.2867
     50  CB        60.3460   32.4790 -186.5660 C.3   260  VAL260      0.0252
     51  CG1       59.2980   32.6740 -185.5270 C.3   260  VAL260      0.0019
     52  CG2       60.9670   31.1300 -186.4150 C.3   260  VAL260      0.0019
     53  N         56.4010   35.4980 -183.9790 N.3   263  MET263     -0.1245
     54  CA        56.9690   36.0930 -182.7750 C.3   263  MET263      0.1570
     55  C         56.8790   37.6050 -182.8200 C.2   263  MET263      0.2261
     56  O         56.7800   38.2010 -183.8960 O.2   263  MET263     -0.2867
     57  CB        58.4150   35.6530 -182.5840 C.3   263  MET263      0.0387
     58  CG        58.5530   34.1560 -182.3460 C.3   263  MET263      0.0595
     59  SD        60.0940   33.7330 -181.5320 S.3   263  MET263     -0.1393
     60  CE        59.9610   34.7960 -180.1010 C.3   263  MET263      0.0692
     61  N         61.4660   37.0420 -189.0370 N.3   277  PHE277     -0.1227
     62  CA        62.9110   36.8920 -189.0970 C.3   277  PHE277      0.1736
     63  C         63.3180   35.5070 -189.6000 C.2   277  PHE277      0.2596
     64  O         62.5430   34.5500 -189.5370 O.2   277  PHE277     -0.2718
     65  CB        63.5600   37.2130 -187.7470 C.3   277  PHE277      0.0547
     66  CG        63.1360   36.3010 -186.6160 C.ar  277  PHE277     -0.0202
     67  CD1       63.7270   35.0600 -186.4430 C.ar  277  PHE277     -0.0042
     68  CD2       62.1740   36.7040 -185.7060 C.ar  277  PHE277     -0.0042
     69  CE1       63.3550   34.2310 -185.3940 C.ar  277  PHE277     -0.0003
     70  CE2       61.8020   35.8760 -184.6550 C.ar  277  PHE277     -0.0003
     71  CZ        62.3910   34.6420 -184.5050 C.ar  277  PHE277     -0.0000
     72  N         64.5360   35.4130 -190.1120 N.am  278  SER278     -0.1938
     73  CA        65.0090   34.1790 -190.6940 C.3   278  SER278      0.2055
     74  C         66.5240   34.1220 -190.6170 C.2   278  SER278      0.2644
     75  O         67.1960   35.1530 -190.4970 O.2   278  SER278     -0.2714
     76  CB        64.5600   34.0870 -192.1530 C.3   278  SER278      0.2130
     77  OG        65.1570   35.1130 -192.9280 O.3   278  SER278     -0.2179
     78  N         67.0470   32.9040 -190.6990 N.am  279  GLY279     -0.1939
     79  CA        68.4710   32.6390 -190.6570 C.3   279  GLY279      0.2014
     80  C         68.6120   31.3100 -191.3440 C.2   279  GLY279      0.2639
     81  O         67.7750   30.9730 -192.1690 O.2   279  GLY279     -0.2714
     82  N         69.6390   30.5340 -191.0260 N.am  280  TRP280     -0.1959
     83  CA        69.7200   29.2120 -191.6360 C.3   280  TRP280      0.1771
     84  C         69.5730   28.0720 -190.6210 C.2   280  TRP280      0.2620
     85  O         69.7820   28.2550 -189.4180 O.2   280  TRP280     -0.2715
     86  CB        70.9820   29.0560 -192.4950 C.3   280  TRP280      0.0590
     87  CG        72.2510   29.3710 -191.7860 C.ar  280  TRP280      0.0006
     88  CD1       72.9530   28.5430 -190.9670 C.ar  280  TRP280      0.0946
     89  CD2       72.9830   30.6040 -191.8380 C.ar  280  TRP280      0.0152
     90  NE1       74.0750   29.1840 -190.5010 N.ar  280  TRP280     -0.2442
     91  CE2       74.1170   30.4490 -191.0190 C.ar  280  TRP280      0.0810
     92  CE3       72.7870   31.8220 -192.4950 C.ar  280  TRP280      0.0012
     93  CZ2       75.0520   31.4620 -190.8400 C.ar  280  TRP280      0.0191
     94  CZ3       73.7120   32.8260 -192.3140 C.ar  280  TRP280      0.0001
     95  CH2       74.8310   32.6420 -191.4950 C.ar  280  TRP280      0.0015
     96  N         69.1940   26.9000 -191.1210 N.am  281  TYR281     -0.1960
     97  CA        68.9150   25.7540 -190.2680 C.3   281  TYR281      0.1771
     98  C         70.1780   25.2100 -189.6450 C.2   281  TYR281      0.2619
     99  O         71.2230   25.1410 -190.2940 O.2   281  TYR281     -0.2715
    100  CB        68.2230   24.6300 -191.0550 C.3   281  TYR281      0.0574
    101  CG        66.7050   24.6830 -191.0400 C.ar  281  TYR281     -0.0198
    102  CD1       66.0050   24.4840 -189.8700 C.ar  281  TYR281     -0.0009
    103  CD2       65.9730   24.9150 -192.2050 C.ar  281  TYR281     -0.0009
    104  CE1       64.6290   24.5250 -189.8450 C.ar  281  TYR281      0.0417
    105  CE2       64.5830   24.9580 -192.1830 C.ar  281  TYR281      0.0417
    106  CZ        63.9270   24.7570 -190.9920 C.ar  281  TYR281      0.1957
    107  OH        62.5630   24.7840 -190.9250 O.3   281  TYR281     -0.2866
    108  N         70.0740   24.8430 -188.3690 N.am  282  MET282     -0.1977
    109  CA        71.0060   23.9040 -187.7720 C.3   282  MET282      0.1605
    110  C         70.4510   22.5380 -188.1650 C.2   282  MET282      0.2287
    111  O         69.2370   22.3340 -188.1420 O.2   282  MET282     -0.2864
    112  CB        71.0590   24.0800 -186.2400 C.3   282  MET282      0.0413
    113  CG        72.1440   23.2480 -185.5740 C.3   282  MET282      0.0598
    114  SD        72.3530   23.5390 -183.8100 S.3   282  MET282     -0.1393
    115  CE        70.7940   22.9100 -183.1940 C.3   282  MET282      0.0692
    116  N         67.5780   20.4610 -186.1750 N.3   285  GLU285     -0.1245
    117  CA        66.2320   21.0270 -186.2030 C.3   285  GLU285      0.1567
    118  C         65.3440   20.2350 -187.1420 C.2   285  GLU285      0.2260
    119  O         64.1900   19.9520 -186.8230 O.2   285  GLU285     -0.2867
    120  CB        66.2790   22.4630 -186.7010 C.3   285  GLU285      0.0388
    121  CG        66.9600   23.4370 -185.7650 C.3   285  GLU285      0.1160
    122  CD        66.5780   24.8710 -186.0890 C.2   285  GLU285      0.3649
    123  OE1       65.4700   25.2940 -185.6880 O.co2 285  GLU285     -0.2457
    124  OE2       67.3750   25.5660 -186.7540 O.co2 285  GLU285     -0.2457
    125  N         64.3250   16.9100 -184.7430 N.3   289  ARG289     -0.1231
    126  CA        63.0610   17.3840 -184.2220 C.3   289  ARG289      0.1694
    127  C         61.9160   17.2080 -185.2190 C.2   289  ARG289      0.2592
    128  O         60.9540   16.4720 -184.9610 O.2   289  ARG289     -0.2718
    129  CB        63.2110   18.8280 -183.7500 C.3   289  ARG289      0.0321
    130  CG        64.2410   18.9560 -182.6320 C.3   289  ARG289      0.0489
    131  CD        63.9060   17.9950 -181.4650 C.3   289  ARG289      0.2205
    132  NE        62.5230   18.1970 -181.0530 N.pl3 289  ARG289     -0.0865
    133  CZ        62.1080   19.2600 -180.3810 C.cat 289  ARG289      0.5346
    134  NH1       62.9780   20.2010 -180.0340 N.pl3 289  ARG289      0.1354
    135  NH2       60.8270   19.3850 -180.0710 N.pl3 289  ARG289      0.1354
    136  N         62.0490   17.8560 -186.3710 N.am  290  ASN290     -0.1974
    137  CA        61.0170   17.8420 -187.4100 C.3   290  ASN290      0.1688
    138  C         60.6210   16.4830 -187.9930 C.2   290  ASN290      0.2292
    139  O         59.4360   16.1980 -188.1750 O.2   290  ASN290     -0.2864
    140  CB        61.4130   18.8030 -188.5270 C.3   290  ASN290      0.1181
    141  CG        61.3940   20.2370 -188.0660 C.2   290  ASN290      0.2629
    142  OD1       61.1200   20.5240 -186.8860 O.2   290  ASN290     -0.2716
    143  ND2       61.6950   21.1510 -188.9760 N.am  290  ASN290     -0.0877
    144  N         60.3910   13.5410 -184.1630 N.3   293  ASP293     -0.1239
    145  CA        59.4440   13.6910 -183.0510 C.3   293  ASP293      0.1674
    146  C         58.1810   12.8810 -183.3160 C.2   293  ASP293      0.2266
    147  O         57.6680   12.8700 -184.4380 O.2   293  ASP293     -0.2867
    148  CB        59.0570   15.1570 -182.8250 C.3   293  ASP293      0.1410
    149  CG        60.1220   15.9500 -182.0760 C.2   293  ASP293      0.3668
    150  OD1       61.2370   15.4060 -181.8660 O.co2 293  ASP293     -0.2456
    151  OD2       59.8380   17.1260 -181.7080 O.co2 293  ASP293     -0.2456
    152  N         55.2530   13.4600 -182.6610 N.3   295  HIS295     -0.1226
    153  CA        54.1200   14.2900 -183.0430 C.3   295  HIS295      0.1752
    154  C         54.4260   15.1570 -184.2620 C.2   295  HIS295      0.2595
    155  O         53.6590   16.0630 -184.6200 O.2   295  HIS295     -0.2718
    156  CB        53.6840   15.1670 -181.8720 C.3   295  HIS295      0.0759
    157  CG        54.7810   16.0110 -181.3010 C.ar  295  HIS295      0.0818
    158  ND1       55.8300   15.4800 -180.5790 N.ar  295  HIS295     -0.2268
    159  CD2       54.9790   17.3510 -181.3220 C.ar  295  HIS295      0.1154
    160  CE1       56.6350   16.4550 -180.1930 C.ar  295  HIS295      0.1986
    161  NE2       56.1400   17.6010 -180.6300 N.ar  295  HIS295     -0.2212
    162  N         55.5670   14.9050 -184.8810 N.am  296  ARG296     -0.1980
    163  CA        55.8670   15.5510 -186.1480 C.3   296  ARG296      0.1597
    164  C         55.8410   14.4860 -187.2470 C.2   296  ARG296      0.2287
    165  O         54.9040   13.6870 -187.3170 O.2   296  ARG296     -0.2864
    166  CB        57.2090   16.2830 -186.0950 C.3   296  ARG296      0.0334
    167  CG        57.3200   17.3270 -184.9880 C.3   296  ARG296      0.0492
    168  CD        56.3060   18.4550 -185.0940 C.3   296  ARG296      0.2205
    169  NE        56.4010   19.2070 -186.3500 N.pl3 296  ARG296     -0.0865
    170  CZ        57.4050   20.0160 -186.6850 C.cat 296  ARG296      0.5346
    171  NH1       58.4360   20.1870 -185.8810 N.pl3 296  ARG296      0.1354
    172  NH2       57.3840   20.6490 -187.8460 N.pl3 296  ARG296      0.1354
    173  N         67.6410   24.6680 -174.3540 N.3   371  TRP371     -0.1241
    174  CA        67.4430   24.9750 -175.7730 C.3   371  TRP371      0.1605
    175  C         68.7550   25.1470 -176.5010 C.2   371  TRP371      0.2264
    176  O         68.8090   24.9330 -177.7000 O.2   371  TRP371     -0.2867
    177  CB        66.5570   26.1990 -175.9690 C.3   371  TRP371      0.0550
    178  CG        65.0980   25.9240 -175.7040 C.ar  371  TRP371      0.0003
    179  CD1       64.5540   25.4180 -174.5600 C.ar  371  TRP371      0.0946
    180  CD2       64.0040   26.1480 -176.6020 C.ar  371  TRP371      0.0152
    181  NE1       63.1870   25.3160 -174.6870 N.ar  371  TRP371     -0.2442
    182  CE2       62.8270   25.7530 -175.9290 C.ar  371  TRP371      0.0810
    183  CE3       63.9070   26.6500 -177.9060 C.ar  371  TRP371      0.0012
    184  CZ2       61.5670   25.8450 -176.5200 C.ar  371  TRP371      0.0191
    185  CZ3       62.6510   26.7350 -178.4950 C.ar  371  TRP371      0.0001
    186  CH2       61.4970   26.3350 -177.7990 C.ar  371  TRP371      0.0015
    187  N         57.0140   35.6510 -177.4010 N.3   399  TYR399     -0.1241
    188  CA        55.8950   34.9090 -177.9730 C.3   399  TYR399      0.1605
    189  C         54.6310   35.7290 -177.7520 C.2   399  TYR399      0.2264
    190  O         54.5880   36.5820 -176.8680 O.2   399  TYR399     -0.2867
    191  CB        55.7640   33.5230 -177.3330 C.3   399  TYR399      0.0534
    192  CG        57.0970   32.8900 -177.0270 C.ar  399  TYR399     -0.0201
    193  CD1       57.8530   32.2870 -178.0280 C.ar  399  TYR399     -0.0009
    194  CD2       57.6130   32.9130 -175.7320 C.ar  399  TYR399     -0.0009
    195  CE1       59.0830   31.7180 -177.7400 C.ar  399  TYR399      0.0417
    196  CE2       58.8360   32.3470 -175.4370 C.ar  399  TYR399      0.0417
    197  CZ        59.5670   31.7540 -176.4390 C.ar  399  TYR399      0.1957
    198  OH        60.7850   31.2020 -176.1260 O.3   399  TYR399     -0.2866
@<TRIPOS>BOND
     1    77    76    1
     2    39    45    1
     3    39    40    1
     4    45    44    1
     5    92    94   ar
     6    92    89   ar
     7    86    87    1
     8    86    83    1
     9    94    95   ar
    10   103   105   ar
    11   103   101   ar
    12   105   106   ar
    13    81    80    2
    14    76    73    1
    15    28    27    2
    16    89    87   ar
    17    89    91   ar
    18    87    88   ar
    19    27    26    1
    20    83    82    1
    21    83    84    1
    22    40    41    1
    23    40    43    1
    24    95    93   ar
    25    80    82   am
    26    80    79    1
    27    41    42    2
    28    96    84   am
    29    96    97    1
    30   100   101    1
    31   100    97    1
    32   101   102   ar
    33    91    93   ar
    34    91    90   ar
    35    44    43    1
    36   106   107    1
    37   106   104   ar
    38    88    90   ar
    39    78    79    1
    40    78    74   am
    41    73    74    1
    42    73    72    1
    43    84    85    2
    44    74    75    2
    45    29    26    1
    46    29    30    1
    47    26    25    1
    48    99    98    2
    49    97    98    1
    50    32    31    2
    51    72    63   am
    52   102   104   ar
    53    98   108   am
    54    63    64    2
    55    63    62    1
    56    30    31    1
    57    31    33   am
    58    62    61    1
    59    62    65    1
    60    46    47    1
    61   143   141   am
    62   140   141    1
    63   140   137    1
    64   108   109    1
    65   139   138    2
    66   110   111    2
    67   110   109    1
    68   141   142    2
    69    48    47    1
    70    48    49    2
    71   138   137    1
    72    47    50    1
    73   172   170    1
    74   109   112    1
    75    65    66    1
    76   137   136    1
    77   165   164    2
    78   164   163    1
    79   118   119    2
    80   118   117    1
    81    34    35    1
    82    36    35    1
    83    36    37    2
    84   124   122   ar
    85   120   117    1
    86   120   121    1
    87   170   169    2
    88   170   171    1
    89    66    67   ar
    90    66    68   ar
    91    50    52    1
    92    50    51    1
    93    67    69   ar
    94   136   127   am
    95   169   168    1
    96   112   113    1
    97   117   116    1
    98    35    38    1
    99   163   166    1
   100   163   162    1
   101   166   167    1
   102   122   121    1
   103   122   123   ar
   104    68    70   ar
   105   113   114    1
   106    69    71   ar
   107   127   128    2
   108   127   126    1
   109   168   167    1
   110   162   154   am
   111   125   126    1
   112    70    71   ar
   113   155   154    2
   114   147   146    2
   115   154   153    1
   116   126   129    1
   117   144   145    1
   118    53    54    1
   119    56    55    2
   120   114   115    1
   121   129   130    1
   122   146   145    1
   123   145   148    1
   124   153   152    1
   125   153   156    1
   126   148   149    1
   127    55    54    1
   128    54    57    1
   129   130   131    1
   130    57    58    1
   131    58    59    1
   132    24    23    1
   133   149   150   ar
   134   149   151   ar
   135   156   157    1
   136    59    60    1
   137   131   132    1
   138   159   157   ar
   139   159   161   ar
   140   157   158   ar
   141   132   133    2
   142    23    20    1
   143   161   160   ar
   144   158   160   ar
   145   133   135    1
   146   133   134    1
   147    20    21    1
   148    20    19    1
   149    21    22    2
   150   185   183   ar
   151   185   186   ar
   152   193   195   ar
   153   193   192   ar
   154   188   189    1
   155   188   187    1
   156   188   191    1
   157   183   180   ar
   158   186   184   ar
   159   189   190    2
   160   195   197   ar
   161   176   175    2
   162    18    16   ar
   163    18    17   ar
   164   191   192    1
   165   192   194   ar
   166    16    14   ar
   167   180   182   ar
   168   180   178   ar
   169   184   182   ar
   170   175   174    1
   171    17    15   ar
   172   197   198    1
   173   197   196   ar
   174   177   174    1
   175   177   178    1
   176   182   181   ar
   177   174   173    1
   178   194   196   ar
   179   178   179   ar
   180    14    13   ar
   181     6     5    1
   182    15    13   ar
   183    13    12    1
   184   181   179   ar
   185     7     5    1
   186     5     2    1
   187     4     3    2
   188    12     9    1
   189     2     3    1
   190     2     1    1
   191     3     8   am
   192     8     9    1
   193     9    10    1
   194    10    11    2
