@<TRIPOS>MOLECULE
tmp/5uoaA01.pdb
 181 178 0 0 0
SMALL
GASTEIGER

@<TRIPOS>ATOM
      1  N         -9.3270    9.4090  -27.7060 N.3    37  VAL37      -0.1231
      2  CA        -9.4110   10.7590  -28.2800 C.3    37  VAL37       0.1692
      3  C         -8.9560   10.8240  -29.7500 C.2    37  VAL37       0.2592
      4  O         -9.6270   11.4370  -30.5880 O.2    37  VAL37      -0.2718
      5  CB        -8.5840   11.7670  -27.4710 C.3    37  VAL37       0.0266
      6  CG1       -8.6550   13.1420  -28.1250 C.3    37  VAL37       0.0020
      7  CG2       -9.0940   11.8480  -26.0510 C.3    37  VAL37       0.0020
      8  N         -7.8210   10.1950  -30.0510 N.am   38  PHE38      -0.1976
      9  CA        -7.2940   10.1380  -31.4130 C.3    38  PHE38       0.1639
     10  C         -7.1280    8.6960  -31.8960 C.2    38  PHE38       0.2290
     11  O         -6.0900    8.0830  -31.6520 O.2    38  PHE38      -0.2864
     12  CB        -5.9390   10.8540  -31.4990 C.3    38  PHE38       0.0560
     13  CG        -5.9920   12.3370  -31.1840 C.ar   38  PHE38      -0.0200
     14  CD1       -5.6550   12.8080  -29.9210 C.ar   38  PHE38      -0.0042
     15  CD2       -6.3400   13.2580  -32.1580 C.ar   38  PHE38      -0.0042
     16  CE1       -5.6830   14.1640  -29.6340 C.ar   38  PHE38      -0.0003
     17  CE2       -6.3740   14.6250  -31.8690 C.ar   38  PHE38      -0.0003
     18  CZ        -6.0430   15.0720  -30.6090 C.ar   38  PHE38      -0.0000
     19  N        -19.8230   16.4450  -32.8970 N.3   105  CYS105     -0.1235
     20  CA       -20.4170   17.7980  -32.7560 C.3   105  CYS105      0.1677
     21  C        -21.8870   17.7190  -32.3470 C.2   105  CYS105      0.2270
     22  O        -22.6770   17.0580  -33.0150 O.2   105  CYS105     -0.2867
     23  CB       -20.2840   18.6350  -34.0630 C.3   105  CYS105      0.0956
     24  SG       -21.0630   20.3650  -34.0660 S.3   105  CYS105     -0.0801
     25  N         -4.0930   26.6340  -32.6250 N.3   167  SER167     -0.1202
     26  CA        -5.1260   25.6060  -32.5430 C.3   167  SER167      0.2020
     27  C         -6.5020   26.2530  -32.7120 C.2   167  SER167      0.2618
     28  O         -7.3990   25.6970  -33.3490 O.2   167  SER167     -0.2717
     29  CB        -5.0310   24.8490  -31.2110 C.3   167  SER167      0.2103
     30  OG        -5.1010   25.7390  -30.1050 O.3   167  SER167     -0.2182
     31  N         -6.6650   27.4380  -32.1340 N.am  168  GLN168     -0.1979
     32  CA        -7.8170   28.2790  -32.4570 C.3   168  GLN168      0.1601
     33  C         -7.3530   29.6730  -32.8350 C.2   168  GLN168      0.2287
     34  O         -6.1950   30.0220  -32.6050 O.2   168  GLN168     -0.2864
     35  CB        -8.7940   28.3410  -31.2920 C.3   168  GLN168      0.0394
     36  CG        -9.1560   26.9840  -30.7530 C.3   168  GLN168      0.0908
     37  CD       -10.0940   27.0590  -29.5780 C.2   168  GLN168      0.2608
     38  OE1      -10.8070   28.0520  -29.3890 O.2   168  GLN168     -0.2717
     39  NE2      -10.0960   26.0100  -28.7720 N.am  168  GLN168     -0.0878
     40  N        -15.6830   30.5670  -30.7510 N.3   255  PRO255     -0.2116
     41  CA       -14.9540   29.2940  -30.8550 C.3   255  PRO255      0.1372
     42  C        -14.5440   29.0580  -32.2980 C.2   255  PRO255      0.2244
     43  O        -15.3990   28.7680  -33.1480 O.2   255  PRO255     -0.2868
     44  CB       -15.9690   28.2510  -30.3800 C.3   255  PRO255      0.0268
     45  CG       -17.3100   28.8510  -30.7080 C.3   255  PRO255      0.0207
     46  CD       -17.1400   30.3770  -30.6200 C.3   255  PRO255      0.0892
     47  N        -11.9190   26.9440  -34.3070 N.3   257  VAL257     -0.1245
     48  CA       -10.9290   25.8690  -34.4020 C.3   257  VAL257      0.1561
     49  C        -10.2730   25.8380  -35.7700 C.2   257  VAL257      0.2260
     50  O        -10.9580   25.7970  -36.7930 O.2   257  VAL257     -0.2867
     51  CB       -11.5750   24.5090  -34.1170 C.3   257  VAL257      0.0252
     52  CG1      -10.7280   23.3730  -34.6920 C.3   257  VAL257      0.0019
     53  CG2      -11.7820   24.3450  -32.6130 C.3   257  VAL257      0.0019
     54  N         -6.7500   24.1970  -36.5590 N.3   259  ASN259     -0.1225
     55  CA        -5.7080   23.2120  -36.8650 C.3   259  ASN259      0.1785
     56  C         -6.1820   21.8700  -37.4570 C.2   259  ASN259      0.2597
     57  O         -5.3810   20.9570  -37.6240 O.2   259  ASN259     -0.2718
     58  CB        -4.8900   22.9400  -35.5990 C.3   259  ASN259      0.1169
     59  CG        -5.7160   22.3300  -34.4940 C.2   259  ASN259      0.2627
     60  OD1       -6.9470   22.3290  -34.5510 O.2   259  ASN259     -0.2716
     61  ND2       -5.0450   21.8140  -33.4700 N.am  259  ASN259     -0.0877
     62  N         -7.4670   21.7490  -37.7800 N.am  260  MET260     -0.1979
     63  CA        -7.9730   20.5180  -38.3710 C.3   260  MET260      0.1605
     64  C         -7.9250   20.5730  -39.8800 C.2   260  MET260      0.2287
     65  O         -8.0140   21.6480  -40.4870 O.2   260  MET260     -0.2864
     66  CB        -9.4020   20.2350  -37.9300 C.3   260  MET260      0.0413
     67  CG        -9.5380   19.8130  -36.4770 C.3   260  MET260      0.0598
     68  SD       -11.2290   19.3170  -36.0970 S.3   260  MET260     -0.1393
     69  CE       -11.2540   17.6980  -36.8820 C.3   260  MET260      0.0692
     70  N        -12.8450   26.9290  -39.0770 N.3   274  PHE274     -0.1227
     71  CA       -14.2950   26.9890  -38.9170 C.3   274  PHE274      0.1736
     72  C        -14.6860   27.4480  -37.5120 C.2   274  PHE274      0.2596
     73  O        -13.9660   27.2180  -36.5330 O.2   274  PHE274     -0.2718
     74  CB       -14.9490   25.6400  -39.2250 C.3   274  PHE274      0.0547
     75  CG       -14.2630   24.4570  -38.5900 C.ar  274  PHE274     -0.0202
     76  CD1      -14.6940   23.9610  -37.3710 C.ar  274  PHE274     -0.0042
     77  CD2      -13.2070   23.8150  -39.2390 C.ar  274  PHE274     -0.0042
     78  CE1      -14.0710   22.8560  -36.7960 C.ar  274  PHE274     -0.0003
     79  CE2      -12.5830   22.7220  -38.6710 C.ar  274  PHE274     -0.0003
     80  CZ       -13.0100   22.2450  -37.4510 C.ar  274  PHE274     -0.0000
     81  N        -15.8450   28.0860  -37.4240 N.am  275  SER275     -0.1938
     82  CA       -16.2970   28.6850  -36.1950 C.3   275  SER275      0.2055
     83  C        -17.8010   28.5290  -36.0440 C.2   275  SER275      0.2644
     84  O        -18.5310   28.5570  -37.0370 O.2   275  SER275     -0.2714
     85  CB       -15.9190   30.1750  -36.1730 C.3   275  SER275      0.2130
     86  OG       -17.0100   30.9850  -36.5880 O.3   275  SER275     -0.2179
     87  N        -18.2730   28.4130  -34.8080 N.am  276  GLY276     -0.1939
     88  CA       -19.6980   28.4790  -34.5520 C.3   276  GLY276      0.2014
     89  C        -19.9820   29.4640  -33.4350 C.2   276  GLY276      0.2639
     90  O        -19.5400   30.6150  -33.4580 O.2   276  GLY276     -0.2714
     91  N        -20.7450   29.0120  -32.4560 N.am  277  TRP277     -0.1959
     92  CA       -20.8280   29.6880  -31.1710 C.3   277  TRP277      0.1771
     93  C        -20.7250   28.6640  -30.0370 C.2   277  TRP277      0.2620
     94  O        -20.9290   27.4690  -30.2600 O.2   277  TRP277     -0.2715
     95  CB       -22.1210   30.4620  -31.0620 C.3   277  TRP277      0.0590
     96  CG       -23.3190   29.6470  -31.3720 C.ar  277  TRP277      0.0006
     97  CD1      -23.9590   28.7610  -30.5400 C.ar  277  TRP277      0.0946
     98  CD2      -24.0550   29.6510  -32.5960 C.ar  277  TRP277      0.0152
     99  NE1      -25.0500   28.2190  -31.1780 N.ar  277  TRP277     -0.2442
    100  CE2      -25.1300   28.7490  -32.4450 C.ar  277  TRP277      0.0810
    101  CE3      -23.9150   30.3390  -33.8100 C.ar  277  TRP277      0.0012
    102  CZ2      -26.0520   28.5100  -33.4650 C.ar  277  TRP277      0.0191
    103  CZ3      -24.8280   30.0990  -34.8190 C.ar  277  TRP277      0.0001
    104  CH2      -25.8810   29.1890  -34.6430 C.ar  277  TRP277      0.0015
    105  N        -20.4250   29.1350  -28.8290 N.am  278  TYR278     -0.1960
    106  CA       -20.1580   28.2680  -27.6710 C.3   278  TYR278      0.1771
    107  C        -21.3970   27.6130  -27.0470 C.2   278  TYR278      0.2619
    108  O        -22.4650   28.2230  -26.9790 O.2   278  TYR278     -0.2715
    109  CB       -19.4330   29.0690  -26.5930 C.3   278  TYR278      0.0574
    110  CG       -17.9230   29.0350  -26.6610 C.ar  278  TYR278     -0.0198
    111  CD1      -17.2390   27.8580  -26.4850 C.ar  278  TYR278     -0.0009
    112  CD2      -17.1810   30.1910  -26.8390 C.ar  278  TYR278     -0.0009
    113  CE1      -15.8540   27.8200  -26.5200 C.ar  278  TYR278      0.0417
    114  CE2      -15.7920   30.1660  -26.8710 C.ar  278  TYR278      0.0417
    115  CZ       -15.1360   28.9740  -26.7090 C.ar  278  TYR278      0.1957
    116  OH       -13.7560   28.9040  -26.7360 O.3   278  TYR278     -0.2866
    117  N        -21.2450   26.3610  -26.6160 N.am  279  MET279     -0.1977
    118  CA       -22.1640   25.7450  -25.6540 C.3   279  MET279      0.1605
    119  C        -21.6440   26.1340  -24.2400 C.2   279  MET279      0.2287
    120  O        -20.4250   26.0630  -23.9890 O.2   279  MET279     -0.2864
    121  CB       -22.2340   24.1960  -25.8670 C.3   279  MET279      0.0413
    122  CG       -23.3900   23.4960  -25.1330 C.3   279  MET279      0.0598
    123  SD       -23.6100   21.6910  -25.2890 S.3   279  MET279     -0.1393
    124  CE       -22.0070   21.0760  -24.7860 C.3   279  MET279      0.0692
    125  N        -18.7630   24.0630  -22.2010 N.3   282  GLU282     -0.1245
    126  CA       -17.3810   24.0990  -22.7010 C.3   282  GLU282      0.1567
    127  C        -16.5370   25.1830  -22.0340 C.2   282  GLU282      0.2260
    128  O        -15.3360   24.9910  -21.7890 O.2   282  GLU282     -0.2867
    129  CB       -17.3410   24.3460  -24.2030 C.3   282  GLU282      0.0388
    130  CG       -17.9520   23.3110  -25.1120 C.3   282  GLU282      0.1160
    131  CD       -17.9010   23.7680  -26.5900 C.2   282  GLU282      0.3649
    132  OE1      -16.8620   23.5540  -27.2590 O.co2 282  GLU282     -0.2457
    133  OE2      -18.8930   24.3660  -27.0640 O.co2 282  GLU282     -0.2457
    134  N        -15.3490   22.6580  -18.9150 N.3   286  ARG286     -0.1245
    135  CA       -14.0350   22.2870  -19.4120 C.3   286  ARG286      0.1563
    136  C        -13.0060   23.4090  -19.2810 C.2   286  ARG286      0.2260
    137  O        -11.9370   23.2000  -18.7120 O.2   286  ARG286     -0.2867
    138  CB       -14.1050   21.8380  -20.8700 C.3   286  ARG286      0.0307
    139  CG       -12.7890   21.2140  -21.3400 C.3   286  ARG286      0.0489
    140  CD       -12.4650   21.5740  -22.7810 C.3   286  ARG286      0.2205
    141  NE       -13.6130   21.3840  -23.6590 N.pl3 286  ARG286     -0.0865
    142  CZ       -13.8950   22.1800  -24.6810 C.cat 286  ARG286      0.5346
    143  NH1      -13.1090   23.2110  -24.9380 N.pl3 286  ARG286      0.1354
    144  NH2      -14.9570   21.9520  -25.4390 N.pl3 286  ARG286      0.1354
    145  N         -6.6700   22.9940  -16.9550 N.3   293  ARG293     -0.1245
    146  CA        -7.0100   24.2420  -17.6320 C.3   293  ARG293      0.1563
    147  C         -6.8700   25.4100  -16.6460 C.2   293  ARG293      0.2260
    148  O         -5.7800   25.6310  -16.1170 O.2   293  ARG293     -0.2867
    149  CB        -8.4200   24.1790  -18.2230 C.3   293  ARG293      0.0307
    150  CG        -8.5430   23.1650  -19.3330 C.3   293  ARG293      0.0489
    151  CD        -7.4050   23.3120  -20.3450 C.3   293  ARG293      0.2205
    152  NE        -7.5200   24.5540  -21.0960 N.pl3 293  ARG293     -0.0865
    153  CZ        -8.4710   24.7840  -21.9960 C.cat 293  ARG293      0.5346
    154  NH1       -9.3800   23.8480  -22.2650 N.pl3 293  ARG293      0.1354
    155  NH2       -8.5140   25.9430  -22.6370 N.pl3 293  ARG293      0.1354
    156  N        -18.9560   12.0140  -26.4680 N.3   368  TRP368     -0.1241
    157  CA       -18.6970   13.4400  -26.7340 C.3   368  TRP368      0.1605
    158  C        -19.9840   14.2300  -26.8900 C.2   368  TRP368      0.2264
    159  O        -20.0120   15.4190  -26.6070 O.2   368  TRP368     -0.2867
    160  CB       -17.8310   13.6220  -27.9810 C.3   368  TRP368      0.0550
    161  CG       -16.4070   13.1890  -27.7840 C.ar  368  TRP368      0.0003
    162  CD1      -15.9360   11.9060  -27.6890 C.ar  368  TRP368      0.0946
    163  CD2      -15.2710   14.0400  -27.6560 C.ar  368  TRP368      0.0152
    164  NE1      -14.5740   11.9100  -27.5100 N.ar  368  TRP368     -0.2442
    165  CE2      -14.1410   13.2100  -27.4870 C.ar  368  TRP368      0.0810
    166  CE3      -15.0950   15.4240  -27.6740 C.ar  368  TRP368      0.0012
    167  CZ2      -12.8570   13.7240  -27.3340 C.ar  368  TRP368      0.0191
    168  CZ3      -13.8170   15.9320  -27.5210 C.ar  368  TRP368      0.0001
    169  CH2      -12.7160   15.0880  -27.3540 C.ar  368  TRP368      0.0015
    170  N         -7.9910   15.2420  -37.8740 N.3   396  TYR396     -0.1241
    171  CA        -6.8430   15.8450  -37.2190 C.3   396  TYR396      0.1605
    172  C         -5.6310   15.6470  -38.1060 C.2   396  TYR396      0.2264
    173  O         -5.6910   14.9100  -39.0880 O.2   396  TYR396     -0.2867
    174  CB        -6.5960   15.2470  -35.8390 C.3   396  TYR396      0.0534
    175  CG        -7.7700   15.3580  -34.9020 C.ar  396  TYR396     -0.0201
    176  CD1       -8.0700   16.5600  -34.2610 C.ar  396  TYR396     -0.0009
    177  CD2       -8.5750   14.2570  -34.6440 C.ar  396  TYR396     -0.0009
    178  CE1       -9.1460   16.6570  -33.3990 C.ar  396  TYR396      0.0417
    179  CE2       -9.6480   14.3420  -33.7810 C.ar  396  TYR396      0.0417
    180  CZ        -9.9300   15.5390  -33.1620 C.ar  396  TYR396      0.1957
    181  OH       -11.0030   15.6020  -32.3030 O.3   396  TYR396     -0.2866
@<TRIPOS>BOND
     1    65    64    2
     2    64    63    1
     3    77    79   ar
     4    77    75   ar
     5    74    71    1
     6    74    75    1
     7   173   172    2
     8    70    71    1
     9    71    72    1
    10    79    80   ar
    11    75    76   ar
    12    63    66    1
    13    63    62    1
    14   172   171    1
    15    66    67    1
    16   170   171    1
    17    62    56   am
    18    57    56    2
    19    72    81   am
    20    72    73    2
    21    56    55    1
    22    80    78   ar
    23    81    82    1
    24    76    78   ar
    25   171   174    1
    26    84    83    2
    27    69    68    1
    28    55    54    1
    29    55    58    1
    30    50    49    2
    31    86    85    1
    32    67    68    1
    33    82    85    1
    34    82    83    1
    35    83    87   am
    36   174   175    1
    37    49    48    1
    38    58    59    1
    39   175   177   ar
    40   175   176   ar
    41   103   104   ar
    42   103   101   ar
    43    87    88    1
    44    52    51    1
    45   177   179   ar
    46   104   102   ar
    47    88    89    1
    48    60    59    2
    49    59    61   am
    50    48    47    1
    51    48    51    1
    52   176   178   ar
    53    51    53    1
    54    24    23    1
    55    23    20    1
    56   101    98   ar
    57   179   180   ar
    58   102   100   ar
    59    90    89    2
    60    89    91   am
    61   178   180   ar
    62    28    27    2
    63   180   181    1
    64    43    42    2
    65    22    21    2
    66    19    20    1
    67    33    34    2
    68    33    32    1
    69    20    21    1
    70    27    26    1
    71    27    31   am
    72    25    26    1
    73    98   100   ar
    74    98    96   ar
    75    26    29    1
    76    32    31    1
    77    32    35    1
    78    91    92    1
    79   100    99   ar
    80    42    41    1
    81    15    17   ar
    82    15    13   ar
    83    10    11    2
    84    10     9    1
    85    17    18   ar
    86    12     9    1
    87    12    13    1
    88     9     8    1
    89    96    95    1
    90    96    97   ar
    91    35    36    1
    92    29    30    1
    93    13    14   ar
    94    99    97   ar
    95    92    95    1
    96    92    93    1
    97    41    40    1
    98    41    44    1
    99    36    37    1
   100    40    46    1
   101    45    46    1
   102    45    44    1
   103    18    16   ar
   104     4     3    2
   105    94    93    2
   106     8     3   am
   107    93   105   am
   108    14    16   ar
   109     3     2    1
   110    37    38    2
   111    37    39   am
   112   105   106    1
   113     2     1    1
   114     2     5    1
   115     6     5    1
   116   160   161    1
   117   160   157    1
   118   161   162   ar
   119   161   163   ar
   120   162   164   ar
   121   166   163   ar
   122   166   168   ar
   123   106   107    1
   124   106   109    1
   125   163   165   ar
   126   168   169   ar
   127   164   165   ar
   128   165   167   ar
   129     5     7    1
   130   169   167   ar
   131   132   131   ar
   132   133   131   ar
   133   107   108    2
   134   107   117   am
   135   158   157    1
   136   158   159    2
   137   114   112   ar
   138   114   115   ar
   139   112   110   ar
   140   116   115    1
   141   157   156    1
   142   115   113   ar
   143   110   109    1
   144   110   111   ar
   145   117   118    1
   146   131   130    1
   147   113   111   ar
   148   121   118    1
   149   121   122    1
   150   118   119    1
   151   144   142    1
   152   123   122    1
   153   123   124    1
   154   130   129    1
   155   143   142    1
   156   142   141    2
   157   119   120    2
   158   129   126    1
   159   141   140    1
   160   140   139    1
   161   126   125    1
   162   126   127    1
   163   155   153    1
   164   154   153    1
   165   127   128    2
   166   153   152    2
   167   139   138    1
   168   152   151    1
   169   138   135    1
   170   151   150    1
   171   135   136    1
   172   135   134    1
   173   150   149    1
   174   136   137    2
   175   149   146    1
   176   146   145    1
   177   146   147    1
   178   147   148    2
