@<TRIPOS>MOLECULE
tmp/5uoaA02.pdb
 102 98 0 0 0
SMALL
GASTEIGER

@<TRIPOS>ATOM
      1  N        -13.6380    5.3960  -26.6620 N.3    35  SER35      -0.1217
      2  CA       -13.3550    6.4970  -25.7400 C.3    35  SER35       0.1889
      3  C        -11.9840    7.1040  -26.0260 C.2    35  SER35       0.2288
      4  O        -11.5490    8.0340  -25.3490 O.2    35  SER35      -0.2866
      5  CB       -13.4100    6.0210  -24.2850 C.3    35  SER35       0.2089
      6  OG       -12.2970    5.1720  -24.0060 O.3    35  SER35      -0.2183
      7  N         -9.3270    9.4090  -27.7060 N.3    37  VAL37      -0.1245
      8  CA        -9.4110   10.7590  -28.2800 C.3    37  VAL37       0.1561
      9  C         -8.9560   10.8240  -29.7500 C.2    37  VAL37       0.2260
     10  O         -9.6270   11.4370  -30.5880 O.2    37  VAL37      -0.2867
     11  CB        -8.5840   11.7670  -27.4710 C.3    37  VAL37       0.0252
     12  CG1       -8.6550   13.1420  -28.1250 C.3    37  VAL37       0.0019
     13  CG2       -9.0940   11.8480  -26.0510 C.3    37  VAL37       0.0019
     14  N         -6.9510   32.2660  -28.7710 N.3   171  ARG171     -0.1245
     15  CA        -6.5080   31.4580  -27.6410 C.3   171  ARG171      0.1563
     16  C         -5.7410   32.3560  -26.6910 C.2   171  ARG171      0.2260
     17  O         -4.9520   33.2010  -27.1280 O.2   171  ARG171     -0.2867
     18  CB        -5.6210   30.2890  -28.0830 C.3   171  ARG171      0.0307
     19  CG        -6.3250   29.2120  -28.8980 C.3   171  ARG171      0.0489
     20  CD        -6.5950   27.9520  -28.0880 C.3   171  ARG171      0.2205
     21  NE        -7.7160   28.1230  -27.1740 N.pl3 171  ARG171     -0.0865
     22  CZ        -8.1960   27.1580  -26.3940 C.cat 171  ARG171      0.5346
     23  NH1       -7.6410   25.9490  -26.4190 N.pl3 171  ARG171      0.1354
     24  NH2       -9.2280   27.4000  -25.5890 N.pl3 171  ARG171      0.1354
     25  N         -3.1790   24.8210  -21.6270 N.3   187  ALA187     -0.1245
     26  CA        -3.3020   24.0690  -22.8710 C.3   187  ALA187      0.1562
     27  C         -2.5270   24.7390  -23.9980 C.2   187  ALA187      0.2260
     28  O         -2.1790   24.0860  -24.9840 O.2   187  ALA187     -0.2867
     29  CB        -4.7610   23.9180  -23.2590 C.3   187  ALA187      0.0290
     30  N        -15.3490   22.6580  -18.9150 N.3   286  ARG286     -0.1245
     31  CA       -14.0350   22.2870  -19.4120 C.3   286  ARG286      0.1563
     32  C        -13.0060   23.4090  -19.2810 C.2   286  ARG286      0.2260
     33  O        -11.9370   23.2000  -18.7120 O.2   286  ARG286     -0.2867
     34  CB       -14.1050   21.8380  -20.8700 C.3   286  ARG286      0.0307
     35  CG       -12.7890   21.2140  -21.3400 C.3   286  ARG286      0.0489
     36  CD       -12.4650   21.5740  -22.7810 C.3   286  ARG286      0.2205
     37  NE       -13.6130   21.3840  -23.6590 N.pl3 286  ARG286     -0.0865
     38  CZ       -13.8950   22.1800  -24.6810 C.cat 286  ARG286      0.5346
     39  NH1      -13.1090   23.2110  -24.9380 N.pl3 286  ARG286      0.1354
     40  NH2      -14.9570   21.9520  -25.4390 N.pl3 286  ARG286      0.1354
     41  N        -11.6270   22.4060  -15.5280 N.3   290  ASP290     -0.1225
     42  CA       -10.7050   21.2940  -15.7060 C.3   290  ASP290      0.1790
     43  C         -9.4170   21.5350  -14.9350 C.2   290  ASP290      0.2440
     44  O         -8.9030   22.6480  -14.8980 O.2   290  ASP290     -0.2733
     45  CB       -10.3950   21.0310  -17.1840 C.3   290  ASP290      0.1423
     46  CG       -11.2930   19.9570  -17.7800 C.2   290  ASP290      0.3668
     47  OD1      -12.1310   19.4150  -17.0190 O.co2 290  ASP290     -0.2456
     48  OD2      -11.1640   19.6470  -18.9900 O.co2 290  ASP290     -0.2456
     49  N         -8.8850   20.4710  -14.3260 N.am  291  PRO291     -0.2718
     50  CA        -7.7540   20.5930  -13.4090 C.3   291  PRO291      0.1535
     51  C         -6.5090   21.1630  -14.0720 C.2   291  PRO291      0.2599
     52  O         -5.7500   21.8640  -13.4100 O.2   291  PRO291     -0.2715
     53  CB        -7.5180   19.1390  -12.9570 C.3   291  PRO291      0.0310
     54  CG        -8.0370   18.3140  -14.0590 C.3   291  PRO291      0.0237
     55  CD        -9.2600   19.0620  -14.5410 C.3   291  PRO291      0.0939
     56  N         -6.2760   20.8410  -15.3420 N.am  292  HIS292     -0.1960
     57  CA        -5.1090   21.3730  -16.0440 C.3   292  HIS292      0.1787
     58  C         -5.4750   22.4260  -17.0920 C.2   292  HIS292      0.2620
     59  O         -4.6900   22.7110  -18.0020 O.2   292  HIS292     -0.2715
     60  CB        -4.3120   20.2500  -16.6910 C.3   292  HIS292      0.0785
     61  CG        -3.3810   19.5670  -15.7520 C.ar  292  HIS292      0.0821
     62  ND1       -3.7400   18.4360  -15.0280 N.ar  292  HIS292     -0.2267
     63  CD2       -2.1080   19.8370  -15.3860 C.ar  292  HIS292      0.1154
     64  CE1       -2.7350   18.0570  -14.2810 C.ar  292  HIS292      0.1986
     65  NE2       -1.7200   18.8940  -14.4750 N.ar  292  HIS292     -0.2212
     66  N         -6.6700   22.9940  -16.9550 N.am  293  ARG293     -0.1977
     67  CA        -7.0100   24.2420  -17.6320 C.3   293  ARG293      0.1597
     68  C         -6.8700   25.4100  -16.6460 C.2   293  ARG293      0.2287
     69  O         -5.7800   25.6310  -16.1170 O.2   293  ARG293     -0.2864
     70  CB        -8.4200   24.1790  -18.2230 C.3   293  ARG293      0.0334
     71  CG        -8.5430   23.1650  -19.3330 C.3   293  ARG293      0.0492
     72  CD        -7.4050   23.3120  -20.3450 C.3   293  ARG293      0.2205
     73  NE        -7.5200   24.5540  -21.0960 N.pl3 293  ARG293     -0.0865
     74  CZ        -8.4710   24.7840  -21.9960 C.cat 293  ARG293      0.5346
     75  NH1       -9.3800   23.8480  -22.2650 N.pl3 293  ARG293      0.1354
     76  NH2       -8.5140   25.9430  -22.6370 N.pl3 293  ARG293      0.1354
     77  N        -19.9280    9.4510  -26.1580 N.3   367  ALA367     -0.1231
     78  CA       -19.0330    9.9670  -25.1260 C.3   367  ALA367      0.1694
     79  C        -18.6930   11.4560  -25.2860 C.2   367  ALA367      0.2592
     80  O        -18.1760   12.0740  -24.3480 O.2   367  ALA367     -0.2718
     81  CB       -17.7500    9.1520  -25.1020 C.3   367  ALA367      0.0304
     82  N        -18.9560   12.0140  -26.4680 N.am  368  TRP368     -0.1976
     83  CA       -18.6970   13.4400  -26.7340 C.3   368  TRP368      0.1640
     84  C        -19.9840   14.2300  -26.8900 C.2   368  TRP368      0.2290
     85  O        -20.0120   15.4190  -26.6070 O.2   368  TRP368     -0.2864
     86  CB       -17.8310   13.6220  -27.9810 C.3   368  TRP368      0.0576
     87  CG       -16.4070   13.1890  -27.7840 C.ar  368  TRP368      0.0006
     88  CD1      -15.9360   11.9060  -27.6890 C.ar  368  TRP368      0.0946
     89  CD2      -15.2710   14.0400  -27.6560 C.ar  368  TRP368      0.0152
     90  NE1      -14.5740   11.9100  -27.5100 N.ar  368  TRP368     -0.2442
     91  CE2      -14.1410   13.2100  -27.4870 C.ar  368  TRP368      0.0810
     92  CE3      -15.0950   15.4240  -27.6740 C.ar  368  TRP368      0.0012
     93  CZ2      -12.8570   13.7240  -27.3340 C.ar  368  TRP368      0.0191
     94  CZ3      -13.8170   15.9320  -27.5210 C.ar  368  TRP368      0.0001
     95  CH2      -12.7160   15.0880  -27.3540 C.ar  368  TRP368      0.0015
     96  N        -22.7830   13.5670  -25.0560 N.3   370  VAL370     -0.1245
     97  CA       -23.2660   13.7860  -23.6860 C.3   370  VAL370      0.1561
     98  C        -22.4330   14.9120  -22.9970 C.2   370  VAL370      0.2260
     99  O        -21.1980   14.8690  -23.0100 O.2   370  VAL370     -0.2867
    100  CB       -23.2000   12.4840  -22.8440 C.3   370  VAL370      0.0252
    101  CG1      -23.6670   12.7420  -21.3910 C.3   370  VAL370      0.0019
    102  CG2      -24.0110   11.3500  -23.4920 C.3   370  VAL370      0.0019
@<TRIPOS>BOND
     1    10     9    2
     2     9     8    1
     3    19    20    1
     4    19    18    1
     5    14    15    1
     6     8     7    1
     7     8    11    1
     8    12    11    1
     9    20    21    1
    10    18    15    1
    11    86    87    1
    12    86    83    1
    13    87    88   ar
    14    87    89   ar
    15    88    90   ar
    16    92    89   ar
    17    92    94   ar
    18    89    91   ar
    19    15    16    1
    20    94    95   ar
    21    90    91   ar
    22    91    93   ar
    23    11    13    1
    24    95    93   ar
    25    21    22    2
    26    17    16    2
    27    84    83    1
    28    84    85    2
    29    83    82    1
    30     1     2    1
    31    82    79   am
    32    23    22    1
    33    22    24    1
    34    77    78    1
    35     3     2    1
    36     3     4    2
    37     2     5    1
    38    40    38    1
    39    79    78    1
    40    79    80    2
    41    78    81    1
    42    96    97    1
    43    28    27    2
    44    39    38    1
    45    38    37    2
    46     5     6    1
    47    27    26    1
    48    97    98    1
    49    97   100    1
    50    37    36    1
    51   102   100    1
    52    29    26    1
    53    99    98    2
    54    26    25    1
    55   100   101    1
    56    36    35    1
    57    76    74    1
    58    75    74    1
    59    74    73    2
    60    35    34    1
    61    73    72    1
    62    34    31    1
    63    72    71    1
    64    31    32    1
    65    31    30    1
    66    71    70    1
    67    32    33    2
    68    48    46   ar
    69    70    67    1
    70    59    58    2
    71    46    45    1
    72    46    47   ar
    73    67    66    1
    74    67    68    1
    75    45    42    1
    76    58    66   am
    77    58    57    1
    78    60    57    1
    79    60    61    1
    80    68    69    2
    81    57    56    1
    82    61    63   ar
    83    61    62   ar
    84    42    41    1
    85    42    43    1
    86    63    65   ar
    87    56    51   am
    88    62    64   ar
    89    43    44    2
    90    43    49   am
    91    55    49    1
    92    55    54    1
    93    65    64   ar
    94    49    50    1
    95    51    52    2
    96    51    50    1
    97    54    53    1
    98    50    53    1
