@<TRIPOS>MOLECULE
tmp/5uobB02.pdb
 191 186 0 0 0
SMALL
GASTEIGER

@<TRIPOS>ATOM
      1  N         72.1780   22.8770 -164.1120 N.3    38  VAL38      -0.1231
      2  CA        72.3970   21.5410 -163.5730 C.3    38  VAL38       0.1692
      3  C         72.2210   21.4850 -162.0510 C.2    38  VAL38       0.2592
      4  O         71.6280   20.5400 -161.5100 O.2    38  VAL38      -0.2718
      5  CB        73.7790   21.0190 -163.9360 C.3    38  VAL38       0.0266
      6  CG1       73.9870   19.6460 -163.3260 C.3    38  VAL38       0.0020
      7  CG2       73.9150   20.9630 -165.4540 C.3    38  VAL38       0.0020
      8  N         72.7420   22.4920 -161.3610 N.am   39  PHE39      -0.1976
      9  CA        72.6810   22.5100 -159.9040 C.3    39  PHE39       0.1639
     10  C         71.9950   23.7880 -159.4770 C.2    39  PHE39       0.2290
     11  O         72.6560   24.7900 -159.2310 O.2    39  PHE39      -0.2864
     12  CB        74.0870   22.4410 -159.3090 C.3    39  PHE39       0.0560
     13  CG        74.7810   21.1140 -159.5230 C.ar   39  PHE39      -0.0200
     14  CD1       74.3840   19.9840 -158.8180 C.ar   39  PHE39      -0.0042
     15  CD2       75.8470   21.0080 -160.4040 C.ar   39  PHE39      -0.0042
     16  CE1       75.0210   18.7640 -159.0110 C.ar   39  PHE39      -0.0003
     17  CE2       76.4950   19.8010 -160.5990 C.ar   39  PHE39      -0.0003
     18  CZ        76.0780   18.6700 -159.9080 C.ar   39  PHE39      -0.0000
     19  N         63.5890   12.0860 -162.8970 N.3   106  CYS106     -0.1235
     20  CA        63.5800   10.6250 -163.0840 C.3   106  CYS106      0.1677
     21  C         62.4400   10.1530 -163.9850 C.2   106  CYS106      0.2270
     22  O         61.2660   10.3610 -163.6650 O.2   106  CYS106     -0.2867
     23  CB        63.4870    9.8650 -161.7510 C.3   106  CYS106      0.0956
     24  SG        63.4850    8.0400 -161.9150 S.3   106  CYS106     -0.0801
     25  N         78.9050    6.4380 -157.6320 N.3   169  GLN169     -0.1245
     26  CA        78.1270    5.2020 -157.7390 C.3   169  GLN169      0.1566
     27  C         78.8610    4.0130 -157.0930 C.2   169  GLN169      0.2260
     28  O         80.0920    3.9950 -157.0230 O.2   169  GLN169     -0.2867
     29  CB        77.7900    4.8760 -159.2060 C.3   169  GLN169      0.0367
     30  CG        77.2140    6.0180 -160.0670 C.3   169  GLN169      0.0905
     31  CD        76.7300    5.4990 -161.4450 C.2   169  GLN169      0.2608
     32  OE1       76.4910    4.3010 -161.6140 O.2   169  GLN169     -0.2717
     33  NE2       76.5980    6.3980 -162.4220 N.am  169  GLN169     -0.0878
     34  N         81.7020    1.9380 -160.6440 N.3   172  ARG172     -0.1245
     35  CA        82.2650    2.9790 -161.4730 C.3   172  ARG172      0.1563
     36  C         83.5600    2.4540 -162.0560 C.2   172  ARG172      0.2260
     37  O         84.2720    1.7000 -161.3980 O.2   172  ARG172     -0.2867
     38  CB        82.5930    4.2000 -160.6170 C.3   172  ARG172      0.0307
     39  CG        81.3930    4.8800 -159.9940 C.3   172  ARG172      0.0489
     40  CD        81.0840    6.1700 -160.6990 C.3   172  ARG172      0.2205
     41  NE        80.6600    5.9250 -162.0670 N.pl3 172  ARG172     -0.0865
     42  CZ        80.5010    6.8760 -162.9760 C.cat 172  ARG172      0.5346
     43  NH1       80.7420    8.1460 -162.6630 N.pl3 172  ARG172      0.1354
     44  NH2       80.1070    6.5470 -164.2010 N.pl3 172  ARG172      0.1354
     45  N         85.5170   10.9120 -166.4120 N.3   188  ALA188     -0.1245
     46  CA        84.7350   11.5150 -165.3430 C.3   188  ALA188      0.1562
     47  C         85.1940   11.0620 -163.9540 C.2   188  ALA188      0.2260
     48  O         84.8160   11.6590 -162.9400 O.2   188  ALA188     -0.2867
     49  CB        83.2710   11.1840 -165.5220 C.3   188  ALA188      0.0290
     50  N         72.9220    0.4720 -162.0460 N.3   256  PRO256     -0.2116
     51  CA        73.1980    1.8890 -161.8030 C.3   256  PRO256      0.1372
     52  C         72.8590    2.2130 -160.3510 C.2   256  PRO256      0.2244
     53  O         71.6860    2.2550 -159.9810 O.2   256  PRO256     -0.2868
     54  CB        72.2410    2.5920 -162.7610 C.3   256  PRO256      0.0268
     55  CG        71.0660    1.6880 -162.8360 C.3   256  PRO256      0.0207
     56  CD        71.5800    0.2700 -162.6180 C.3   256  PRO256      0.0892
     57  N         73.4410    4.9230 -157.4940 N.3   258  VAL258     -0.1245
     58  CA        73.9150    6.2410 -157.0920 C.3   258  VAL258      0.1561
     59  C         74.0940    6.2910 -155.5880 C.2   258  VAL258      0.2260
     60  O         73.1490    6.0460 -154.8330 O.2   258  VAL258     -0.2867
     61  CB        72.9410    7.3380 -157.5200 C.3   258  VAL258      0.0252
     62  CG1       73.3960    8.7060 -156.9860 C.3   258  VAL258      0.0019
     63  CG2       72.8400    7.3510 -159.0160 C.3   258  VAL258      0.0019
     64  N         76.0620    8.9710 -153.8210 N.3   260  ASN260     -0.1225
     65  CA        76.4830   10.2900 -153.2880 C.3   260  ASN260      0.1785
     66  C         75.3850   11.3260 -153.0090 C.2   260  ASN260      0.2597
     67  O         75.6840   12.4780 -152.7630 O.2   260  ASN260     -0.2718
     68  CB        77.5510   10.9440 -154.1770 C.3   260  ASN260      0.1169
     69  CG        77.0350   11.2670 -155.5930 C.2   260  ASN260      0.2627
     70  OD1       75.8580   11.0790 -155.9100 O.2   260  ASN260     -0.2716
     71  ND2       77.9240   11.7640 -156.4370 N.am  260  ASN260     -0.0877
     72  N         74.1250   10.9240 -153.0660 N.am  261  MET261     -0.1979
     73  CA        73.0260   11.8330 -152.7930 C.3   261  MET261      0.1605
     74  C         72.5380   11.6810 -151.3660 C.2   261  MET261      0.2287
     75  O         72.6620   10.6160 -150.7440 O.2   261  MET261     -0.2864
     76  CB        71.8600   11.6140 -153.7630 C.3   261  MET261      0.0413
     77  CG        72.2740   11.6090 -155.2310 C.3   261  MET261      0.0598
     78  SD        70.9460   12.0440 -156.4010 S.3   261  MET261     -0.1393
     79  CE        70.6690   13.7430 -155.8890 C.3   261  MET261      0.0692
     80  N         70.9280    4.1910 -153.7270 N.3   275  PHE275     -0.1227
     81  CA        69.7490    3.6270 -154.3720 C.3   275  PHE275      0.1736
     82  C         70.1060    3.1420 -155.7750 C.2   275  PHE275      0.2596
     83  O         71.0920    3.5980 -156.3670 O.2   275  PHE275     -0.2718
     84  CB        68.6100    4.6560 -154.4090 C.3   275  PHE275      0.0547
     85  CG        68.9850    5.9600 -155.0750 C.ar  275  PHE275     -0.0202
     86  CD1       68.8370    6.1200 -156.4640 C.ar  275  PHE275     -0.0042
     87  CD2       69.4720    7.0240 -154.3210 C.ar  275  PHE275     -0.0042
     88  CE1       69.1800    7.3140 -157.0900 C.ar  275  PHE275     -0.0003
     89  CE2       69.8120    8.2290 -154.9360 C.ar  275  PHE275     -0.0003
     90  CZ        69.6730    8.3660 -156.3320 C.ar  275  PHE275     -0.0000
     91  N         69.3090    2.2210 -156.3110 N.am  276  SER276     -0.1938
     92  CA        69.5850    1.6810 -157.6360 C.3   276  SER276      0.2055
     93  C         68.3200    1.2240 -158.3540 C.2   276  SER276      0.2644
     94  O         67.3580    0.7880 -157.7310 O.2   276  SER276     -0.2714
     95  CB        70.6020    0.5320 -157.5500 C.3   276  SER276      0.2130
     96  OG        70.0780   -0.6120 -156.8800 O.3   276  SER276     -0.2179
     97  N         68.3280    1.3380 -159.6730 N.am  277  GLY277     -0.1939
     98  CA        67.2630    0.7930 -160.5020 C.3   277  GLY277      0.2014
     99  C         67.8680   -0.0590 -161.6010 C.2   277  GLY277      0.2639
    100  O         68.7060   -0.9080 -161.3240 O.2   277  GLY277     -0.2714
    101  N         67.4470    0.1650 -162.8410 N.am  278  TRP278     -0.1959
    102  CA        68.1040   -0.4160 -164.0100 C.3   278  TRP278      0.1771
    103  C         68.3040    0.6750 -165.0540 C.2   278  TRP278      0.2620
    104  O         67.7380    1.7520 -164.9410 O.2   278  TRP278     -0.2715
    105  CB        67.2850   -1.5610 -164.6200 C.3   278  TRP278      0.0590
    106  CG        65.8540   -1.2600 -164.7970 C.ar  278  TRP278      0.0006
    107  CD1       65.2870   -0.5780 -165.8260 C.ar  278  TRP278      0.0946
    108  CD2       64.7900   -1.6140 -163.9150 C.ar  278  TRP278      0.0152
    109  NE1       63.9270   -0.4990 -165.6520 N.ar  278  TRP278     -0.2442
    110  CE2       63.5990   -1.1180 -164.4760 C.ar  278  TRP278      0.0810
    111  CE3       64.7280   -2.3000 -162.6970 C.ar  278  TRP278      0.0012
    112  CZ2       62.3610   -1.2950 -163.8750 C.ar  278  TRP278      0.0191
    113  CZ3       63.4960   -2.4750 -162.0950 C.ar  278  TRP278      0.0001
    114  CH2       62.3280   -1.9800 -162.6860 C.ar  278  TRP278      0.0015
    115  N         69.0960    0.3870 -166.0760 N.am  279  TYR279     -0.1960
    116  CA        69.4270    1.3960 -167.0590 C.3   279  TYR279      0.1771
    117  C         68.3540    1.6710 -168.1190 C.2   279  TYR279      0.2619
    118  O         67.5600    0.8070 -168.4900 O.2   279  TYR279     -0.2715
    119  CB        70.7540    1.0710 -167.7410 C.3   279  TYR279      0.0574
    120  CG        71.9810    1.6540 -167.0590 C.ar  279  TYR279     -0.0198
    121  CD1       72.1190    3.0330 -166.8640 C.ar  279  TYR279     -0.0009
    122  CD2       73.0220    0.8330 -166.6560 C.ar  279  TYR279     -0.0009
    123  CE1       73.2530    3.5490 -166.2540 C.ar  279  TYR279      0.0417
    124  CE2       74.1540    1.3410 -166.0470 C.ar  279  TYR279      0.0417
    125  CZ        74.2680    2.6860 -165.8430 C.ar  279  TYR279      0.1957
    126  OH        75.4110    3.1620 -165.2400 O.3   279  TYR279     -0.2866
    127  N         68.3190    2.9220 -168.5650 N.am  280  MET280     -0.1977
    128  CA        67.7000    3.2680 -169.8220 C.3   280  MET280      0.1605
    129  C         68.8790    3.3200 -170.7670 C.2   280  MET280      0.2287
    130  O         69.9210    3.8830 -170.4170 O.2   280  MET280     -0.2864
    131  CB        67.0150    4.6280 -169.7430 C.3   280  MET280      0.0413
    132  CG        66.5490    5.1490 -171.1110 C.3   280  MET280      0.0598
    133  SD        65.0180    6.0840 -170.9760 S.3   280  MET280     -0.1393
    134  CE        65.6620    7.7270 -170.7590 C.3   280  MET280      0.0692
    135  N         71.3400    6.3050 -171.5270 N.3   283  GLU283     -0.1245
    136  CA        72.3250    6.7280 -170.5160 C.3   283  GLU283      0.1567
    137  C         73.6890    6.1030 -170.7920 C.2   283  GLU283      0.2260
    138  O         74.7210    6.7640 -170.6560 O.2   283  GLU283     -0.2867
    139  CB        71.8920    6.3360 -169.1020 C.3   283  GLU283      0.0388
    140  CG        70.4540    6.6600 -168.7310 C.3   283  GLU283      0.1160
    141  CD        70.1430    6.2340 -167.2920 C.2   283  GLU283      0.3649
    142  OE1       70.5750    6.9560 -166.3770 O.co2 283  GLU283     -0.2457
    143  OE2       69.5000    5.1720 -167.0750 O.co2 283  GLU283     -0.2457
    144  N         75.0020    9.2100 -173.4360 N.3   287  ARG287     -0.1245
    145  CA        75.7900    9.8830 -172.4010 C.3   287  ARG287      0.1563
    146  C         77.1520    9.2180 -172.1630 C.2   287  ARG287      0.2260
    147  O         78.1880    9.8150 -172.4140 O.2   287  ARG287     -0.2867
    148  CB        74.9940    9.9830 -171.1000 C.3   287  ARG287      0.0307
    149  CG        75.6220   10.8970 -170.0530 C.3   287  ARG287      0.0489
    150  CD        75.5520   10.2770 -168.6830 C.3   287  ARG287      0.2205
    151  NE        74.1820   10.0250 -168.2420 N.pl3 287  ARG287     -0.0865
    152  CZ        73.8530    9.1260 -167.3160 C.cat 287  ARG287      0.5346
    153  NH1       74.7970    8.3880 -166.7490 N.pl3 287  ARG287      0.1354
    154  NH2       72.5850    8.9570 -166.9570 N.pl3 287  ARG287      0.1354
    155  N         83.4050   11.8920 -171.9860 N.3   294  ARG294     -0.1245
    156  CA        83.2850   10.5410 -171.4850 C.3   294  ARG294      0.1563
    157  C         84.1380    9.6570 -172.4040 C.2   294  ARG294      0.2260
    158  O         85.2200   10.0600 -172.8300 O.2   294  ARG294     -0.2867
    159  CB        81.8220   10.1060 -171.4290 C.3   294  ARG294      0.0307
    160  CG        80.9590   10.9790 -170.5410 C.3   294  ARG294      0.0489
    161  CD        81.4920   10.9920 -169.0870 C.3   294  ARG294      0.2205
    162  NE        81.3620    9.6890 -168.4390 N.pl3 294  ARG294     -0.0865
    163  CZ        80.2560    9.2590 -167.8410 C.cat 294  ARG294      0.5346
    164  NH1       79.1740   10.0220 -167.7970 N.pl3 294  ARG294      0.1354
    165  NH2       80.2300    8.0640 -167.2720 N.pl3 294  ARG294      0.1354
    166  N         65.1360   17.1750 -168.5030 N.3   369  TRP369     -0.1241
    167  CA        65.7510   15.9400 -168.0380 C.3   369  TRP369      0.1605
    168  C         64.9660   14.6700 -168.4280 C.2   369  TRP369      0.2264
    169  O         65.5580   13.6370 -168.7390 O.2   369  TRP369     -0.2867
    170  CB        66.0680   16.0170 -166.5300 C.3   369  TRP369      0.0550
    171  CG        67.5000   16.3570 -166.2990 C.ar  369  TRP369      0.0003
    172  CD1       68.5190   15.4790 -166.0720 C.ar  369  TRP369      0.0946
    173  CD2       68.0900   17.6640 -166.3170 C.ar  369  TRP369      0.0152
    174  NE1       69.7080   16.1560 -165.9370 N.ar  369  TRP369     -0.2442
    175  CE2       69.4700   17.5010 -166.0800 C.ar  369  TRP369      0.0810
    176  CE3       67.5850   18.9530 -166.5030 C.ar  369  TRP369      0.0012
    177  CZ2       70.3490   18.5710 -166.0410 C.ar  369  TRP369      0.0191
    178  CZ3       68.4650   20.0290 -166.4510 C.ar  369  TRP369      0.0001
    179  CH2       69.8290   19.8270 -166.2260 C.ar  369  TRP369      0.0015
    180  N         71.4370   16.7400 -153.8000 N.3   397  TYR397     -0.1241
    181  CA        72.8790   16.6700 -153.9650 C.3   397  TYR397      0.1605
    182  C         73.5330   17.2310 -152.7020 C.2   397  TYR397      0.2264
    183  O         72.9220   18.0080 -151.9650 O.2   397  TYR397     -0.2867
    184  CB        73.3230   17.4900 -155.1700 C.3   397  TYR397      0.0534
    185  CG        72.4810   17.2610 -156.3900 C.ar  397  TYR397     -0.0201
    186  CD1       71.3400   18.0230 -156.6170 C.ar  397  TYR397     -0.0009
    187  CD2       72.8190   16.2790 -157.3150 C.ar  397  TYR397     -0.0009
    188  CE1       70.5560   17.8120 -157.7380 C.ar  397  TYR397      0.0417
    189  CE2       72.0440   16.0590 -158.4390 C.ar  397  TYR397      0.0417
    190  CZ        70.9130   16.8310 -158.6450 C.ar  397  TYR397      0.1957
    191  OH        70.1280   16.6310 -159.7580 O.3   397  TYR397     -0.2866
@<TRIPOS>BOND
     1   144   145    1
     2   158   157    2
     3   147   146    2
     4   157   156    1
     5   145   146    1
     6   145   148    1
     7   155   156    1
     8   135   136    1
     9   156   159    1
    10   159   160    1
    11   132   133    1
    12   132   131    1
    13   148   149    1
    14   133   134    1
    15   137   138    2
    16   137   136    1
    17   129   130    2
    18   129   128    1
    19   160   161    1
    20   136   139    1
    21   149   150    1
    22   128   131    1
    23   128   127    1
    24   139   140    1
    25   161   162    1
    26   169   168    2
    27   140   141    1
    28   150   151    1
    29   127   117   am
    30   166   167    1
    31   118   117    2
    32   162   163    2
    33   168   167    1
    34   151   152    2
    35   117   116    1
    36   167   170    1
    37   163   164    1
    38   163   165    1
    39   119   116    1
    40   119   120    1
    41   152   154    1
    42   152   153    1
    43   141   143   ar
    44   141   142   ar
    45   116   115    1
    46   120   121   ar
    47   120   122   ar
    48   121   123   ar
    49   122   124   ar
    50   170   171    1
    51   176   178   ar
    52   176   173   ar
    53   178   179   ar
    54    45    46    1
    55   173   171   ar
    56   173   175   ar
    57   171   172   ar
    58   123   125   ar
    59   179   177   ar
    60   175   177   ar
    61   175   174   ar
    62   115   103   am
    63   172   174   ar
    64   124   125   ar
    65   125   126    1
    66   107   109   ar
    67   107   106   ar
    68   109   110   ar
    69    49    46    1
    70     7     5    1
    71    46    47    1
    72   103   104    2
    73   103   102    1
    74   106   105    1
    75   106   108   ar
    76   105   102    1
    77   110   108   ar
    78   110   112   ar
    79    44    42    1
    80     1     2    1
    81   102   101    1
    82    21    22    2
    83    21    20    1
    84    47    48    2
    85     5     2    1
    86     5     6    1
    87   108   111   ar
    88   112   114   ar
    89     2     3    1
    90    20    19    1
    91    20    23    1
    92    42    43    1
    93    42    41    2
    94   101    99   am
    95    55    54    1
    96    55    56    1
    97    54    51    1
    98   111   113   ar
    99   114   113   ar
   100    56    50    1
   101    33    31   am
   102    41    40    1
   103    36    35    1
   104    36    37    2
   105     3     4    2
   106     3     8   am
   107    50    51    1
   108    24    23    1
   109    51    52    1
   110    32    31    2
   111    99   100    2
   112    99    98    1
   113    35    34    1
   114    35    38    1
   115    31    30    1
   116     8     9    1
   117    40    39    1
   118    38    39    1
   119    17    15   ar
   120    17    18   ar
   121    98    97    1
   122    15    13   ar
   123    52    53    2
   124    30    29    1
   125    18    16   ar
   126     9    10    1
   127     9    12    1
   128   191   190    1
   129    97    93   am
   130    13    12    1
   131    13    14   ar
   132    10    11    2
   133    29    26    1
   134    63    61    1
   135    16    14   ar
   136   190   189   ar
   137   190   188   ar
   138   189   187   ar
   139    93    94    2
   140    93    92    1
   141    26    25    1
   142    26    27    1
   143   188   186   ar
   144    92    95    1
   145    92    91    1
   146    95    96    1
   147    61    58    1
   148    61    62    1
   149    57    58    1
   150   187   185   ar
   151    27    28    2
   152    58    59    1
   153    88    86   ar
   154    88    90   ar
   155   186   185   ar
   156    86    85   ar
   157    71    69   am
   158    78    79    1
   159    78    77    1
   160   185   184    1
   161    83    82    2
   162    90    89   ar
   163    91    82   am
   164    70    69    2
   165    82    81    1
   166    69    68    1
   167    59    60    2
   168    77    76    1
   169   184   181    1
   170    85    84    1
   171    85    87   ar
   172    89    87   ar
   173    84    81    1
   174    81    80    1
   175    68    65    1
   176   181   180    1
   177   181   182    1
   178    64    65    1
   179    76    73    1
   180    65    66    1
   181    72    66   am
   182    72    73    1
   183    66    67    2
   184    73    74    1
   185   182   183    2
   186    74    75    2
