@<TRIPOS>MOLECULE
tmp/5uobB03.pdb
 98 96 0 0 0
SMALL
GASTEIGER

@<TRIPOS>ATOM
      1  N         67.4780   25.3550 -167.0160 N.3    36  SER36      -0.1217
      2  CA        68.4710   24.4610 -167.6320 C.3    36  SER36       0.1889
      3  C         69.7180   24.2850 -166.7710 C.2    36  SER36       0.2288
      4  O         70.6730   23.6240 -167.1730 O.2    36  SER36      -0.2866
      5  CB        68.8710   24.9680 -169.0240 C.3    36  SER36       0.2089
      6  OG        69.1890   26.3470 -168.9950 O.3    36  SER36      -0.2183
      7  N         72.1780   22.8770 -164.1120 N.3    38  VAL38      -0.1245
      8  CA        72.3970   21.5410 -163.5730 C.3    38  VAL38       0.1561
      9  C         72.2210   21.4850 -162.0510 C.2    38  VAL38       0.2260
     10  O         71.6280   20.5400 -161.5100 O.2    38  VAL38      -0.2867
     11  CB        73.7790   21.0190 -163.9360 C.3    38  VAL38       0.0252
     12  CG1       73.9870   19.6460 -163.3260 C.3    38  VAL38       0.0019
     13  CG2       73.9150   20.9630 -165.4540 C.3    38  VAL38       0.0019
     14  N         81.7020    1.9380 -160.6440 N.3   172  ARG172     -0.1245
     15  CA        82.2650    2.9790 -161.4730 C.3   172  ARG172      0.1563
     16  C         83.5600    2.4540 -162.0560 C.2   172  ARG172      0.2260
     17  O         84.2720    1.7000 -161.3980 O.2   172  ARG172     -0.2867
     18  CB        82.5930    4.2000 -160.6170 C.3   172  ARG172      0.0307
     19  CG        81.3930    4.8800 -159.9940 C.3   172  ARG172      0.0489
     20  CD        81.0840    6.1700 -160.6990 C.3   172  ARG172      0.2205
     21  NE        80.6600    5.9250 -162.0670 N.pl3 172  ARG172     -0.0865
     22  CZ        80.5010    6.8760 -162.9760 C.cat 172  ARG172      0.5346
     23  NH1       80.7420    8.1460 -162.6630 N.pl3 172  ARG172      0.1354
     24  NH2       80.1070    6.5470 -164.2010 N.pl3 172  ARG172      0.1354
     25  N         86.9620    9.2440 -168.0930 N.3   187  PRO187     -0.2102
     26  CA        87.5340   10.5540 -167.7510 C.3   187  PRO187      0.1504
     27  C         86.7760   11.2630 -166.6280 C.2   187  PRO187      0.2575
     28  O         87.3360   12.1210 -165.9730 O.2   187  PRO187     -0.2718
     29  CB        87.4050   11.3520 -169.0560 C.3   187  PRO187      0.0282
     30  CG        87.1630   10.3350 -170.1330 C.3   187  PRO187      0.0208
     31  CD        86.4150    9.2270 -169.4590 C.3   187  PRO187      0.0893
     32  N         85.5170   10.9120 -166.4120 N.am  188  ALA188     -0.1980
     33  CA        84.7350   11.5150 -165.3430 C.3   188  ALA188      0.1597
     34  C         85.1940   11.0620 -163.9540 C.2   188  ALA188      0.2287
     35  O         84.8160   11.6590 -162.9400 O.2   188  ALA188     -0.2864
     36  CB        83.2710   11.1840 -165.5220 C.3   188  ALA188      0.0319
     37  N         79.3990   11.1010 -175.2870 N.3   291  ASP291     -0.1225
     38  CA        79.8460   12.4080 -174.8120 C.3   291  ASP291      0.1790
     39  C         81.3590   12.5790 -174.9870 C.2   291  ASP291      0.2440
     40  O         82.1230   11.6490 -174.7500 O.2   291  ASP291     -0.2733
     41  CB        79.3920   12.6540 -173.3620 C.3   291  ASP291      0.1423
     42  CG        78.0020   13.3050 -173.2830 C.2   291  ASP291      0.3668
     43  OD1       77.4660   13.7120 -174.3320 O.co2 291  ASP291     -0.2456
     44  OD2       77.4370   13.4490 -172.1820 O.co2 291  ASP291     -0.2456
     45  N         81.7860   13.7600 -175.4590 N.am  292  PRO292     -0.2718
     46  CA        83.1930   14.0040 -175.8040 C.3   292  PRO292      0.1535
     47  C         84.1770   13.8760 -174.6290 C.2   292  PRO292      0.2599
     48  O         85.3610   13.6240 -174.8560 O.2   292  PRO292     -0.2715
     49  CB        83.1790   15.4470 -176.3240 C.3   292  PRO292      0.0310
     50  CG        81.9910   16.0670 -175.6700 C.3   292  PRO292      0.0237
     51  CD        80.9640   14.9690 -175.6230 C.3   292  PRO292      0.0939
     52  N         83.7130   14.0640 -173.4000 N.am  293  HIS293     -0.1960
     53  CA        84.6110   13.9400 -172.2590 C.3   293  HIS293      0.1787
     54  C         84.2150   12.7620 -171.4020 C.2   293  HIS293      0.2620
     55  O         84.6190   12.6380 -170.2510 O.2   293  HIS293     -0.2715
     56  CB        84.6890   15.2400 -171.4650 C.3   293  HIS293      0.0785
     57  CG        85.3980   16.3330 -172.1990 C.ar  293  HIS293      0.0821
     58  ND1       85.0150   17.6550 -172.1250 N.ar  293  HIS293     -0.2267
     59  CD2       86.4570   16.2960 -173.0430 C.ar  293  HIS293      0.1154
     60  CE1       85.8080   18.3850 -172.8910 C.ar  293  HIS293      0.1986
     61  NE2       86.6950   17.5860 -173.4560 N.ar  293  HIS293     -0.2212
     62  N         83.4050   11.8920 -171.9860 N.am  294  ARG294     -0.1977
     63  CA        83.2850   10.5410 -171.4850 C.3   294  ARG294      0.1597
     64  C         84.1380    9.6570 -172.4040 C.2   294  ARG294      0.2287
     65  O         85.2200   10.0600 -172.8300 O.2   294  ARG294     -0.2864
     66  CB        81.8220   10.1060 -171.4290 C.3   294  ARG294      0.0334
     67  CG        80.9590   10.9790 -170.5410 C.3   294  ARG294      0.0492
     68  CD        81.4920   10.9920 -169.0870 C.3   294  ARG294      0.2205
     69  NE        81.3620    9.6890 -168.4390 N.pl3 294  ARG294     -0.0865
     70  CZ        80.2560    9.2590 -167.8410 C.cat 294  ARG294      0.5346
     71  NH1       79.1740   10.0220 -167.7970 N.pl3 294  ARG294      0.1354
     72  NH2       80.2300    8.0640 -167.2720 N.pl3 294  ARG294      0.1354
     73  N         63.5850   19.2240 -169.4430 N.3   368  ALA368     -0.1231
     74  CA        64.9260   19.0960 -170.0010 C.3   368  ALA368      0.1694
     75  C         65.5940   17.7850 -169.5990 C.2   368  ALA368      0.2592
     76  O         66.5240   17.3410 -170.2610 O.2   368  ALA368     -0.2718
     77  CB        65.7860   20.2740 -169.5820 C.3   368  ALA368      0.0304
     78  N         65.1360   17.1750 -168.5030 N.am  369  TRP369     -0.1976
     79  CA        65.7510   15.9400 -168.0380 C.3   369  TRP369      0.1640
     80  C         64.9660   14.6700 -168.4280 C.2   369  TRP369      0.2290
     81  O         65.5580   13.6370 -168.7390 O.2   369  TRP369     -0.2864
     82  CB        66.0680   16.0170 -166.5300 C.3   369  TRP369      0.0576
     83  CG        67.5000   16.3570 -166.2990 C.ar  369  TRP369      0.0006
     84  CD1       68.5190   15.4790 -166.0720 C.ar  369  TRP369      0.0946
     85  CD2       68.0900   17.6640 -166.3170 C.ar  369  TRP369      0.0152
     86  NE1       69.7080   16.1560 -165.9370 N.ar  369  TRP369     -0.2442
     87  CE2       69.4700   17.5010 -166.0800 C.ar  369  TRP369      0.0810
     88  CE3       67.5850   18.9530 -166.5030 C.ar  369  TRP369      0.0012
     89  CZ2       70.3490   18.5710 -166.0410 C.ar  369  TRP369      0.0191
     90  CZ3       68.4650   20.0290 -166.4510 C.ar  369  TRP369      0.0001
     91  CH2       69.8290   19.8270 -166.2260 C.ar  369  TRP369      0.0015
     92  N         62.9550   14.3710 -171.2080 N.3   371  VAL371     -0.1245
     93  CA        63.1940   14.1170 -172.6270 C.3   371  VAL371      0.1561
     94  C         64.5620   13.4790 -172.8130 C.2   371  VAL371      0.2260
     95  O         65.5700   14.0440 -172.3890 O.2   371  VAL371     -0.2867
     96  CB        63.1070   15.4000 -173.4870 C.3   371  VAL371      0.0252
     97  CG1       63.3040   15.0740 -175.0010 C.3   371  VAL371      0.0019
     98  CG2       61.7740   16.1000 -173.2600 C.3   371  VAL371      0.0019
@<TRIPOS>BOND
     1    49    46    1
     2    49    50    1
     3    46    45    1
     4    46    47    1
     5    50    51    1
     6    51    45    1
     7    45    39   am
     8    37    38    1
     9    97    96    1
    10    39    38    1
    11    39    40    2
    12    48    47    2
    13    38    41    1
    14    47    52   am
    15    43    42   ar
    16    96    98    1
    17    96    93    1
    18    61    59   ar
    19    61    60   ar
    20    52    53    1
    21    41    42    1
    22    42    44   ar
    23    59    57   ar
    24    60    58   ar
    25    65    64    2
    26    94    93    1
    27    94    95    2
    28    93    92    1
    29    64    63    1
    30    53    56    1
    31    53    54    1
    32    57    58   ar
    33    57    56    1
    34    62    63    1
    35    62    54   am
    36    63    66    1
    37    66    67    1
    38    54    55    2
    39    67    68    1
    40    76    75    2
    41    30    31    1
    42    30    29    1
    43    74    75    1
    44    74    77    1
    45    74    73    1
    46    75    78   am
    47    31    25    1
    48    68    69    1
    49    29    26    1
    50     5     6    1
    51     5     2    1
    52    81    80    2
    53    78    79    1
    54    69    70    2
    55    80    79    1
    56    25    26    1
    57    79    82    1
    58    70    71    1
    59    70    72    1
    60    26    27    1
    61     2     1    1
    62     2     3    1
    63     4     3    2
    64    27    32   am
    65    27    28    2
    66    82    83    1
    67    88    90   ar
    68    88    85   ar
    69    90    91   ar
    70    32    33    1
    71    85    83   ar
    72    85    87   ar
    73    83    84   ar
    74    91    89   ar
    75    87    89   ar
    76    87    86   ar
    77    84    86   ar
    78    36    33    1
    79    13    11    1
    80    33    34    1
    81    24    22    1
    82     7     8    1
    83    34    35    2
    84    11     8    1
    85    11    12    1
    86     8     9    1
    87    22    23    1
    88    22    21    2
    89    21    20    1
    90    16    15    1
    91    16    17    2
    92     9    10    2
    93    15    14    1
    94    15    18    1
    95    20    19    1
    96    18    19    1
