@<TRIPOS>MOLECULE
tmp/5uooA00.pdb
 128 126 0 0 0
SMALL
GASTEIGER

@<TRIPOS>ATOM
      1  N         15.8850    4.0460    8.9650 N.3    26  TRP26      -0.1228
      2  CA        17.2570    3.7550    8.5260 C.3    26  TRP26       0.1722
      3  C         17.4470    2.3530    7.8770 C.2    26  TRP26       0.2437
      4  O         18.2240    2.3030    6.9210 O.2    26  TRP26      -0.2733
      5  CB        18.2860    3.9800    9.6390 C.3    26  TRP26       0.0563
      6  CG        18.2900    2.9610   10.7340 C.ar   26  TRP26       0.0003
      7  CD1       17.6620    3.0570   11.9420 C.ar   26  TRP26       0.0946
      8  CD2       19.0360    1.7400   10.7610 C.ar   26  TRP26       0.0152
      9  NE1       17.9390    1.9510   12.7060 N.ar   26  TRP26      -0.2442
     10  CE2       18.7500    1.1040   11.9880 C.ar   26  TRP26       0.0810
     11  CE3       19.8590    1.0770    9.8280 C.ar   26  TRP26       0.0012
     12  CZ2       19.3010   -0.1380   12.3370 C.ar   26  TRP26       0.0191
     13  CZ3       20.4230   -0.1420   10.1820 C.ar   26  TRP26       0.0001
     14  CH2       20.1330   -0.7440   11.4130 C.ar   26  TRP26       0.0015
     15  N         16.7780    1.2380    8.2660 N.am   27  PRO27      -0.2729
     16  CA        17.0200   -0.0390    7.5530 C.3    27  PRO27       0.1401
     17  C         16.5690   -0.0290    6.0900 C.2    27  PRO27       0.2269
     18  O         17.0150   -0.8890    5.3180 O.2    27  PRO27      -0.2865
     19  CB        16.1900   -1.0530    8.3490 C.3    27  PRO27       0.0296
     20  CG        16.0280   -0.4110    9.7260 C.3    27  PRO27       0.0237
     21  CD        15.8270    1.0300    9.3870 C.3    27  PRO27       0.0939
     22  N         18.9920    1.9240    2.2230 N.3    30  LYS30      -0.1231
     23  CA        19.8710    1.3190    1.2170 C.3    30  LYS30       0.1678
     24  C         19.4470   -0.0940    0.8710 C.2    30  LYS30       0.2434
     25  O         18.7630   -0.7320    1.6820 O.2    30  LYS30      -0.2733
     26  CB        21.3310    1.3030    1.7590 C.3    30  LYS30       0.0284
     27  CG        21.9820    2.6870    1.9020 C.3    30  LYS30       0.0035
     28  CD        22.1530    3.4260    0.5560 C.3    30  LYS30       0.0206
     29  CE        22.8810    4.7550    0.6570 C.3    30  LYS30       0.1093
     30  NZ        22.2210    5.7190    1.5870 N.3    30  LYS30      -0.1314
     31  N         19.9130   -0.6590   -0.2630 N.am   31  PRO31      -0.2718
     32  CA        19.5520   -2.0510   -0.5680 C.3    31  PRO31       0.1535
     33  C         19.9480   -2.9860    0.5690 C.2    31  PRO31       0.2598
     34  O         20.9910   -2.7690    1.2140 O.2    31  PRO31      -0.2715
     35  CB        20.3850   -2.3720   -1.8190 C.3    31  PRO31       0.0310
     36  CG        20.6720   -1.0720   -2.4460 C.3    31  PRO31       0.0237
     37  CD        20.7600   -0.0700   -1.3270 C.3    31  PRO31       0.0939
     38  N         19.1460   -4.0180    0.7990 N.am   32  VAL32      -0.1964
     39  CA        19.4720   -5.0350    1.8050 C.3    32  VAL32       0.1727
     40  C         20.8280   -5.6530    1.4200 C.2    32  VAL32       0.2616
     41  O         20.9770   -6.1090    0.2870 O.2    32  VAL32      -0.2715
     42  CB        18.3590   -6.1050    1.9100 C.3    32  VAL32       0.0290
     43  CG1       18.7990   -7.2680    2.8040 C.3    32  VAL32       0.0023
     44  CG2       17.0460   -5.4950    2.4000 C.3    32  VAL32       0.0023
     45  N         21.8210   -5.5920    2.3230 N.am   33  ASP33      -0.1971
     46  CA        23.1550   -6.1480    2.0510 C.3    33  ASP33       0.1709
     47  C         23.1390   -7.6010    2.5090 C.2    33  ASP33       0.2293
     48  O         23.3920   -7.8990    3.6790 O.2    33  ASP33      -0.2864
     49  CB        24.2420   -5.3140    2.7500 C.3    33  ASP33       0.1436
     50  CG        25.6670   -5.6310    2.3350 C.2    33  ASP33       0.3671
     51  OD1       25.9100   -6.7570    1.8270 O.co2  33  ASP33      -0.2456
     52  OD2       26.5540   -4.7760    2.5640 O.co2  33  ASP33      -0.2456
     53  N         24.6680   -9.0470    6.1310 N.3    37  LEU37      -0.1245
     54  CA        23.6950   -9.4850    7.1460 C.3    37  LEU37       0.1561
     55  C         23.5620  -11.0220    7.2490 C.2    37  LEU37       0.2260
     56  O         22.8340  -11.5120    8.1240 O.2    37  LEU37      -0.2867
     57  CB        22.3160   -8.8570    6.8540 C.3    37  LEU37       0.0270
     58  CG        22.2660   -7.3060    6.8310 C.3    37  LEU37       0.0019
     59  CD1       20.9300   -6.8030    6.2920 C.3    37  LEU37       0.0001
     60  CD2       22.5530   -6.7160    8.2030 C.3    37  LEU37       0.0001
     61  N         22.0980  -13.1040    5.1120 N.3    39  LEU39      -0.1245
     62  CA        20.7490  -13.5140    4.7100 C.3    39  LEU39       0.1561
     63  C         20.8230  -14.3230    3.4210 C.2    39  LEU39       0.2260
     64  O         20.3960  -13.8770    2.3520 O.2    39  LEU39      -0.2867
     65  CB        19.8510  -12.2700    4.5450 C.3    39  LEU39       0.0270
     66  CG        19.8500  -11.2600    5.7110 C.3    39  LEU39       0.0019
     67  CD1       19.0370  -10.0210    5.3410 C.3    39  LEU39       0.0001
     68  CD2       19.3690  -11.8880    7.0160 C.3    39  LEU39       0.0001
     69  N          9.8130   -6.5410    3.0160 N.3    80  CYS80      -0.1235
     70  CA        10.1470   -6.6070    4.4330 C.3    80  CYS80       0.1677
     71  C          9.1670   -7.5470    5.1760 C.2    80  CYS80       0.2270
     72  O          9.6040   -8.4110    5.9410 O.2    80  CYS80      -0.2867
     73  CB        10.1480   -5.2060    5.0390 C.3    80  CYS80       0.0956
     74  SG        10.5890   -5.1830    6.7900 S.3    80  CYS80      -0.0801
     75  N          9.7880  -11.3910    4.0000 N.3    83  TYR83      -0.1227
     76  CA        11.0240  -12.0130    4.4470 C.3    83  TYR83       0.1736
     77  C         11.1140  -12.2210    5.9550 C.2    83  TYR83       0.2595
     78  O         11.5660  -13.2870    6.4020 O.2    83  TYR83      -0.2718
     79  CB        12.2510  -11.1910    3.9670 C.3    83  TYR83       0.0548
     80  CG        13.5440  -11.8720    4.3710 C.ar   83  TYR83      -0.0200
     81  CD1       14.0080  -12.9890    3.6830 C.ar   83  TYR83      -0.0009
     82  CD2       14.2300  -11.4820    5.5230 C.ar   83  TYR83      -0.0009
     83  CE1       15.1300  -13.6960    4.1190 C.ar   83  TYR83       0.0417
     84  CE2       15.3620  -12.1690    5.9580 C.ar   83  TYR83       0.0417
     85  CZ        15.8000  -13.2840    5.2600 C.ar   83  TYR83       0.1957
     86  OH        16.8870  -13.9950    5.7040 O.3    83  TYR83      -0.2866
     87  N         10.7170  -11.2050    6.7260 N.am   84  ASN84      -0.1974
     88  CA        10.8740  -11.2090    8.1790 C.3    84  ASN84       0.1688
     89  C          9.6590  -11.7320    8.9490 C.2    84  ASN84       0.2292
     90  O          8.5240  -11.5010    8.5380 O.2    84  ASN84      -0.2864
     91  CB        11.2090   -9.7940    8.6510 C.3    84  ASN84       0.1181
     92  CG        12.4650   -9.2490    8.0180 C.2    84  ASN84       0.2629
     93  OD1       12.4270   -8.3470    7.1730 O.2    84  ASN84      -0.2716
     94  ND2       13.6060   -9.7980    8.3990 N.am   84  ASN84      -0.0877
     95  N          9.2790   -9.4140   14.2710 N.3    88  HIS88      -0.1226
     96  CA        10.6430   -8.8850   14.1790 C.3    88  HIS88       0.1752
     97  C         10.6290   -7.3760   14.3850 C.2    88  HIS88       0.2596
     98  O          9.6780   -6.7040   13.9560 O.2    88  HIS88      -0.2718
     99  CB        11.2870   -9.2290   12.8240 C.3    88  HIS88       0.0759
    100  CG        12.7820   -9.0880   12.8020 C.ar   88  HIS88       0.0818
    101  ND1       13.3980   -7.8440   12.8050 N.ar   88  HIS88      -0.2268
    102  CD2       13.7380  -10.0450   12.7570 C.ar   88  HIS88       0.1154
    103  CE1       14.6990   -8.0830   12.7680 C.ar   88  HIS88       0.1986
    104  NE2       14.9560   -9.3910   12.7410 N.ar   88  HIS88      -0.2212
    105  N         11.6940   -6.8390   15.0260 N.am   89  GLU89      -0.1965
    106  CA        11.8430   -5.3960   15.2590 C.3    89  GLU89       0.1733
    107  C         11.7560   -4.6060   13.9390 C.2    89  GLU89       0.2616
    108  O         11.1270   -3.5470   13.9030 O.2    89  GLU89      -0.2715
    109  CB        13.1940   -5.1020   15.9550 C.3    89  GLU89       0.0429
    110  CG        13.4100   -3.6430   16.3340 C.3    89  GLU89       0.1163
    111  CD        12.2600   -2.9750   17.0670 C.2    89  GLU89       0.3649
    112  OE1       11.9610   -3.3780   18.2150 O.co2  89  GLU89      -0.2457
    113  OE2       11.6390   -2.0640   16.4750 O.co2  89  GLU89      -0.2457
    114  N         12.3800   -5.1260   12.8580 N.am   90  VAL90      -0.1977
    115  CA        12.3740   -4.4200   11.5600 C.3    90  VAL90       0.1596
    116  C         10.9380   -4.3000   10.9930 C.2    90  VAL90       0.2287
    117  O         10.6750   -3.3680   10.2270 O.2    90  VAL90      -0.2864
    118  CB        13.3640   -5.0300   10.5290 C.3    90  VAL90       0.0276
    119  CG1       12.8370   -6.3290    9.9310 C.3    90  VAL90       0.0022
    120  CG2       13.7120   -4.0270    9.4230 C.3    90  VAL90       0.0022
    121  N          9.3240   -1.3910   12.6400 N.3    93  MET93      -0.1245
    122  CA         9.8610   -0.1800   12.0050 C.3    93  MET93       0.1570
    123  C          9.1770    0.0330   10.6570 C.2    93  MET93       0.2261
    124  O          8.7750    1.1640   10.3430 O.2    93  MET93      -0.2867
    125  CB        11.3830   -0.2570   11.8420 C.3    93  MET93       0.0387
    126  CG        12.1470   -0.0030   13.1340 C.3    93  MET93       0.0595
    127  SD        13.9240   -0.0720   12.8290 S.3    93  MET93      -0.1393
    128  CE        14.1390   -1.7220   12.9460 C.3    93  MET93       0.0692
@<TRIPOS>BOND
     1    36    35    1
     2    36    37    1
     3    35    32    1
     4    37    31    1
     5    32    31    1
     6    32    33    1
     7    31    24   am
     8    41    40    2
     9    28    29    1
    10    28    27    1
    11    33    38   am
    12    33    34    2
    13    29    30    1
    14    38    39    1
    15    24    23    1
    16    24    25    2
    17    23    26    1
    18    23    22    1
    19    40    39    1
    20    40    45   am
    21    26    27    1
    22    39    42    1
    23    51    50   ar
    24    42    44    1
    25    42    43    1
    26    46    45    1
    27    46    47    1
    28    46    49    1
    29    50    52   ar
    30    50    49    1
    31    64    63    2
    32    47    48    2
    33    69    70    1
    34    63    62    1
    35    81    83   ar
    36    81    80   ar
    37    79    80    1
    38    79    76    1
    39    75    76    1
    40    83    85   ar
    41    80    82   ar
    42    70    73    1
    43    70    71    1
    44    76    77    1
    45    65    62    1
    46    65    66    1
    47    62    61    1
    48    73    74    1
    49    71    72    2
    50    85    86    1
    51    85    84   ar
    52    18    17    2
    53    67    66    1
    54    82    84   ar
    55    66    68    1
    56    77    78    2
    57    77    87   am
    58    17    16    1
    59    53    54    1
    60    59    58    1
    61    87    88    1
    62    58    57    1
    63    58    60    1
    64    57    54    1
    65     4     3    2
    66    54    55    1
    67    93    92    2
    68    55    56    2
    69    16    15    1
    70    16    19    1
    71     3    15   am
    72     3     2    1
    73    92    94   am
    74    92    91    1
    75    88    91    1
    76    88    89    1
    77    15    21    1
    78    19    20    1
    79     2     1    1
    80     2     5    1
    81    90    89    2
    82    21    20    1
    83   120   118    1
    84     5     6    1
    85    11    13   ar
    86    11     8   ar
    87   119   118    1
    88    13    14   ar
    89   117   116    2
    90   124   123    2
    91   118   115    1
    92   123   122    1
    93     6     8   ar
    94     6     7   ar
    95     8    10   ar
    96   116   115    1
    97    14    12   ar
    98   115   114    1
    99   125   122    1
   100   125   126    1
   101     7     9   ar
   102    10    12   ar
   103    10     9   ar
   104   122   121    1
   105   104   102   ar
   106   104   103   ar
   107   102   100   ar
   108   103   101   ar
   109   100   101   ar
   110   100    99    1
   111    99    96    1
   112   127   128    1
   113   127   126    1
   114   114   107   am
   115   108   107    2
   116   107   106    1
   117    98    97    2
   118    96    95    1
   119    96    97    1
   120    97   105   am
   121   105   106    1
   122   106   109    1
   123   109   110    1
   124   110   111    1
   125   113   111   ar
   126   111   112   ar
