@<TRIPOS>MOLECULE
tmp/5uopA00.pdb
 109 105 0 0 0
SMALL
GASTEIGER

@<TRIPOS>ATOM
      1  N         32.1960  -35.6780   10.3490 N.3   121  ASP121     -0.1225
      2  CA        31.8860  -35.3040   11.7180 C.3   121  ASP121      0.1805
      3  C         31.8310  -33.8030   11.7910 C.2   121  ASP121      0.2597
      4  O         32.2990  -33.1230   10.8620 O.2   121  ASP121     -0.2718
      5  CB        32.9750  -35.8120   12.6660 C.3   121  ASP121      0.1424
      6  CG        32.5350  -35.8220   14.1020 C.2   121  ASP121      0.3668
      7  OD1       31.4050  -36.2470   14.3660 O.co2 121  ASP121     -0.2456
      8  OD2       33.3150  -35.3920   14.9590 O.co2 121  ASP121     -0.2456
      9  N         31.2580  -33.2860   12.8950 N.am  122  TYR122     -0.1976
     10  CA        31.1400  -31.8710   13.1780 C.3   122  TYR122      0.1639
     11  C         31.9790  -31.4850   14.3860 C.2   122  TYR122      0.2290
     12  O         32.0640  -32.2290   15.3610 O.2   122  TYR122     -0.2864
     13  CB        29.6870  -31.5040   13.4580 C.3   122  TYR122      0.0560
     14  CG        28.8870  -31.1750   12.2240 C.ar  122  TYR122     -0.0198
     15  CD1       29.0110  -29.9360   11.5980 C.ar  122  TYR122     -0.0009
     16  CD2       27.9970  -32.0990   11.6790 C.ar  122  TYR122     -0.0009
     17  CE1       28.2790  -29.6300   10.4480 C.ar  122  TYR122      0.0417
     18  CE2       27.2550  -31.8020   10.5310 C.ar  122  TYR122      0.0417
     19  CZ        27.3900  -30.5610    9.9280 C.ar  122  TYR122      0.1957
     20  OH        26.6750  -30.2600    8.7950 O.3   122  TYR122     -0.2866
     21  N         29.0590  -40.8500   12.7020 N.3   178  ASP178     -0.1225
     22  CA        28.5660  -41.2770   14.0130 C.3   178  ASP178      0.1805
     23  C         27.0220  -41.2020   13.9350 C.2   178  ASP178      0.2598
     24  O         26.4900  -40.9830   12.8330 O.2   178  ASP178     -0.2718
     25  CB        29.1540  -40.4180   15.1660 C.3   178  ASP178      0.1424
     26  CG        28.9940  -38.9020   15.0590 C.2   178  ASP178      0.3668
     27  OD1       27.9860  -38.4460   14.4730 O.co2 178  ASP178     -0.2456
     28  OD2       29.8670  -38.1760   15.5800 O.co2 178  ASP178     -0.2456
     29  N         26.3070  -41.3680   15.0660 N.am  179  GLN179     -0.1965
     30  CA        24.8470  -41.3380   14.9970 C.3   179  GLN179      0.1733
     31  C         24.2470  -39.9430   15.3270 C.2   179  GLN179      0.2617
     32  O         23.1670  -39.8370   15.9110 O.2   179  GLN179     -0.2715
     33  CB        24.2150  -42.4790   15.8080 C.3   179  GLN179      0.0408
     34  CG        24.6390  -43.8460   15.2610 C.3   179  GLN179      0.0908
     35  CD        24.0590  -45.0540   15.9650 C.2   179  GLN179      0.2608
     36  OE1       23.0240  -44.9920   16.6500 O.2   179  GLN179     -0.2717
     37  NE2       24.7060  -46.2040   15.7980 N.am  179  GLN179     -0.0878
     38  N         24.9260  -38.8950   14.8780 N.am  180  GLY180     -0.1940
     39  CA        24.4440  -37.5400   15.0600 C.3   180  GLY180      0.2014
     40  C         23.1770  -37.2810   14.2650 C.2   180  GLY180      0.2638
     41  O         23.0220  -37.7650   13.1350 O.2   180  GLY180     -0.2714
     42  N         22.2530  -36.5030   14.8540 N.am  181  ALA181     -0.1977
     43  CA        20.9770  -36.1090   14.2480 C.3   181  ALA181      0.1597
     44  C         21.1030  -35.8030   12.7490 C.2   181  ALA181      0.2287
     45  O         20.2620  -36.2490   11.9810 O.2   181  ALA181     -0.2864
     46  CB        20.4300  -34.8830   14.9680 C.3   181  ALA181      0.0319
     47  N         27.7730  -43.6790   20.8590 N.3   205  TYR205     -0.1241
     48  CA        28.6260  -43.1520   21.9330 C.3   205  TYR205      0.1605
     49  C         29.9960  -43.8360   21.9680 C.2   205  TYR205      0.2264
     50  O         30.4490  -44.3190   23.0160 O.2   205  TYR205     -0.2867
     51  CB        27.9150  -43.1880   23.2900 C.3   205  TYR205      0.0534
     52  CG        26.5650  -42.5150   23.2850 C.ar  205  TYR205     -0.0201
     53  CD1       26.4520  -41.1350   23.4250 C.ar  205  TYR205     -0.0009
     54  CD2       25.3950  -43.2580   23.1440 C.ar  205  TYR205     -0.0009
     55  CE1       25.2070  -40.5050   23.4280 C.ar  205  TYR205      0.0417
     56  CE2       24.1410  -42.6420   23.1350 C.ar  205  TYR205      0.0417
     57  CZ        24.0470  -41.2610   23.2850 C.ar  205  TYR205      0.1957
     58  OH        22.8050  -40.6330   23.2880 O.3   205  TYR205     -0.2866
     59  N         33.2140  -42.5280   19.8160 N.3   207  PRO207     -0.2102
     60  CA        33.8560  -41.7380   18.7540 C.3   207  PRO207      0.1504
     61  C         35.1480  -42.3270   18.1770 C.2   207  PRO207      0.2575
     62  O         35.5900  -41.8700   17.1220 O.2   207  PRO207     -0.2718
     63  CB        34.0460  -40.3810   19.3890 C.3   207  PRO207      0.0282
     64  CG        34.0510  -40.6420   20.8670 C.3   207  PRO207      0.0208
     65  CD        33.2130  -41.8170   21.1130 C.3   207  PRO207      0.0893
     66  N         35.7270  -43.3620   18.8130 N.am  208  GLN208     -0.1980
     67  CA        36.9340  -44.0270   18.3150 C.3   208  GLN208      0.1601
     68  C         36.6410  -44.7170   16.9740 C.2   208  GLN208      0.2287
     69  O         37.5650  -44.9750   16.1890 O.2   208  GLN208     -0.2864
     70  CB        37.4220  -45.0770   19.3110 C.3   208  GLN208      0.0394
     71  CG        37.8670  -44.4910   20.6310 C.3   208  GLN208      0.0908
     72  CD        36.8040  -44.5240   21.6960 C.2   208  GLN208      0.2608
     73  OE1       35.7440  -43.8860   21.6080 O.2   208  GLN208     -0.2717
     74  NE2       37.0880  -45.2750   22.7420 N.am  208  GLN208     -0.0878
     75  N         37.3770  -42.6100   14.3790 N.3   211  GLY211     -0.1225
     76  CA        38.7760  -42.3060   14.6670 C.3   211  GLY211      0.1811
     77  C         39.4900  -41.4740   13.6250 C.2   211  GLY211      0.2280
     78  O         40.1180  -40.4750   13.9640 O.2   211  GLY211     -0.2866
     79  N         37.8740  -37.9600   13.7240 N.3   214  GLU214     -0.1231
     80  CA        38.0660  -37.4500   15.0700 C.3   214  GLU214      0.1699
     81  C         39.4670  -36.9650   15.2160 C.2   214  GLU214      0.2592
     82  O         39.6670  -35.8120   15.6050 O.2   214  GLU214     -0.2718
     83  CB        37.7230  -38.4840   16.1490 C.3   214  GLU214      0.0402
     84  CG        36.2430  -38.7810   16.3080 C.3   214  GLU214      0.1161
     85  CD        35.2580  -37.6310   16.4130 C.2   214  GLU214      0.3649
     86  OE1       35.6740  -36.4620   16.5880 O.co2 214  GLU214     -0.2457
     87  OE2       34.0430  -37.9130   16.3180 O.co2 214  GLU214     -0.2457
     88  N         40.4420  -37.8100   14.8320 N.am  215  ARG215     -0.1980
     89  CA        41.8510  -37.4600   14.9100 C.3   215  ARG215      0.1597
     90  C         42.2110  -36.2280   14.1070 C.2   215  ARG215      0.2287
     91  O         43.0660  -35.4690   14.5310 O.2   215  ARG215     -0.2864
     92  CB        42.7390  -38.6340   14.5450 C.3   215  ARG215      0.0334
     93  CG        44.2010  -38.3200   14.7170 C.3   215  ARG215      0.0492
     94  CD        44.5220  -37.7410   16.0860 C.3   215  ARG215      0.2205
     95  NE        45.9580  -37.7360   16.2850 N.pl3 215  ARG215     -0.0865
     96  CZ        46.7710  -36.7750   15.8650 C.cat 215  ARG215      0.5346
     97  NH1       46.2860  -35.7150   15.2320 N.pl3 215  ARG215      0.1354
     98  NH2       48.0740  -36.8520   16.1010 N.pl3 215  ARG215      0.1354
     99  N         23.4420  -40.8570   29.0960 N.3   322  ARG322     -0.1245
    100  CA        23.5730  -39.6120   29.8560 C.3   322  ARG322      0.1563
    101  C         22.9420  -39.8490   31.2340 C.2   322  ARG322      0.2260
    102  O         21.7950  -39.4420   31.4850 O.2   322  ARG322     -0.2867
    103  CB        22.9410  -38.4340   29.0820 C.3   322  ARG322      0.0307
    104  CG        23.8500  -38.0160   27.9570 C.3   322  ARG322      0.0489
    105  CD        24.9970  -37.1580   28.4410 C.3   322  ARG322      0.2205
    106  NE        24.5820  -36.0070   29.2280 N.pl3 322  ARG322     -0.0865
    107  CZ        24.9460  -35.7930   30.4940 C.cat 322  ARG322      0.5346
    108  NH1       25.7210  -36.6640   31.1510 N.pl3 322  ARG322      0.1354
    109  NH2       24.4790  -34.6910   31.1070 N.pl3 322  ARG322      0.1354
@<TRIPOS>BOND
     1    20    19    1
     2    19    17   ar
     3    19    18   ar
     4     1     2    1
     5    17    15   ar
     6    18    16   ar
     7     4     3    2
     8    15    14   ar
     9    16    14   ar
    10     2     3    1
    11     2     5    1
    12     3     9   am
    13    45    44    2
    14    14    13    1
    15     5     6    1
    16    21    22    1
    17    44    43    1
    18    24    23    2
    19     9    10    1
    20    41    40    2
    21    10    13    1
    22    10    11    1
    23    77    78    2
    24    77    76    1
    25    79    80    1
    26    23    22    1
    27    23    29   am
    28    22    25    1
    29     6     7   ar
    30     6     8   ar
    31    90    91    2
    32    90    89    1
    33    43    42    1
    34    43    46    1
    35    40    42   am
    36    40    39    1
    37    75    76    1
    38    11    12    2
    39    27    26   ar
    40    92    93    1
    41    92    89    1
    42    93    94    1
    43    88    89    1
    44    88    81   am
    45    38    39    1
    46    38    31   am
    47    30    29    1
    48    30    31    1
    49    30    33    1
    50    26    25    1
    51    26    28   ar
    52    80    81    1
    53    80    83    1
    54    81    82    2
    55    97    96    1
    56    34    33    1
    57    34    35    1
    58    31    32    2
    59    37    35   am
    60    96    98    1
    61    96    95    2
    62    35    36    2
    63    94    95    1
    64    83    84    1
    65    69    68    2
    66    84    85    1
    67    87    85   ar
    68    85    86   ar
    69    68    67    1
    70    62    61    2
    71    61    60    1
    72    61    66   am
    73    67    66    1
    74    67    70    1
    75    60    63    1
    76    60    59    1
    77    70    71    1
    78    63    64    1
    79    59    65    1
    80    71    72    1
    81    47    48    1
    82    64    65    1
    83    73    72    2
    84    72    74   am
    85    48    49    1
    86    48    51    1
    87    49    50    2
    88    56    54   ar
    89    56    57   ar
    90    54    52   ar
    91    57    58    1
    92    57    55   ar
    93    52    51    1
    94    52    53   ar
    95    53    55   ar
    96   104   105    1
    97   104   103    1
    98   105   106    1
    99   103   100    1
   100    99   100    1
   101   106   107    2
   102   100   101    1
   103   107   109    1
   104   107   108    1
   105   101   102    2
