@<TRIPOS>MOLECULE
tmp/5uoqA00.pdb
 102 98 0 0 0
SMALL
GASTEIGER

@<TRIPOS>ATOM
      1  N         32.3170  -35.6720   10.2290 N.3   121  ASP121     -0.1225
      2  CA        32.0010  -35.3470   11.6160 C.3   121  ASP121      0.1805
      3  C         31.9470  -33.8600   11.7550 C.2   121  ASP121      0.2597
      4  O         32.4670  -33.1540   10.8910 O.2   121  ASP121     -0.2718
      5  CB        33.0980  -35.8970   12.5490 C.3   121  ASP121      0.1424
      6  CG        32.7650  -35.8420   14.0220 C.2   121  ASP121      0.3668
      7  OD1       31.5620  -35.9440   14.3700 O.co2 121  ASP121     -0.2456
      8  OD2       33.7010  -35.6940   14.8290 O.co2 121  ASP121     -0.2456
      9  N         31.3360  -33.3840   12.8440 N.am  122  TYR122     -0.1976
     10  CA        31.2360  -31.9740   13.1570 C.3   122  TYR122      0.1639
     11  C         32.1390  -31.5810   14.3330 C.2   122  TYR122      0.2290
     12  O         32.3600  -32.3720   15.2530 O.2   122  TYR122     -0.2864
     13  CB        29.7780  -31.5830   13.4690 C.3   122  TYR122      0.0560
     14  CG        28.9820  -31.2040   12.2410 C.ar  122  TYR122     -0.0198
     15  CD1       29.1420  -29.9600   11.6350 C.ar  122  TYR122     -0.0009
     16  CD2       28.0750  -32.0980   11.6680 C.ar  122  TYR122     -0.0009
     17  CE1       28.4200  -29.6180   10.4830 C.ar  122  TYR122      0.0417
     18  CE2       27.3560  -31.7700   10.5200 C.ar  122  TYR122      0.0417
     19  CZ        27.5340  -30.5300    9.9260 C.ar  122  TYR122      0.1957
     20  OH        26.8270  -30.2200    8.7870 O.3   122  TYR122     -0.2866
     21  N         24.9340  -28.2570   13.1900 N.3   154  PRO154     -0.2116
     22  CA        25.3270  -29.5850   12.6830 C.3   154  PRO154      0.1372
     23  C         24.0500  -30.2620   12.1340 C.2   154  PRO154      0.2244
     24  O         23.5540  -31.2410   12.7050 O.2   154  PRO154     -0.2868
     25  CB        25.8780  -30.2750   13.9350 C.3   154  PRO154      0.0268
     26  CG        25.1270  -29.6390   15.0800 C.3   154  PRO154      0.0207
     27  CD        24.6100  -28.3100   14.6350 C.3   154  PRO154      0.0892
     28  N         29.2090  -40.9170   12.6940 N.3   178  ASP178     -0.1225
     29  CA        28.6670  -41.3120   13.9920 C.3   178  ASP178      0.1805
     30  C         27.1290  -41.2070   13.8830 C.2   178  ASP178      0.2598
     31  O         26.6080  -40.9190   12.7930 O.2   178  ASP178     -0.2718
     32  CB        29.2340  -40.4440   15.1600 C.3   178  ASP178      0.1424
     33  CG        29.0900  -38.9240   15.0740 C.2   178  ASP178      0.3668
     34  OD1       28.0690  -38.4450   14.5250 O.co2 178  ASP178     -0.2456
     35  OD2       29.9870  -38.2170   15.5670 O.co2 178  ASP178     -0.2456
     36  N         26.4090  -41.4140   15.0050 N.am  179  GLN179     -0.1965
     37  CA        24.9510  -41.3530   14.9690 C.3   179  GLN179      0.1733
     38  C         24.3880  -39.9620   15.3460 C.2   179  GLN179      0.2617
     39  O         23.3290  -39.8510   15.9630 O.2   179  GLN179     -0.2715
     40  CB        24.3170  -42.5040   15.7580 C.3   179  GLN179      0.0408
     41  CG        24.7260  -43.8570   15.1600 C.3   179  GLN179      0.0908
     42  CD        24.1320  -45.0520   15.8450 C.2   179  GLN179      0.2608
     43  OE1       23.1400  -44.9610   16.5760 O.2   179  GLN179     -0.2717
     44  NE2       24.7170  -46.2200   15.6080 N.am  179  GLN179     -0.0878
     45  N         25.0640  -38.9160   14.8860 N.am  180  GLY180     -0.1940
     46  CA        24.5960  -37.5510   15.0630 C.3   180  GLY180      0.2014
     47  C         23.3620  -37.3460   14.2010 C.2   180  GLY180      0.2638
     48  O         23.2920  -37.8830   13.0850 O.2   180  GLY180     -0.2714
     49  N         22.3670  -36.5780   14.7220 N.am  181  ALA181     -0.1977
     50  CA        21.0860  -36.2720   14.0630 C.3   181  ALA181      0.1597
     51  C         21.2150  -35.9090   12.5900 C.2   181  ALA181      0.2287
     52  O         20.4050  -36.3690   11.8030 O.2   181  ALA181     -0.2864
     53  CB        20.3590  -35.1620   14.8070 C.3   181  ALA181      0.0319
     54  N         27.8870  -43.8460   20.8010 N.3   205  TYR205     -0.1241
     55  CA        28.7810  -43.3090   21.8430 C.3   205  TYR205      0.1605
     56  C         30.1560  -43.9740   21.8710 C.2   205  TYR205      0.2264
     57  O         30.6260  -44.4040   22.9340 O.2   205  TYR205     -0.2867
     58  CB        28.0960  -43.3670   23.2170 C.3   205  TYR205      0.0534
     59  CG        26.7500  -42.6860   23.2290 C.ar  205  TYR205     -0.0201
     60  CD1       26.6470  -41.3070   23.3690 C.ar  205  TYR205     -0.0009
     61  CD2       25.5760  -43.4180   23.0840 C.ar  205  TYR205     -0.0009
     62  CE1       25.4060  -40.6690   23.3800 C.ar  205  TYR205      0.0417
     63  CE2       24.3280  -42.7940   23.0680 C.ar  205  TYR205      0.0417
     64  CZ        24.2460  -41.4160   23.2260 C.ar  205  TYR205      0.1957
     65  OH        23.0070  -40.7870   23.2420 O.3   205  TYR205     -0.2866
     66  N         33.3530  -42.6490   19.6560 N.3   207  PRO207     -0.2102
     67  CA        34.0270  -41.8410   18.6190 C.3   207  PRO207      0.1504
     68  C         35.3170  -42.4360   18.0570 C.2   207  PRO207      0.2575
     69  O         35.7540  -42.0250   16.9870 O.2   207  PRO207     -0.2718
     70  CB        34.2290  -40.5000   19.2970 C.3   207  PRO207      0.0282
     71  CG        34.2000  -40.8080   20.7760 C.3   207  PRO207      0.0208
     72  CD        33.2510  -41.9130   20.9370 C.3   207  PRO207      0.0893
     73  N         35.9020  -43.4340   18.7360 N.am  208  GLN208     -0.1980
     74  CA        37.0930  -44.1540   18.2810 C.3   208  GLN208      0.1601
     75  C         36.8080  -44.8160   16.9210 C.2   208  GLN208      0.2287
     76  O         37.7110  -44.9670   16.0920 O.2   208  GLN208     -0.2864
     77  CB        37.4650  -45.2420   19.2920 C.3   208  GLN208      0.0394
     78  CG        37.9260  -44.6980   20.6290 C.3   208  GLN208      0.0908
     79  CD        36.8280  -44.6380   21.6520 C.2   208  GLN208      0.2608
     80  OE1       35.7910  -43.9870   21.4780 O.2   208  GLN208     -0.2717
     81  NE2       37.0340  -45.3260   22.7590 N.am  208  GLN208     -0.0878
     82  N         37.5400  -42.6560   14.4090 N.3   211  GLY211     -0.1225
     83  CA        38.9180  -42.3000   14.7380 C.3   211  GLY211      0.1811
     84  C         39.6760  -41.5010   13.7030 C.2   211  GLY211      0.2280
     85  O         40.4260  -40.5850   14.0550 O.2   211  GLY211     -0.2866
     86  N         38.1010  -37.9930   13.8530 N.3   214  GLU214     -0.1245
     87  CA        38.3070  -37.4410   15.1880 C.3   214  GLU214      0.1567
     88  C         39.7290  -36.9560   15.3130 C.2   214  GLU214      0.2260
     89  O         39.9540  -35.8180   15.7200 O.2   214  GLU214     -0.2867
     90  CB        37.9640  -38.4610   16.2690 C.3   214  GLU214      0.0388
     91  CG        36.4970  -38.8590   16.2780 C.3   214  GLU214      0.1160
     92  CD        35.4440  -37.7840   16.4860 C.2   214  GLU214      0.3649
     93  OE1       35.7800  -36.6250   16.8200 O.co2 214  GLU214     -0.2457
     94  OE2       34.2560  -38.1190   16.3020 O.co2 214  GLU214     -0.2457
     95  N         40.2390  -33.7830   13.6030 N.3   217  ASN217     -0.1240
     96  CA        39.6220  -32.7060   14.3790 C.3   217  ASN217      0.1653
     97  C         40.6410  -32.0890   15.3610 C.2   217  ASN217      0.2266
     98  O         40.6360  -30.8730   15.5690 O.2   217  ASN217     -0.2867
     99  CB        38.3830  -33.2060   15.1400 C.3   217  ASN217      0.1155
    100  CG        37.1840  -33.5630   14.2800 C.2   217  ASN217      0.2627
    101  OD1       37.0750  -33.2130   13.1200 O.2   217  ASN217     -0.2716
    102  ND2       36.2370  -34.2610   14.8450 N.am  217  ASN217     -0.0877
@<TRIPOS>BOND
     1    20    19    1
     2    19    17   ar
     3    19    18   ar
     4     1     2    1
     5    17    15   ar
     6    18    16   ar
     7     4     3    2
     8     2     3    1
     9     2     5    1
    10    15    14   ar
    11    16    14   ar
    12     3     9   am
    13    52    51    2
    14    23    22    1
    15    23    24    2
    16    14    13    1
    17     5     6    1
    18    51    50    1
    19    22    21    1
    20    22    25    1
    21    28    29    1
    22    31    30    2
    23     9    10    1
    24    48    47    2
    25   101   100    2
    26    10    13    1
    27    10    11    1
    28    21    27    1
    29    95    96    1
    30    84    85    2
    31    84    83    1
    32    86    87    1
    33    30    29    1
    34    30    36   am
    35    25    26    1
    36    29    32    1
    37     6     7   ar
    38     6     8   ar
    39    50    49    1
    40    50    53    1
    41    47    49   am
    42    47    46    1
    43   100   102   am
    44   100    99    1
    45    11    12    2
    46    96    99    1
    47    96    97    1
    48    82    83    1
    49    34    33   ar
    50    27    26    1
    51    45    46    1
    52    45    38   am
    53    37    36    1
    54    37    38    1
    55    37    40    1
    56    33    32    1
    57    33    35   ar
    58    41    40    1
    59    41    42    1
    60    87    88    1
    61    87    90    1
    62    88    89    2
    63    38    39    2
    64    97    98    2
    65    44    42   am
    66    42    43    2
    67    76    75    2
    68    90    91    1
    69    91    92    1
    70    94    92   ar
    71    92    93   ar
    72    75    74    1
    73    69    68    2
    74    68    67    1
    75    68    73   am
    76    74    73    1
    77    74    77    1
    78    67    70    1
    79    67    66    1
    80    77    78    1
    81    70    71    1
    82    66    72    1
    83    78    79    1
    84    71    72    1
    85    54    55    1
    86    80    79    2
    87    79    81   am
    88    55    56    1
    89    55    58    1
    90    56    57    2
    91    63    61   ar
    92    63    64   ar
    93    61    59   ar
    94    58    59    1
    95    64    65    1
    96    64    62   ar
    97    59    60   ar
    98    60    62   ar
