@<TRIPOS>MOLECULE
tmp/5uovB00.pdb
 101 95 0 0 0
SMALL
GASTEIGER

@<TRIPOS>ATOM
      1  N         17.1510   26.2530   28.0440 N.3    23  LEU23      -0.1245
      2  CA        16.7170   27.2150   27.0240 C.3    23  LEU23       0.1561
      3  C         15.2460   27.0970   26.7540 C.2    23  LEU23       0.2260
      4  O         14.7930   25.9840   26.4290 O.2    23  LEU23      -0.2867
      5  CB        17.5410   26.8710   25.7750 C.3    23  LEU23       0.0270
      6  CG        17.2940   27.6770   24.5100 C.3    23  LEU23       0.0019
      7  CD1       17.7250   29.1100   24.7480 C.3    23  LEU23       0.0001
      8  CD2       18.1170   27.0900   23.3450 C.3    23  LEU23       0.0001
      9  N         12.4010   27.0190   24.4310 N.3    25  ASP25      -0.1239
     10  CA        12.5220   26.6930   23.0170 C.3    25  ASP25       0.1674
     11  C         11.1790   26.4530   22.3670 C.2    25  ASP25       0.2266
     12  O         10.6280   25.3470   22.3850 O.2    25  ASP25      -0.2867
     13  CB        13.3930   25.4210   22.9200 C.3    25  ASP25       0.1410
     14  CG        13.8610   25.1260   21.5110 C.2    25  ASP25       0.3668
     15  OD1       13.3410   25.7570   20.5500 O.co2  25  ASP25      -0.2456
     16  OD2       14.7360   24.2570   21.3230 O.co2  25  ASP25      -0.2456
     17  N         10.5530   26.1930   19.3300 N.3    27  GLY27      -0.1210
     18  CA        10.6950   25.3080   18.1600 C.3    27  GLY27       0.1956
     19  C         10.8280   23.8510   18.5350 C.2    27  GLY27       0.2612
     20  O         11.1080   23.0100   17.6540 O.2    27  GLY27      -0.2717
     21  N         10.6660   23.5080   19.8010 N.am   28  ALA28      -0.1965
     22  CA        10.7300   22.1080   20.2130 C.3    28  ALA28       0.1728
     23  C          9.3780   21.6680   20.7500 C.2    28  ALA28       0.2616
     24  O          8.7970   22.3310   21.6280 O.2    28  ALA28      -0.2715
     25  CB        11.7590   21.9290   21.3170 C.3    28  ALA28       0.0334
     26  N          8.8430   20.5470   20.2800 N.am   29  ASP29      -0.1957
     27  CA         7.5770   20.0610   20.8330 C.3    29  ASP29       0.1840
     28  C          7.7900   19.5590   22.2700 C.2    29  ASP29       0.2622
     29  O          6.8690   19.6180   23.1030 O.2    29  ASP29      -0.2715
     30  CB         7.0640   18.8600   20.0190 C.3    29  ASP29       0.1450
     31  CG         6.5400   19.2000   18.6360 C.2    29  ASP29       0.3671
     32  OD1        6.4510   20.3480   18.1900 O.co2  29  ASP29      -0.2456
     33  OD2        6.1820   18.1940   17.9460 O.co2  29  ASP29      -0.2456
     34  N          8.9590   19.0000   22.5100 N.am   30  ASP30      -0.1971
     35  CA         9.3240   18.2280   23.7010 C.3    30  ASP30       0.1709
     36  C         10.4870   18.8410   24.4580 C.2    30  ASP30       0.2293
     37  O         11.2830   19.5950   23.8800 O.2    30  ASP30      -0.2864
     38  CB         9.8280   16.8550   23.2050 C.3    30  ASP30       0.1436
     39  CG         8.9150   16.1570   22.2420 C.2    30  ASP30       0.3671
     40  OD1        7.7390   15.9690   22.6630 O.co2  30  ASP30      -0.2456
     41  OD2        9.3910   15.7780   21.1310 O.co2  30  ASP30      -0.2456
     42  N         14.0300   18.3370   26.3670 N.3    32  VAL32      -0.1245
     43  CA        15.1710   17.4050   26.2650 C.3    32  VAL32       0.1561
     44  C         16.2610   17.8980   27.1980 C.2    32  VAL32       0.2260
     45  O         16.6970   19.0410   27.0710 O.2    32  VAL32      -0.2867
     46  CB        15.7090   17.3010   24.8220 C.3    32  VAL32       0.0252
     47  CG1       16.6820   16.1180   24.7730 C.3    32  VAL32       0.0019
     48  CG2       14.5980   17.1400   23.7930 C.3    32  VAL32       0.0019
     49  N         14.0510   11.4640   18.2870 N.3    47  ILE47      -0.1231
     50  CA        13.6870   12.8320   17.8790 C.3    47  ILE47       0.1692
     51  C         14.6360   13.2550   16.7620 C.2    47  ILE47       0.2593
     52  O         15.8250   12.9450   16.6850 O.2    47  ILE47      -0.2718
     53  CB        13.6730   13.8090   19.0700 C.3    47  ILE47       0.0266
     54  CG1       15.0010   13.9080   19.8030 C.3    47  ILE47       0.0019
     55  CG2       12.5170   13.4490   20.0020 C.3    47  ILE47       0.0020
     56  CD1       14.9500   14.6590   21.1210 C.3    47  ILE47       0.0001
     57  N         14.0380   13.9630   15.8070 N.am   48  GLY48      -0.1942
     58  CA        14.7440   14.3910   14.5990 C.3    48  GLY48       0.2014
     59  C         15.0510   15.8710   14.6790 C.2    48  GLY48       0.2639
     60  O         14.1650   16.6840   14.4960 O.2    48  GLY48      -0.2714
     61  N         16.2830   16.2410   14.9520 N.am   49  GLY49      -0.1939
     62  CA        16.6470   17.6200   15.0250 C.3    49  GLY49       0.2014
     63  C         17.3100   18.0470   13.7230 C.2    49  GLY49       0.2638
     64  O         17.2580   17.4400   12.6450 O.2    49  GLY49      -0.2714
     65  N         17.9740   19.1940   13.8070 N.am   50  ILE50      -0.1977
     66  CA        18.5200   19.8110   12.5980 C.3    50  ILE50       0.1596
     67  C         19.5640   18.9230   11.9890 C.2    50  ILE50       0.2287
     68  O         19.7280   18.9130   10.7580 O.2    50  ILE50      -0.2864
     69  CB        19.0740   21.2200   12.9100 C.3    50  ILE50       0.0276
     70  CG1       18.9380   22.0990   11.6640 C.3    50  ILE50       0.0022
     71  CG2       20.4410   21.0890   13.5410 C.3    50  ILE50       0.0022
     72  CD1       19.3600   23.5100   11.8960 C.3    50  ILE50       0.0001
     73  N         21.8640   16.3130   23.9250 N.3    80  THR80      -0.1204
     74  CA        21.4270   17.5670   23.3270 C.3    80  THR80       0.1979
     75  C         22.5270   18.5970   23.5860 C.2    80  THR80       0.2460
     76  O         23.1990   18.5470   24.6010 O.2    80  THR80      -0.2732
     77  CB        20.0640   17.9970   23.9220 C.3    80  THR80       0.1783
     78  OG1       19.7750   19.3140   23.4500 O.3    80  THR80      -0.2211
     79  CG2       20.0930   18.0150   25.4390 C.3    80  THR80       0.0376
     80  N         22.7270   19.5440   22.6670 N.am   81  PRO81      -0.2717
     81  CA        23.7730   20.5280   22.9060 C.3    81  PRO81       0.1535
     82  C         23.4940   21.3930   24.1080 C.2    81  PRO81       0.2598
     83  O         24.4430   21.8830   24.6920 O.2    81  PRO81      -0.2715
     84  CB        23.7340   21.4050   21.6490 C.3    81  PRO81       0.0310
     85  CG        22.3620   21.1670   21.0930 C.3    81  PRO81       0.0237
     86  CD        22.0560   19.7160   21.3680 C.3    81  PRO81       0.0939
     87  N         22.2440   21.6150   24.4780 N.am   82  VAL82      -0.1978
     88  CA        21.8340   22.3720   25.6620 C.3    82  VAL82       0.1596
     89  C         20.4900   21.8010   26.1290 C.2    82  VAL82       0.2287
     90  O         19.6930   21.2510   25.3660 O.2    82  VAL82      -0.2864
     91  CB        21.6950   23.8720   25.3820 C.3    82  VAL82       0.0276
     92  CG1       20.6170   24.0940   24.3310 C.3    82  VAL82       0.0022
     93  CG2       21.3250   24.6730   26.6120 C.3    82  VAL82       0.0022
     94  N         16.7490   21.8290   26.8130 N.3    84  ILE84      -0.1245
     95  CA        15.7290   22.6590   26.1650 C.3    84  ILE84       0.1561
     96  C         14.3540   22.3770   26.7660 C.2    84  ILE84       0.2260
     97  O         13.9820   21.2070   27.0060 O.2    84  ILE84      -0.2867
     98  CB        15.7010   22.4640   24.6340 C.3    84  ILE84       0.0252
     99  CG1       15.4890   21.0300   24.1850 C.3    84  ILE84       0.0019
    100  CG2       16.9410   23.0660   23.9740 C.3    84  ILE84       0.0019
    101  CD1       15.2340   20.8880   22.6910 C.3    84  ILE84       0.0001
@<TRIPOS>BOND
     1    68    67    2
     2    70    72    1
     3    70    69    1
     4    67    66    1
     5    66    69    1
     6    66    65    1
     7    64    63    2
     8    69    71    1
     9    63    65   am
    10    63    62    1
    11    60    59    2
    12    58    59    1
    13    58    57    1
    14    59    61   am
    15    61    62    1
    16    57    51   am
    17    52    51    2
    18    51    50    1
    19    20    19    2
    20    50    49    1
    21    50    53    1
    22    33    31   ar
    23    18    19    1
    24    18    17    1
    25    32    31   ar
    26    19    21   am
    27    31    30    1
    28    53    54    1
    29    53    55    1
    30    21    22    1
    31    54    56    1
    32    30    27    1
    33    22    23    1
    34    22    25    1
    35    26    23   am
    36    26    27    1
    37    15    14   ar
    38    23    24    2
    39    27    28    1
    40    85    86    1
    41    85    84    1
    42    41    39   ar
    43    16    14   ar
    44    86    80    1
    45    14    13    1
    46    84    81    1
    47    39    40   ar
    48    39    38    1
    49    28    34   am
    50    28    29    2
    51    11    12    2
    52    11    10    1
    53    34    35    1
    54    80    81    1
    55    80    75   am
    56   101    99    1
    57    81    82    1
    58    13    10    1
    59    10     9    1
    60    38    35    1
    61    74    75    1
    62    74    77    1
    63    74    73    1
    64     8     6    1
    65    78    77    1
    66    75    76    2
    67    35    36    1
    68    48    46    1
    69    37    36    2
    70    77    79    1
    71   100    98    1
    72    82    87   am
    73    82    83    2
    74    99    98    1
    75    92    91    1
    76    87    88    1
    77     6     7    1
    78     6     5    1
    79    98    95    1
    80    47    46    1
    81    46    43    1
    82    90    89    2
    83    91    88    1
    84    91    93    1
    85    88    89    1
    86     5     2    1
    87    95    96    1
    88    95    94    1
    89    43    42    1
    90    43    44    1
    91     4     3    2
    92     3     2    1
    93    96    97    2
    94     2     1    1
    95    45    44    2
