@<TRIPOS>MOLECULE
tmp/5uowB00.pdb
 119 114 0 0 0
SMALL
GASTEIGER

@<TRIPOS>ATOM
      1  N        215.6790  184.3840  227.6250 N.3   449  HIS449     -0.1241
      2  CA       214.2760  184.8020  227.5970 C.3   449  HIS449      0.1621
      3  C        213.4290  183.5570  227.8360 C.2   449  HIS449      0.2264
      4  O        213.6330  182.5350  227.1890 O.2   449  HIS449     -0.2867
      5  CB       213.9250  185.4360  226.2510 C.3   449  HIS449      0.0745
      6  CG       214.7370  186.6500  225.9250 C.ar  449  HIS449      0.0817
      7  ND1      214.6070  187.8390  226.6090 N.ar  449  HIS449     -0.2268
      8  CD2      215.6910  186.8590  224.9870 C.ar  449  HIS449      0.1154
      9  CE1      215.4440  188.7280  226.1070 C.ar  449  HIS449      0.1986
     10  NE2      216.1140  188.1590  225.1220 N.ar  449  HIS449     -0.2212
     11  N        215.3300  192.8900  226.8460 N.3   475  SER475     -0.1202
     12  CA       214.7940  193.0870  225.5050 C.3   475  SER475      0.2020
     13  C        213.5510  192.2270  225.3110 C.2   475  SER475      0.2619
     14  O        213.0460  192.0870  224.1950 O.2   475  SER475     -0.2717
     15  CB       215.8430  192.7530  224.4430 C.3   475  SER475      0.2103
     16  OG       216.2090  191.3850  224.5000 O.3   475  SER475     -0.2182
     17  N        213.0320  191.6740  226.4010 N.am  476  LEU476     -0.1965
     18  CA       211.9240  190.7290  226.2950 C.3   476  LEU476      0.1728
     19  C        210.6760  191.2390  225.5860 C.2   476  LEU476      0.2616
     20  O        210.1730  192.3300  225.8550 O.2   476  LEU476     -0.2715
     21  CB       211.5470  190.2040  227.6840 C.3   476  LEU476      0.0311
     22  CG       210.4910  189.0980  227.7280 C.3   476  LEU476      0.0022
     23  CD1      211.0770  187.8170  228.3020 C.3   476  LEU476      0.0001
     24  CD2      209.2780  189.5440  228.5310 C.3   476  LEU476      0.0001
     25  N        210.1950  190.4040  224.6690 N.am  477  THR477     -0.1951
     26  CA       208.9990  190.6680  223.8830 C.3   477  THR477      0.1897
     27  C        207.7550  190.3440  224.6950 C.2   477  THR477      0.2313
     28  O        207.8140  189.5730  225.6530 O.2   477  THR477     -0.2863
     29  CB       209.0130  189.8540  222.5760 C.3   477  THR477      0.1794
     30  OG1      210.1490  190.2290  221.7900 O.3   477  THR477     -0.2208
     31  CG2      207.8340  190.2370  221.6950 C.3   477  THR477      0.0378
     32  N        202.4830  185.3040  228.6000 N.3   482  ARG482     -0.1245
     33  CA       203.1880  186.0120  229.6390 C.3   482  ARG482      0.1563
     34  C        202.1120  186.8220  230.3720 C.2   482  ARG482      0.2260
     35  O        202.1240  186.8670  231.5900 O.2   482  ARG482     -0.2867
     36  CB       204.2440  186.9410  229.0430 C.3   482  ARG482      0.0307
     37  CG       205.1910  186.2600  228.0680 C.3   482  ARG482      0.0489
     38  CD       206.5670  186.9050  228.0930 C.3   482  ARG482      0.2205
     39  NE       207.6340  185.9230  227.9210 N.pl3 482  ARG482     -0.0865
     40  CZ       208.4550  185.8880  226.8770 C.cat 482  ARG482      0.5346
     41  NH1      208.3350  186.7830  225.9050 N.pl3 482  ARG482      0.1354
     42  NH2      209.3980  184.9590  226.8030 N.pl3 482  ARG482      0.1354
     43  N        208.9160  191.2890  214.3640 N.3   497  ILE497     -0.1245
     44  CA       209.7130  190.3160  213.6190 C.3   497  ILE497      0.1561
     45  C        210.1300  190.9830  212.3130 C.2   497  ILE497      0.2260
     46  O        209.3200  191.6540  211.6700 O.2   497  ILE497     -0.2867
     47  CB       208.9250  189.0190  213.3540 C.3   497  ILE497      0.0252
     48  CG1      207.6780  189.3140  212.5170 C.3   497  ILE497      0.0019
     49  CG2      208.5440  188.3500  214.6660 C.3   497  ILE497      0.0019
     50  CD1      206.9630  188.0750  212.0300 C.3   497  ILE497      0.0001
     51  N        215.5250  182.0930  212.2700 N.3   636  THR636     -0.1203
     52  CA       215.4630  182.9240  213.4650 C.3   636  THR636      0.1994
     53  C        216.0520  182.1880  214.6630 C.2   636  THR636      0.2617
     54  O        216.2570  180.9740  214.6190 O.2   636  THR636     -0.2717
     55  CB       214.0110  183.3450  213.7600 C.3   636  THR636      0.1784
     56  OG1      213.2000  182.1790  213.9380 O.3   636  THR636     -0.2211
     57  CG2      213.3940  184.0200  212.5440 C.3   636  THR636      0.0376
     58  N        216.3230  182.9380  215.7270 N.am  637  VAL637     -0.1979
     59  CA       216.9090  182.3920  216.9500 C.3   637  VAL637      0.1595
     60  C        215.9970  181.4270  217.7060 C.2   637  VAL637      0.2287
     61  O        214.7790  181.6040  217.7500 O.2   637  VAL637     -0.2864
     62  CB       217.3450  183.5160  217.9100 C.3   637  VAL637      0.0276
     63  CG1      218.5360  184.2700  217.3380 C.3   637  VAL637      0.0022
     64  CG2      216.1860  184.4630  218.1800 C.3   637  VAL637      0.0022
     65  N        214.2440  179.2270  220.7440 N.3   639  GLN639     -0.1231
     66  CA       213.5920  179.6050  221.9970 C.3   639  GLN639      0.1698
     67  C        213.0740  181.0470  222.0210 C.2   639  GLN639      0.2593
     68  O        213.0070  181.6690  223.0810 O.2   639  GLN639     -0.2718
     69  CB       214.5380  179.3730  223.1790 C.3   639  GLN639      0.0381
     70  CG       215.0000  177.9330  223.3300 C.3   639  GLN639      0.0905
     71  CD       216.4650  177.8280  223.7080 C.2   639  GLN639      0.2608
     72  OE1      216.8350  178.0230  224.8650 O.2   639  GLN639     -0.2717
     73  NE2      217.3070  177.5170  222.7290 N.am  639  GLN639     -0.0878
     74  N        212.7090  181.5720  220.8540 N.am  640  GLY640     -0.1942
     75  CA       212.1750  182.9120  220.7520 C.3   640  GLY640      0.2014
     76  C        210.6650  182.9000  220.8130 C.2   640  GLY640      0.2640
     77  O        210.0350  181.8600  220.6190 O.2   640  GLY640     -0.2714
     78  N        210.0790  184.0610  221.0820 N.am  641  SER641     -0.1935
     79  CA       208.6280  184.1950  221.1290 C.3   641  SER641      0.2055
     80  C        208.0180  183.8990  219.7570 C.2   641  SER641      0.2644
     81  O        206.9660  183.2670  219.6570 O.2   641  SER641     -0.2714
     82  CB       208.2320  185.5980  221.5900 C.3   641  SER641      0.2130
     83  OG       208.5190  186.5630  220.5930 O.3   641  SER641     -0.2179
     84  N        208.6880  184.3610  218.7040 N.am  642  THR642     -0.1936
     85  CA       208.2280  184.1650  217.3350 C.3   642  THR642      0.2028
     86  C        208.1390  182.7000  216.8980 C.2   642  THR642      0.2642
     87  O        207.1810  182.3240  216.2230 O.2   642  THR642     -0.2714
     88  CB       209.1180  184.9260  216.3320 C.3   642  THR642      0.1808
     89  OG1      209.0650  186.3310  216.6130 O.3   642  THR642     -0.2208
     90  CG2      208.6450  184.6800  214.9070 C.3   642  THR642      0.0379
     91  N        209.1130  181.8670  217.2650 N.am  643  GLU643     -0.1976
     92  CA       209.0350  180.4750  216.8450 C.3   643  GLU643      0.1602
     93  C        207.5970  180.0720  216.8590 C.2   643  GLU643      0.2287
     94  O        207.0980  179.4520  215.9250 O.2   643  GLU643     -0.2864
     95  CB       209.7640  179.5320  217.7790 C.3   643  GLU643      0.0415
     96  CG       211.2710  179.5380  217.7630 C.3   643  GLU643      0.1163
     97  CD       211.7910  178.5830  218.8100 C.2   643  GLU643      0.3649
     98  OE1      211.0650  178.3060  219.7360 O.co2 643  GLU643     -0.2457
     99  OE2      212.8910  178.1040  218.6780 O.co2 643  GLU643     -0.2457
    100  N        214.4000  188.8260  212.9330 N.3   682  TYR682     -0.1227
    101  CA       214.5690  188.9970  214.3700 C.3   682  TYR682      0.1736
    102  C        213.7310  190.1800  214.8450 C.2   682  TYR682      0.2595
    103  O        212.8840  190.7030  214.1000 O.2   682  TYR682     -0.2718
    104  CB       216.0420  189.2210  214.7150 C.3   682  TYR682      0.0548
    105  CG       216.4720  188.5830  216.0160 C.ar  682  TYR682     -0.0200
    106  CD1      216.0300  187.3140  216.3690 C.ar  682  TYR682     -0.0009
    107  CD2      217.3190  189.2480  216.8920 C.ar  682  TYR682     -0.0009
    108  CE1      216.4200  186.7270  217.5570 C.ar  682  TYR682      0.0417
    109  CE2      217.7150  188.6680  218.0820 C.ar  682  TYR682      0.0417
    110  CZ       217.2630  187.4080  218.4100 C.ar  682  TYR682      0.1957
    111  OH       217.6540  186.8270  219.5940 O.3   682  TYR682     -0.2866
    112  N        213.8930  190.5580  216.1100 N.am  683  ASP683     -0.1974
    113  CA       213.1760  191.7250  216.5810 C.3   683  ASP683      0.1709
    114  C        213.7700  192.8360  215.7260 C.2   683  ASP683      0.2293
    115  O        214.9880  193.0210  215.6760 O.2   683  ASP683     -0.2864
    116  CB       213.4550  191.9760  218.0600 C.3   683  ASP683      0.1436
    117  CG       212.7670  190.9700  218.9620 C.2   683  ASP683      0.3671
    118  OD1      211.7630  190.3680  218.5260 O.co2 683  ASP683     -0.2456
    119  OD2      213.2290  190.7820  220.1070 O.co2 683  ASP683     -0.2456
@<TRIPOS>BOND
     1    46    45    2
     2    50    48    1
     3    51    52    1
     4    45    44    1
     5    48    47    1
     6    57    55    1
     7   100   101    1
     8    47    44    1
     9    47    49    1
    10    52    55    1
    11    52    53    1
    12    44    43    1
    13    55    56    1
    14   103   102    2
    15   101   104    1
    16   101   102    1
    17    54    53    2
    18    53    58   am
    19   104   105    1
    20   102   112   am
    21    90    88    1
    22   115   114    2
    23   114   113    1
    24    58    59    1
    25    94    93    2
    26   105   106   ar
    27   105   107   ar
    28   112   113    1
    29    87    86    2
    30    88    89    1
    31    88    85    1
    32   106   108   ar
    33   113   116    1
    34    92    93    1
    35    92    91    1
    36    92    95    1
    37   107   109   ar
    38    86    91   am
    39    86    85    1
    40    59    60    1
    41    59    62    1
    42    85    84    1
    43    63    62    1
    44   108   110   ar
    45    60    61    2
    46    96    95    1
    47    96    97    1
    48    62    64    1
    49   116   117    1
    50   109   110   ar
    51   110   111    1
    52   118   117   ar
    53    99    97   ar
    54    84    80   am
    55    97    98   ar
    56   117   119   ar
    57    81    80    2
    58    80    79    1
    59    83    82    1
    60    77    76    2
    61    65    66    1
    62    75    76    1
    63    75    74    1
    64    76    78   am
    65    74    67   am
    66    78    79    1
    67    79    82    1
    68    31    29    1
    69    30    29    1
    70    66    67    1
    71    66    69    1
    72    67    68    2
    73    29    26    1
    74    73    71   am
    75    69    70    1
    76    70    71    1
    77    71    72    2
    78    26    25    1
    79    26    27    1
    80    14    13    2
    81    15    16    1
    82    15    12    1
    83    25    19   am
    84    27    28    2
    85     8    10   ar
    86     8     6   ar
    87    10     9   ar
    88    13    12    1
    89    13    17   am
    90    12    11    1
    91    19    20    2
    92    19    18    1
    93    41    40    1
    94     6     5    1
    95     6     7   ar
    96     9     7   ar
    97     5     2    1
    98    18    17    1
    99    18    21    1
   100    42    40    1
   101    40    39    2
   102     4     3    2
   103     2     1    1
   104     2     3    1
   105    21    22    1
   106    22    23    1
   107    22    24    1
   108    39    38    1
   109    37    38    1
   110    37    36    1
   111    32    33    1
   112    36    33    1
   113    33    34    1
   114    34    35    2
