@<TRIPOS>MOLECULE
tmp/5up9A04.pdb
 91 86 0 0 0
SMALL
GASTEIGER

@<TRIPOS>ATOM
      1  N        152.1060  187.8500   15.9460 N.3    50  TYR50      -0.1241
      2  CA       153.5320  187.9240   16.2450 C.3    50  TYR50       0.1605
      3  C        153.7700  188.1470   17.7330 C.2    50  TYR50       0.2264
      4  O        154.5290  187.4070   18.3750 O.2    50  TYR50      -0.2867
      5  CB       154.1660  189.0370   15.4120 C.3    50  TYR50       0.0534
      6  CG       155.6420  189.2600   15.6460 C.ar   50  TYR50      -0.0201
      7  CD1      156.5940  188.4950   14.9810 C.ar   50  TYR50      -0.0009
      8  CD2      156.0840  190.2630   16.4960 C.ar   50  TYR50      -0.0009
      9  CE1      157.9450  188.7050   15.1810 C.ar   50  TYR50       0.0417
     10  CE2      157.4340  190.4820   16.7000 C.ar   50  TYR50       0.0417
     11  CZ       158.3600  189.7010   16.0390 C.ar   50  TYR50       0.1957
     12  OH       159.7030  189.9200   16.2410 O.3    50  TYR50      -0.2866
     13  N        152.7990  185.1790   19.9350 N.3    53  HIS53      -0.1226
     14  CA       153.8470  184.1690   19.8980 C.3    53  HIS53       0.1752
     15  C        155.0190  184.5770   20.7820 C.2    53  HIS53       0.2595
     16  O        155.5470  183.7560   21.5430 O.2    53  HIS53      -0.2718
     17  CB       154.2980  183.9390   18.4540 C.3    53  HIS53       0.0759
     18  CG       155.5200  183.0850   18.3290 C.ar   53  HIS53       0.0818
     19  ND1      155.4890  181.7150   18.4780 N.ar   53  HIS53      -0.2268
     20  CD2      156.8100  183.4070   18.0750 C.ar   53  HIS53       0.1154
     21  CE1      156.7080  181.2290   18.3170 C.ar   53  HIS53       0.1986
     22  NE2      157.5280  182.2350   18.0720 N.ar   53  HIS53      -0.2212
     23  N        155.4260  185.8500   20.7160 N.am   54  GLN54      -0.1979
     24  CA       156.4760  186.3190   21.6160 C.3    54  GLN54       0.1601
     25  C        156.0890  186.0970   23.0740 C.2    54  GLN54       0.2287
     26  O        156.9150  185.6590   23.8830 O.2    54  GLN54      -0.2864
     27  CB       156.7720  187.8000   21.3690 C.3    54  GLN54       0.0394
     28  CG       157.2170  188.1400   19.9560 C.3    54  GLN54       0.0908
     29  CD       158.3840  187.2950   19.4970 C.2    54  GLN54       0.2608
     30  OE1      159.1660  186.8070   20.3130 O.2    54  GLN54      -0.2717
     31  NE2      158.5110  187.1180   18.1850 N.am   54  GLN54      -0.0878
     32  N        156.5140  182.5100   23.9980 N.3    57  GLU57      -0.1245
     33  CA       157.9460  182.2400   24.1060 C.3    57  GLU57       0.1567
     34  C        158.4950  182.7120   25.4470 C.2    57  GLU57       0.2260
     35  O        159.2260  181.9800   26.1250 O.2    57  GLU57      -0.2867
     36  CB       158.6930  182.9070   22.9530 C.3    57  GLU57       0.0388
     37  CG       158.2920  182.3870   21.5840 C.3    57  GLU57       0.1160
     38  CD       158.7560  180.9660   21.3420 C.2    57  GLU57       0.3649
     39  OE1      159.9560  180.6900   21.5530 O.co2  57  GLU57      -0.2457
     40  OE2      157.9200  180.1240   20.9480 O.co2  57  GLU57      -0.2457
     41  N        160.5970  180.7470   28.3530 N.3    61  HIS61      -0.1241
     42  CA       161.8300  181.1680   29.0180 C.3    61  HIS61       0.1621
     43  C        161.6810  181.1080   30.5320 C.2    61  HIS61       0.2264
     44  O        162.5510  180.5800   31.2410 O.2    61  HIS61      -0.2867
     45  CB       162.2070  182.5850   28.5880 C.3    61  HIS61       0.0745
     46  CG       162.4010  182.7430   27.1160 C.ar   61  HIS61       0.0817
     47  ND1      162.5770  183.9740   26.5220 N.ar   61  HIS61      -0.2268
     48  CD2      162.4450  181.8310   26.1170 C.ar   61  HIS61       0.1154
     49  CE1      162.7180  183.8140   25.2180 C.ar   61  HIS61       0.1986
     50  NE2      162.6420  182.5230   24.9460 N.ar   61  HIS61      -0.2212
     51  N        169.5640  183.4030   21.5400 N.3   136  GLU136     -0.1245
     52  CA       168.1610  183.7080   21.2800 C.3   136  GLU136      0.1567
     53  C        167.8860  185.1900   21.4810 C.2   136  GLU136      0.2260
     54  O        167.1130  185.7980   20.7310 O.2   136  GLU136     -0.2867
     55  CB       167.2650  182.8650   22.1870 C.3   136  GLU136      0.0388
     56  CG       167.4090  181.3670   21.9780 C.3   136  GLU136      0.1160
     57  CD       166.8880  180.9140   20.6290 C.2   136  GLU136      0.3649
     58  OE1      165.9610  181.5650   20.1010 O.co2 136  GLU136     -0.2457
     59  OE2      167.4080  179.9090   20.0990 O.co2 136  GLU136     -0.2457
     60  N        166.6280  187.6920   18.5640 N.3   140  ALA140     -0.1245
     61  CA       165.4230  188.4920   18.7520 C.3   140  ALA140      0.1562
     62  C        165.7240  189.9760   18.5930 C.2   140  ALA140      0.2260
     63  O        164.9530  190.7120   17.9650 O.2   140  ALA140     -0.2867
     64  CB       164.8180  188.2060   20.1240 C.3   140  ALA140      0.0290
     65  N        166.2670  190.7230   14.9000 N.3   143  GLU143     -0.1245
     66  CA       165.0150  190.6610   14.1530 C.3   143  GLU143      0.1567
     67  C        164.1590  191.8910   14.4180 C.2   143  GLU143      0.2260
     68  O        163.6130  192.4970   13.4880 O.2   143  GLU143     -0.2867
     69  CB       164.2620  189.3800   14.5070 C.3   143  GLU143      0.0388
     70  CG       162.8560  189.3030   13.9510 C.3   143  GLU143      0.1160
     71  CD       162.1940  187.9780   14.2670 C.2   143  GLU143      0.3649
     72  OE1      161.1090  187.9770   14.8830 O.co2 143  GLU143     -0.2457
     73  OE2      162.7760  186.9320   13.9140 O.co2 143  GLU143     -0.2457
     74  N        162.8650  194.6640   11.7190 N.3   147  HIS147     -0.1241
     75  CA       161.4770  195.1090   11.6360 C.3   147  HIS147      0.1621
     76  C        161.3780  196.6200   11.7860 C.2   147  HIS147      0.2264
     77  O        160.7150  197.2940   10.9910 O.2   147  HIS147     -0.2867
     78  CB       160.6330  194.4090   12.7030 C.3   147  HIS147      0.0745
     79  CG       160.4560  192.9430   12.4700 C.ar  147  HIS147      0.0817
     80  ND1      160.7100  192.3460   11.2530 N.ar  147  HIS147     -0.2268
     81  CD2      160.0220  191.9570   13.2910 C.ar  147  HIS147      0.1154
     82  CE1      160.4570  191.0520   11.3400 C.ar  147  HIS147      0.1986
     83  NE2      160.0370  190.7900   12.5660 N.ar  147  HIS147     -0.2212
     84  N        155.1000  190.0910    8.5120 N.3   171  LEU171     -0.1245
     85  CA       154.5710  189.3110    9.6220 C.3   171  LEU171      0.1561
     86  C        153.4560  188.3630    9.2050 C.2   171  LEU171      0.2260
     87  O        153.0670  187.5030   10.0020 O.2   171  LEU171     -0.2867
     88  CB       154.0720  190.2400   10.7350 C.3   171  LEU171      0.0270
     89  CG       155.1390  191.1780   11.3040 C.3   171  LEU171      0.0019
     90  CD1      154.5660  192.1000   12.3620 C.3   171  LEU171      0.0001
     91  CD2      156.3010  190.3750   11.8620 C.3   171  LEU171      0.0001
@<TRIPOS>BOND
     1    84    85    1
     2    86    85    1
     3    86    87    2
     4    85    88    1
     5    88    89    1
     6    77    76    2
     7    80    82   ar
     8    80    79   ar
     9    89    91    1
    10    89    90    1
    11    82    83   ar
    12    75    74    1
    13    75    76    1
    14    75    78    1
    15    79    78    1
    16    79    81   ar
    17    83    81   ar
    18    68    67    2
    19    73    71   ar
    20    70    71    1
    21    70    69    1
    22    66    67    1
    23    66    69    1
    24    66    65    1
    25    71    72   ar
    26     7     9   ar
    27     7     6   ar
    28     9    11   ar
    29     5     6    1
    30     5     2    1
    31     6     8   ar
    32     1     2    1
    33    11    12    1
    34    11    10   ar
    35     2     3    1
    36     8    10   ar
    37     3     4    2
    38    63    62    2
    39    22    20   ar
    40    22    21   ar
    41    20    18   ar
    42    31    29   am
    43    21    19   ar
    44    18    17    1
    45    18    19   ar
    46    17    14    1
    47    60    61    1
    48    62    61    1
    49    61    64    1
    50    29    28    1
    51    29    30    2
    52    14    13    1
    53    14    15    1
    54    28    27    1
    55    59    57   ar
    56    58    57   ar
    57    57    56    1
    58    23    15   am
    59    23    24    1
    60    54    53    2
    61    15    16    2
    62    40    38   ar
    63    52    53    1
    64    52    51    1
    65    52    55    1
    66    38    39   ar
    67    38    37    1
    68    27    24    1
    69    37    36    1
    70    24    25    1
    71    56    55    1
    72    36    33    1
    73    25    26    2
    74    32    33    1
    75    33    34    1
    76    50    49   ar
    77    50    48   ar
    78    49    47   ar
    79    34    35    2
    80    48    46   ar
    81    47    46   ar
    82    46    45    1
    83    41    42    1
    84    45    42    1
    85    42    43    1
    86    43    44    2
