@<TRIPOS>MOLECULE
tmp/5upeA00.pdb
 191 181 0 0 0
SMALL
GASTEIGER

@<TRIPOS>ATOM
      1  N         14.0170   -3.7300   -1.8120 N.3   168  TYR168     -0.1227
      2  CA        14.2780   -2.3060   -1.6380 C.3   168  TYR168      0.1736
      3  C         12.9850   -1.5440   -1.3390 C.2   168  TYR168      0.2595
      4  O         13.0310   -0.3390   -1.1310 O.2   168  TYR168     -0.2718
      5  CB        14.9900   -1.7450   -2.9010 C.3   168  TYR168      0.0548
      6  CG        16.4130   -2.2430   -3.0300 C.ar  168  TYR168     -0.0200
      7  CD1       16.7340   -3.2690   -3.9100 C.ar  168  TYR168     -0.0009
      8  CD2       17.4320   -1.7150   -2.2430 C.ar  168  TYR168     -0.0009
      9  CE1       18.0340   -3.7630   -4.0020 C.ar  168  TYR168      0.0417
     10  CE2       18.7410   -2.1860   -2.3370 C.ar  168  TYR168      0.0417
     11  CZ        19.0360   -3.2160   -3.2150 C.ar  168  TYR168      0.1957
     12  OH        20.3250   -3.6960   -3.3030 O.3   168  TYR168     -0.2866
     13  N         11.8520   -2.2460   -1.2510 N.am  169  LYS169     -0.1980
     14  CA        10.5330   -1.6260   -1.0620 C.3   169  LYS169      0.1596
     15  C         10.1900   -1.2040    0.3810 C.2   169  LYS169      0.2287
     16  O          9.2440   -0.4430    0.5770 O.2   169  LYS169     -0.2864
     17  CB         9.4400   -2.5290   -1.6270 C.3   169  LYS169      0.0298
     18  CG         9.4730   -2.5320   -3.1520 C.3   169  LYS169      0.0038
     19  CD         8.1070   -2.2700   -3.7490 C.3   169  LYS169      0.0206
     20  CE         8.1810   -2.1020   -5.2410 C.3   169  LYS169      0.1093
     21  NZ         8.5850   -0.7320   -5.6340 N.3   169  LYS169     -0.1314
     22  N         12.2240    0.5130    3.4150 N.3   171  HIS171     -0.1241
     23  CA        13.4500    1.1540    3.8650 C.3   171  HIS171      0.1621
     24  C         13.3900    1.5330    5.3490 C.2   171  HIS171      0.2264
     25  O         12.4090    2.1110    5.8300 O.2   171  HIS171     -0.2867
     26  CB        13.7550    2.3930    2.9770 C.3   171  HIS171      0.0745
     27  CG        15.1900    2.8340    2.9990 C.ar  171  HIS171      0.0817
     28  ND1       16.0740    2.4600    1.9950 N.ar  171  HIS171     -0.2268
     29  CD2       15.8390    3.6400    3.8760 C.ar  171  HIS171      0.1154
     30  CE1       17.2370    3.0160    2.3100 C.ar  171  HIS171      0.1986
     31  NE2       17.1450    3.7430    3.4370 N.ar  171  HIS171     -0.2212
     32  N         13.9330    3.7970    8.2620 N.3   173  PHE173     -0.1241
     33  CA        14.0310    5.2380    8.6020 C.3   173  PHE173      0.1605
     34  C         14.0890    5.4400   10.1360 C.2   173  PHE173      0.2264
     35  O         13.9730    6.5650   10.6180 O.2   173  PHE173     -0.2867
     36  CB        12.7620    5.9610    8.0810 C.3   173  PHE173      0.0534
     37  CG        12.6700    6.3240    6.6120 C.ar  173  PHE173     -0.0203
     38  CD1       11.7370    7.2570    6.1700 C.ar  173  PHE173     -0.0042
     39  CD2       13.4540    5.6720    5.6610 C.ar  173  PHE173     -0.0042
     40  CE1       11.6290    7.5760    4.8140 C.ar  173  PHE173     -0.0003
     41  CE2       13.3370    5.9810    4.3010 C.ar  173  PHE173     -0.0003
     42  CZ        12.4270    6.9300    3.8900 C.ar  173  PHE173     -0.0000
     43  N         16.3450    5.1690   12.7850 N.3   175  TYR175     -0.1227
     44  CA        17.4490    5.5340   13.6790 C.3   175  TYR175      0.1736
     45  C         17.0600    6.5070   14.8470 C.2   175  TYR175      0.2595
     46  O         17.2990    6.1960   16.0170 O.2   175  TYR175     -0.2718
     47  CB        18.5990    6.1090   12.8310 C.3   175  TYR175      0.0548
     48  CG        19.9920    5.8650   13.3670 C.ar  175  TYR175     -0.0200
     49  CD1       20.2080    5.5950   14.7230 C.ar  175  TYR175     -0.0009
     50  CD2       21.0980    5.9570   12.5380 C.ar  175  TYR175     -0.0009
     51  CE1       21.4900    5.4060   15.2260 C.ar  175  TYR175      0.0417
     52  CE2       22.3860    5.7710   13.0310 C.ar  175  TYR175      0.0417
     53  CZ        22.5800    5.5200   14.3790 C.ar  175  TYR175      0.1957
     54  OH        23.8560    5.3280   14.8610 O.3   175  TYR175     -0.2866
     55  N         16.4500    7.6540   14.5280 N.am  176  ARG176     -0.1980
     56  CA        16.0660    8.6440   15.5300 C.3   176  ARG176      0.1597
     57  C         14.9420    8.2020   16.4750 C.2   176  ARG176      0.2287
     58  O         14.8640    8.7300   17.5930 O.2   176  ARG176     -0.2864
     59  CB        15.6590    9.9530   14.8510 C.3   176  ARG176      0.0334
     60  CG        14.2530    9.9500   14.2660 C.3   176  ARG176      0.0492
     61  CD        14.0590   11.1170   13.3170 C.3   176  ARG176      0.2205
     62  NE        14.9730   11.0310   12.1760 N.pl3 176  ARG176     -0.0865
     63  CZ        15.0710   11.9540   11.2290 C.cat 176  ARG176      0.5346
     64  NH1       14.3000   13.0330   11.2610 N.pl3 176  ARG176      0.1354
     65  NH2       15.9330   11.8010   10.2390 N.pl3 176  ARG176      0.1354
     66  N         18.8340    3.3180    6.3250 N.3   199  ASP199     -0.1239
     67  CA        19.4750    4.5820    6.6780 C.3   199  ASP199      0.1674
     68  C         20.0490    4.4950    8.0880 C.2   199  ASP199      0.2266
     69  O         20.7170    5.4160    8.5590 O.2   199  ASP199     -0.2867
     70  CB        18.5020    5.7660    6.5670 C.3   199  ASP199      0.1410
     71  CG        18.6980    6.5400    5.2940 C.2   199  ASP199      0.3668
     72  OD1       18.6830    5.9120    4.2150 O.co2 199  ASP199     -0.2456
     73  OD2       18.8610    7.7750    5.3730 O.co2 199  ASP199     -0.2456
     74  N         21.6400    2.8340    0.7040 N.3   221  SER221     -0.1202
     75  CA        20.8180    4.0450    0.7730 C.3   221  SER221      0.2020
     76  C         21.0250    4.9170   -0.4740 C.2   221  SER221      0.2618
     77  O         21.9500    4.6880   -1.2520 O.2   221  SER221     -0.2717
     78  CB        21.1250    4.8280    2.0540 C.3   221  SER221      0.2103
     79  OG        20.4180    6.0540    2.1440 O.3   221  SER221     -0.2182
     80  N         20.1140    5.8750   -0.6790 N.am  222  VAL222     -0.1979
     81  CA        20.1840    6.8580   -1.7590 C.3   222  VAL222      0.1595
     82  C         20.2540    8.2730   -1.1310 C.2   222  VAL222      0.2287
     83  O         19.7680    8.4700    0.0000 O.2   222  VAL222     -0.2864
     84  CB        19.0320    6.7450   -2.8040 C.3   222  VAL222      0.0276
     85  CG1       18.9430    5.3550   -3.4330 C.3   222  VAL222      0.0022
     86  CG2       17.6870    7.1970   -2.2420 C.3   222  VAL222      0.0022
     87  N         19.0010   11.8550   -0.1620 N.3   224  ALA224     -0.1231
     88  CA        17.6260   12.2390    0.1060 C.3   224  ALA224      0.1694
     89  C         17.6500   13.5440    0.8720 C.2   224  ALA224      0.2592
     90  O         18.5930   13.7980    1.6160 O.2   224  ALA224     -0.2718
     91  CB        16.9430   11.1440    0.9540 C.3   224  ALA224      0.0304
     92  N         16.6190   14.3610    0.6880 N.am  225  ALA225     -0.1966
     93  CA        16.4720   15.6350    1.3780 C.3   225  ALA225      0.1728
     94  C         15.6940   15.4300    2.6770 C.2   225  ALA225      0.2616
     95  O         15.0230   14.4120    2.8590 O.2   225  ALA225     -0.2715
     96  CB        15.7330   16.6170    0.4820 C.3   225  ALA225      0.0334
     97  N         15.8370   16.3950    3.6010 N.am  226  GLU226     -0.1977
     98  CA        15.0590   16.4870    4.8210 C.3   226  GLU226      0.1602
     99  C         14.4170   17.8350    4.8050 C.2   226  GLU226      0.2287
    100  O         14.7870   18.6600    3.9660 O.2   226  GLU226     -0.2864
    101  CB        15.8810   16.2490    6.0970 C.3   226  GLU226      0.0415
    102  CG        16.8650   17.3450    6.4720 C.3   226  GLU226      0.1163
    103  CD        17.7020   16.9910    7.6890 C.2   226  GLU226      0.3649
    104  OE1       18.3100   17.8990    8.2960 O.co2 226  GLU226     -0.2457
    105  OE2       17.7710   15.7890    8.0290 O.co2 226  GLU226     -0.2457
    106  N         19.8090    8.1250   -8.0140 N.3   253  PRO253     -0.2116
    107  CA        18.4280    8.3350   -7.5420 C.3   253  PRO253      0.1372
    108  C         18.4490    9.3510   -6.3860 C.2   253  PRO253      0.2244
    109  O         19.4700    9.4890   -5.6750 O.2   253  PRO253     -0.2868
    110  CB        17.9590    6.9500   -7.0880 C.3   253  PRO253      0.0268
    111  CG        19.0840    6.0430   -7.2670 C.3   253  PRO253      0.0207
    112  CD        20.3040    6.7800   -7.6580 C.3   253  PRO253      0.0892
    113  N         15.7630   11.2470   -3.4260 N.3   255  SER255     -0.1217
    114  CA        14.4850   11.3770   -2.7660 C.3   255  SER255      0.1889
    115  C         14.3590   12.8250   -2.3260 C.2   255  SER255      0.2288
    116  O         15.3010   13.3850   -1.7860 O.2   255  SER255     -0.2866
    117  CB        14.4120   10.4320   -1.5720 C.3   255  SER255      0.2089
    118  OG        13.3940   10.8500   -0.6790 O.3   255  SER255     -0.2183
    119  N         16.6910    5.9930  -15.9040 N.3   284  THR284     -0.1203
    120  CA        15.9290    4.9120  -15.2880 C.3   284  THR284      0.1994
    121  C         16.6370    4.4080  -14.0130 C.2   284  THR284      0.2617
    122  O         15.9600    3.9340  -13.0900 O.2   284  THR284     -0.2717
    123  CB        15.6980    3.8460  -16.3820 C.3   284  THR284      0.1784
    124  OG1       14.7020    4.3720  -17.2650 O.3   284  THR284     -0.2211
    125  CG2       15.2390    2.4990  -15.8350 C.3   284  THR284      0.0376
    126  N         17.9920    4.5480  -13.9510 N.am  285  GLN285     -0.1979
    127  CA        18.8000    4.1430  -12.7960 C.3   285  GLN285      0.1601
    128  C         18.9440    5.3090  -11.8000 C.2   285  GLN285      0.2287
    129  O         19.6200    5.1700  -10.7830 O.2   285  GLN285     -0.2864
    130  CB        20.1730    3.6070  -13.2390 C.3   285  GLN285      0.0394
    131  CG        21.1760    4.6450  -13.7400 C.3   285  GLN285      0.0908
    132  CD        22.4440    4.0540  -14.3340 C.2   285  GLN285      0.2608
    133  OE1       23.0900    3.1830  -13.7370 O.2   285  GLN285     -0.2717
    134  NE2       22.8680    4.5850  -15.4790 N.am  285  GLN285     -0.0878
    135  N         16.0270    7.7690  -10.8010 N.3   287  PRO287     -0.2116
    136  CA        14.7650    8.4980  -10.7560 C.3   287  PRO287      0.1372
    137  C         14.7230    9.5710   -9.6620 C.2   287  PRO287      0.2244
    138  O         15.5410    9.5860   -8.7340 O.2   287  PRO287     -0.2868
    139  CB        13.7520    7.3890  -10.4060 C.3   287  PRO287      0.0268
    140  CG        14.5300    6.4190   -9.6150 C.3   287  PRO287      0.0207
    141  CD        15.8650    6.3920  -10.2730 C.3   287  PRO287      0.0892
    142  N         12.5300   10.5030   -6.6260 N.3   289  ILE289     -0.1245
    143  CA        11.6220    9.8350   -5.7260 C.3   289  ILE289      0.1561
    144  C         10.9270   10.9430   -4.9220 C.2   289  ILE289      0.2260
    145  O         11.5600   11.6470   -4.1310 O.2   289  ILE289     -0.2867
    146  CB        12.3100    8.7040   -4.8960 C.3   289  ILE289      0.0252
    147  CG1       13.1220    7.7500   -5.8110 C.3   289  ILE289      0.0019
    148  CG2       11.2500    7.9060   -4.1450 C.3   289  ILE289      0.0019
    149  CD1       14.3840    7.1610   -5.2230 C.3   289  ILE289      0.0001
    150  N          8.7690   12.4280   -2.0230 N.3   291  ARG291     -0.1245
    151  CA         8.4180   11.9660   -0.6870 C.3   291  ARG291      0.1563
    152  C          7.3560   12.8140    0.0390 C.2   291  ARG291      0.2260
    153  O          7.6970   13.8440    0.6240 O.2   291  ARG291     -0.2867
    154  CB         9.6750   11.8230    0.1810 C.3   291  ARG291      0.0307
    155  CG         9.4010   11.2930    1.6010 C.3   291  ARG291      0.0489
    156  CD        10.6480   10.7870    2.2790 C.3   291  ARG291      0.2205
    157  NE        11.5540   11.8600    2.7070 N.pl3 291  ARG291     -0.0865
    158  CZ        11.5450   12.4410    3.9100 C.cat 291  ARG291      0.5346
    159  NH1       10.6570   12.0820    4.8250 N.pl3 291  ARG291      0.1354
    160  NH2       12.4360   13.3680    4.2090 N.pl3 291  ARG291      0.1354
    161  N          9.7360    5.6680  -15.8140 N.3   326  PRO326     -0.2116
    162  CA        10.8160    5.1350  -14.9760 C.3   326  PRO326      0.1372
    163  C         11.6950    6.1480  -14.2440 C.2   326  PRO326      0.2244
    164  O         12.3800    5.7620  -13.3160 O.2   326  PRO326     -0.2868
    165  CB        11.6310    4.2780  -15.9470 C.3   326  PRO326      0.0268
    166  CG        11.2980    4.8030  -17.3130 C.3   326  PRO326      0.0207
    167  CD         9.8770    5.2200  -17.2210 C.3   326  PRO326      0.0892
    168  N          9.3480    8.0580   -9.1670 N.3   329  ARG329     -0.1245
    169  CA         8.8180    7.1390   -8.1560 C.3   329  ARG329      0.1563
    170  C          8.3460    7.9200   -6.9320 C.2   329  ARG329      0.2260
    171  O          8.5420    9.1300   -6.8520 O.2   329  ARG329     -0.2867
    172  CB         9.8410    6.0550   -7.7610 C.3   329  ARG329      0.0307
    173  CG        10.1090    4.9790   -8.8340 C.3   329  ARG329      0.0489
    174  CD         8.8700    4.2340   -9.2690 C.3   329  ARG329      0.2205
    175  NE         9.1520    3.2170  -10.2880 N.pl3 329  ARG329     -0.0865
    176  CZ         8.8800    3.3520  -11.5850 C.cat 329  ARG329      0.5346
    177  NH1        8.3490    4.4800  -12.0460 N.pl3 329  ARG329      0.1354
    178  NH2        9.1320    2.3590  -12.4270 N.pl3 329  ARG329      0.1354
    179  N          7.8530    7.5300   -2.4420 N.3   331  ILE331     -0.1245
    180  CA         8.1820    6.8500   -1.1940 C.3   331  ILE331      0.1561
    181  C          7.3010    7.4520   -0.1170 C.2   331  ILE331      0.2260
    182  O          7.3140    8.6770    0.0850 O.2   331  ILE331     -0.2867
    183  CB         9.7020    6.7860   -0.7680 C.3   331  ILE331      0.0252
    184  CG1        9.8250    5.9660    0.5620 C.3   331  ILE331      0.0019
    185  CG2       10.3090    8.1850   -0.5800 C.3   331  ILE331      0.0019
    186  CD1       11.0260    5.1680    0.7860 C.3   331  ILE331      0.0001
    187  N          7.6370    2.8300   -2.7300 N.3   359  ALA359     -0.1245
    188  CA         8.4980    2.2190   -1.7230 C.3   359  ALA359      0.1562
    189  C          7.9920    2.8060   -0.4000 C.2   359  ALA359      0.2260
    190  O          7.2720    3.8070   -0.3770 O.2   359  ALA359     -0.2867
    191  CB         9.9580    2.6070   -1.9490 C.3   359  ALA359      0.0290
@<TRIPOS>BOND
     1   166   167    1
     2   166   165    1
     3   124   123    1
     4   167   161    1
     5   123   125    1
     6   123   120    1
     7   165   162    1
     8   119   120    1
     9   161   162    1
    10   134   132   am
    11   120   121    1
    12   162   163    1
    13   132   131    1
    14   132   133    2
    15   163   164    2
    16   121   126   am
    17   121   122    2
    18   126   127    1
    19   131   130    1
    20   130   127    1
    21   127   128    1
    22   178   176    1
    23   177   176    1
    24   128   129    2
    25   176   175    2
    26   135   136    1
    27   135   141    1
    28   136   139    1
    29   136   137    1
    30   139   140    1
    31   175   174    1
    32   141   140    1
    33   137   138    2
    34   174   173    1
    35   168   169    1
    36   173   172    1
    37   169   172    1
    38   169   170    1
    39   106   112    1
    40   106   107    1
    41   112   111    1
    42   107   110    1
    43   107   108    1
    44   111   110    1
    45   170   171    2
    46   142   143    1
    47   108   109    2
    48   147   149    1
    49   147   146    1
    50   143   144    1
    51   143   146    1
    52    21    20    1
    53    20    19    1
    54   144   145    2
    55   146   148    1
    56     9     7   ar
    57     9    11   ar
    58     7     6   ar
    59    19    18    1
    60    85    84    1
    61   113   114    1
    62    12    11    1
    63    11    10   ar
    64    18    17    1
    65     6     5    1
    66     6     8   ar
    67     5     2    1
    68    84    86    1
    69    84    81    1
    70   114   115    1
    71   114   117    1
    72   187   188    1
    73   179   180    1
    74    10     8   ar
    75   115   116    2
    76   150   151    1
    77   191   188    1
    78     1     2    1
    79    81    82    1
    80    81    80    1
    81   188   189    1
    82     2     3    1
    83    17    14    1
    84   117   118    1
    85     3    13   am
    86     3     4    2
    87    77    76    2
    88    13    14    1
    89   180   183    1
    90   180   181    1
    91    82    83    2
    92    14    15    1
    93   183   185    1
    94   183   184    1
    95   151   152    1
    96   151   154    1
    97    80    76   am
    98    76    75    1
    99   189   190    2
   100    87    88    1
   101   181   182    2
   102   152   153    2
   103    88    89    1
   104    88    91    1
   105   154   155    1
   106    15    16    2
   107    96    93    1
   108   184   186    1
   109    92    89   am
   110    92    93    1
   111    74    75    1
   112    75    78    1
   113    89    90    2
   114    93    94    1
   115   155   156    1
   116    28    30   ar
   117    28    27   ar
   118    78    79    1
   119   156   157    1
   120    30    31   ar
   121    94    95    2
   122    94    97   am
   123   157   158    2
   124    26    27    1
   125    26    23    1
   126    27    29   ar
   127    22    23    1
   128    31    29   ar
   129    97    98    1
   130    23    24    1
   131    42    41   ar
   132    42    40   ar
   133   158   160    1
   134   158   159    1
   135   100    99    2
   136    72    71   ar
   137    41    39   ar
   138    99    98    1
   139    40    38   ar
   140    98   101    1
   141    71    73   ar
   142    71    70    1
   143    24    25    2
   144    39    37   ar
   145   101   102    1
   146    38    37   ar
   147    66    67    1
   148   102   103    1
   149    70    67    1
   150    37    36    1
   151    67    68    1
   152   103   105   ar
   153   103   104   ar
   154    36    33    1
   155    68    69    2
   156    32    33    1
   157    33    34    1
   158    34    35    2
   159    65    63    1
   160    63    64    1
   161    63    62    2
   162    62    61    1
   163    50    52   ar
   164    50    48   ar
   165    43    44    1
   166    47    48    1
   167    47    44    1
   168    52    53   ar
   169    61    60    1
   170    48    49   ar
   171    44    45    1
   172    60    59    1
   173    53    54    1
   174    53    51   ar
   175    55    45   am
   176    55    56    1
   177    49    51   ar
   178    45    46    2
   179    59    56    1
   180    56    57    1
   181    57    58    2
