@<TRIPOS>MOLECULE
tmp/5upfB00.pdb
 184 173 0 0 0
SMALL
GASTEIGER

@<TRIPOS>ATOM
      1  N          5.9480    5.9170   51.6440 N.3   165  GLY165     -0.1225
      2  CA         6.3840    4.8110   50.7830 C.3   165  GLY165      0.1811
      3  C          5.9360    4.8770   49.3390 C.2   165  GLY165      0.2280
      4  O          6.0970    3.8930   48.6060 O.2   165  GLY165     -0.2866
      5  N          8.2330    3.7590   46.4050 N.3   168  TYR168     -0.1227
      6  CA         8.5090    2.3350   46.2580 C.3   168  TYR168      0.1736
      7  C          7.2860    1.6220   45.6600 C.2   168  TYR168      0.2595
      8  O          7.3320    0.4170   45.4560 O.2   168  TYR168     -0.2718
      9  CB         8.9190    1.7320   47.6220 C.3   168  TYR168      0.0548
     10  CG        10.2220    2.3190   48.1350 C.ar  168  TYR168     -0.0200
     11  CD1       11.4490    1.8730   47.6500 C.ar  168  TYR168     -0.0009
     12  CD2       10.2250    3.3900   49.0290 C.ar  168  TYR168     -0.0009
     13  CE1       12.6500    2.4280   48.0950 C.ar  168  TYR168      0.0417
     14  CE2       11.4200    3.9700   49.4620 C.ar  168  TYR168      0.0417
     15  CZ        12.6300    3.4800   48.9990 C.ar  168  TYR168      0.1957
     16  OH        13.8140    4.0170   49.4420 O.3   168  TYR168     -0.2866
     17  N          6.2170    2.3760   45.3580 N.am  169  LYS169     -0.1980
     18  CA         4.9440    1.8000   44.8910 C.3   169  LYS169      0.1596
     19  C          4.9000    1.4030   43.4100 C.2   169  LYS169      0.2287
     20  O          3.9740    0.6920   43.0070 O.2   169  LYS169     -0.2864
     21  CB         3.7640    2.7270   45.2060 C.3   169  LYS169      0.0298
     22  CG         3.5020    2.9000   46.6900 C.3   169  LYS169      0.0038
     23  CD         2.4700    1.9290   47.1860 C.3   169  LYS169      0.0206
     24  CE         2.2410    2.0200   48.6660 C.3   169  LYS169      0.1093
     25  NZ         2.0350    0.6860   49.2610 N.3   169  LYS169     -0.1314
     26  N          7.5510   -0.3420   40.8520 N.3   171  HIS171     -0.1241
     27  CA         8.8490   -1.0000   40.7140 C.3   171  HIS171      0.1621
     28  C          9.1070   -1.3810   39.2540 C.2   171  HIS171      0.2264
     29  O          8.2280   -1.9200   38.5950 O.2   171  HIS171     -0.2867
     30  CB         8.9320   -2.2410   41.6260 C.3   171  HIS171      0.0745
     31  CG        10.3340   -2.6790   41.9300 C.ar  171  HIS171      0.0817
     32  ND1       11.0050   -2.2060   43.0480 N.ar  171  HIS171     -0.2268
     33  CD2       11.1400   -3.5440   41.2670 C.ar  171  HIS171      0.1154
     34  CE1       12.1760   -2.8120   43.0480 C.ar  171  HIS171      0.1986
     35  NE2       12.3090   -3.6320   41.9940 N.ar  171  HIS171     -0.2212
     36  N         10.3060   -3.6610   36.5340 N.3   173  PHE173     -0.1241
     37  CA        10.4740   -5.0720   36.2040 C.3   173  PHE173      0.1605
     38  C         10.8860   -5.2270   34.7170 C.2   173  PHE173      0.2264
     39  O         10.8370   -6.3470   34.1990 O.2   173  PHE173     -0.2867
     40  CB         9.1130   -5.7990   36.4010 C.3   173  PHE173      0.0534
     41  CG         8.6620   -6.1560   37.8060 C.ar  173  PHE173     -0.0203
     42  CD1        9.2620   -5.5710   38.9280 C.ar  173  PHE173     -0.0042
     43  CD2        7.6250   -7.0540   38.0070 C.ar  173  PHE173     -0.0042
     44  CE1        8.8190   -5.8860   40.2220 C.ar  173  PHE173     -0.0003
     45  CE2        7.1960   -7.3900   39.3080 C.ar  173  PHE173     -0.0003
     46  CZ         7.7910   -6.8000   40.4020 C.ar  173  PHE173     -0.0000
     47  N         14.2560   -7.4150   31.0920 N.3   176  ARG176     -0.1245
     48  CA        14.1490   -8.4190   30.0170 C.3   176  ARG176      0.1563
     49  C         13.3230   -7.9590   28.8250 C.2   176  ARG176      0.2260
     50  O         13.5350   -8.4540   27.7160 O.2   176  ARG176     -0.2867
     51  CB        13.5840   -9.7410   30.5830 C.3   176  ARG176      0.0307
     52  CG        12.0750   -9.7340   30.8280 C.3   176  ARG176      0.0489
     53  CD        11.6350  -10.8940   31.7020 C.3   176  ARG176      0.2205
     54  NE        12.2440  -10.8010   33.0280 N.pl3 176  ARG176     -0.0865
     55  CZ        12.0810  -11.6860   34.0080 C.cat 176  ARG176      0.5346
     56  NH1       11.2650  -12.7250   33.8500 N.pl3 176  ARG176      0.1354
     57  NH2       12.7220  -11.5370   35.1510 N.pl3 176  ARG176      0.1354
     58  N         14.4930   -3.1980   39.6100 N.3   199  ASP199     -0.1239
     59  CA        15.1790   -4.4540   39.4100 C.3   199  ASP199      0.1674
     60  C         16.1120   -4.3320   38.1860 C.2   199  ASP199      0.2266
     61  O         16.9200   -5.2290   37.9270 O.2   199  ASP199     -0.2867
     62  CB        14.2200   -5.6710   39.3110 C.3   199  ASP199      0.1410
     63  CG        14.1040   -6.4210   40.6150 C.2   199  ASP199      0.3668
     64  OD1       13.9010   -5.7680   41.6550 O.co2 199  ASP199     -0.2456
     65  OD2       14.1860   -7.6550   40.5910 O.co2 199  ASP199     -0.2456
     66  N         15.9670   -2.6630   46.0020 N.3   221  SER221     -0.1202
     67  CA        15.1030   -3.8210   45.7750 C.3   221  SER221      0.2020
     68  C         15.1310   -4.7640   46.9790 C.2   221  SER221      0.2618
     69  O         15.8280   -4.5260   47.9670 O.2   221  SER221     -0.2717
     70  CB        15.4480   -4.5440   44.4640 C.3   221  SER221      0.2103
     71  OG        14.4640   -5.5330   44.1870 O.3   221  SER221     -0.2182
     72  N         14.3010   -5.7760   46.9240 N.am  222  VAL222     -0.1979
     73  CA        14.1590   -6.7700   47.9670 C.3   222  VAL222      0.1595
     74  C         14.2580   -8.1680   47.3510 C.2   222  VAL222      0.2287
     75  O         14.0020   -8.3020   46.1330 O.2   222  VAL222     -0.2864
     76  CB        12.8400   -6.5930   48.8150 C.3   222  VAL222      0.0276
     77  CG1       12.6800   -5.1740   49.3830 C.3   222  VAL222      0.0022
     78  CG2       11.5820   -7.0430   48.0500 C.3   222  VAL222      0.0022
     79  N         13.1240  -11.7000   46.0090 N.3   224  ALA224     -0.1231
     80  CA        11.8450  -12.0760   45.4070 C.3   224  ALA224      0.1694
     81  C         12.0150  -13.3970   44.6530 C.2   224  ALA224      0.2592
     82  O         13.0990  -13.6720   44.1350 O.2   224  ALA224     -0.2718
     83  CB        11.3760  -10.9750   44.4570 C.3   224  ALA224      0.0304
     84  N         10.9420  -14.2120   44.6030 N.am  225  ALA225     -0.1966
     85  CA        10.9000  -15.4750   43.8590 C.3   225  ALA225      0.1728
     86  C         10.4640  -15.2490   42.4140 C.2   225  ALA225      0.2616
     87  O          9.9050  -14.2050   42.0650 O.2   225  ALA225     -0.2715
     88  CB         9.9250  -16.4460   44.5270 C.3   225  ALA225      0.0334
     89  N         10.7920  -16.2270   41.5540 N.am  226  GLU226     -0.1977
     90  CA        10.3360  -16.2800   40.1760 C.3   226  GLU226      0.1602
     91  C          9.7170  -17.6550   40.0130 C.2   226  GLU226      0.2287
     92  O          9.8490  -18.4640   40.9260 O.2   226  GLU226     -0.2864
     93  CB        11.4640  -16.0370   39.1690 C.3   226  GLU226      0.0415
     94  CG        12.5310  -17.1020   39.1020 C.3   226  GLU226      0.1163
     95  CD        13.5370  -16.7500   38.0290 C.2   226  GLU226      0.3649
     96  OE1       14.0910  -17.6840   37.4180 O.co2 226  GLU226     -0.2457
     97  OE2       13.7790  -15.5410   37.8080 O.co2 226  GLU226     -0.2457
     98  N         11.8870   -7.7140   53.7650 N.3   253  PRO253     -0.2116
     99  CA        10.6620   -7.9790   52.9930 C.3   253  PRO253      0.1372
    100  C         10.9710   -9.0330   51.9170 C.2   253  PRO253      0.2244
    101  O         12.1130   -9.1290   51.4300 O.2   253  PRO253     -0.2868
    102  CB        10.3560   -6.6220   52.3430 C.3   253  PRO253      0.0268
    103  CG        11.0690   -5.6180   53.2160 C.3   253  PRO253      0.0207
    104  CD        12.3270   -6.3130   53.5710 C.3   253  PRO253      0.0892
    105  N          9.2490  -10.9680   48.4100 N.3   255  SER255     -0.1217
    106  CA         8.1530  -11.0740   47.4450 C.3   255  SER255      0.1889
    107  C          8.0880  -12.5150   46.9540 C.2   255  SER255      0.2288
    108  O          9.1170  -13.0940   46.5980 O.2   255  SER255     -0.2866
    109  CB         8.3510  -10.1070   46.2860 C.3   255  SER255      0.2089
    110  OG         7.6630  -10.5600   45.1260 O.3   255  SER255     -0.2183
    111  N          7.7000   -7.5770   55.6530 N.3   287  PRO287     -0.2116
    112  CA         6.4700   -8.2520   55.2740 C.3   287  PRO287      0.1372
    113  C          6.6750   -9.3120   54.1950 C.2   287  PRO287      0.2244
    114  O          7.6990   -9.3330   53.4780 O.2   287  PRO287     -0.2868
    115  CB         5.6000   -7.1120   54.7460 C.3   287  PRO287      0.0268
    116  CG         6.5790   -6.1010   54.2350 C.3   287  PRO287      0.0207
    117  CD         7.7240   -6.1730   55.1750 C.3   287  PRO287      0.0892
    118  N          5.2890  -10.2790   50.7450 N.3   289  ILE289     -0.1245
    119  CA         4.6050   -9.5760   49.6670 C.3   289  ILE289      0.1561
    120  C          4.1370  -10.6650   48.6980 C.2   289  ILE289      0.2260
    121  O          4.9670  -11.3170   48.0600 O.2   289  ILE289     -0.2867
    122  CB         5.4960   -8.4590   49.0330 C.3   289  ILE289      0.0252
    123  CG1        5.9740   -7.4610   50.1460 C.3   289  ILE289      0.0019
    124  CG2        4.6920   -7.7100   47.9390 C.3   289  ILE289      0.0019
    125  CD1        7.1300   -6.6900   49.8780 C.3   289  ILE289      0.0001
    126  N          2.7080  -12.1850   45.3940 N.3   291  ARG291     -0.1245
    127  CA         2.7110  -11.6920   44.0290 C.3   291  ARG291      0.1563
    128  C          1.8500  -12.4970   43.0530 C.2   291  ARG291      0.2260
    129  O          2.3100  -13.5290   42.5720 O.2   291  ARG291     -0.2867
    130  CB         4.1530  -11.5690   43.4960 C.3   291  ARG291      0.0307
    131  CG         4.2100  -11.0360   42.0310 C.3   291  ARG291      0.0489
    132  CD         5.5920  -10.5870   41.5820 C.3   291  ARG291      0.2205
    133  NE         6.5290  -11.6900   41.3600 N.pl3 291  ARG291     -0.0865
    134  CZ         6.8150  -12.2460   40.1770 C.cat 291  ARG291      0.5346
    135  NH1        6.1810  -11.8570   39.0760 N.pl3 291  ARG291      0.1354
    136  NH2        7.7480  -13.1800   40.0910 N.pl3 291  ARG291      0.1354
    137  N          1.6780   -7.8100   52.4760 N.3   329  ARG329     -0.1231
    138  CA         1.3470   -6.9000   51.3920 C.3   329  ARG329      0.1694
    139  C          1.1370   -7.6670   50.0720 C.2   329  ARG329      0.2592
    140  O          1.2620   -8.8880   50.0460 O.2   329  ARG329     -0.2718
    141  CB         2.4040   -5.8010   51.2580 C.3   329  ARG329      0.0321
    142  CG         2.4050   -4.7690   52.4060 C.3   329  ARG329      0.0489
    143  CD         1.1720   -3.9340   52.4230 C.3   329  ARG329      0.2205
    144  NE         1.1670   -2.9200   53.4870 N.pl3 329  ARG329     -0.0865
    145  CZ         0.5810   -3.0650   54.6760 C.cat 329  ARG329      0.5346
    146  NH1        0.0040   -4.2130   55.0060 N.pl3 329  ARG329      0.1354
    147  NH2        0.5870   -2.0670   55.5500 N.pl3 329  ARG329      0.1354
    148  N          0.7700   -6.9470   48.9920 N.am  330  VAL330     -0.1966
    149  CA         0.5570   -7.5420   47.6620 C.3   330  VAL330      0.1727
    150  C          1.2790   -6.6760   46.6330 C.2   330  VAL330      0.2616
    151  O          1.2080   -5.4490   46.7090 O.2   330  VAL330     -0.2715
    152  CB        -0.9670   -7.6490   47.3130 C.3   330  VAL330      0.0290
    153  CG1       -1.2030   -8.1340   45.8680 C.3   330  VAL330      0.0023
    154  CG2       -1.7010   -8.5570   48.2970 C.3   330  VAL330      0.0023
    155  N          1.8950   -7.3100   45.6150 N.am  331  ILE331     -0.1977
    156  CA         2.4660   -6.5630   44.4830 C.3   331  ILE331      0.1596
    157  C          1.8530   -7.1290   43.2010 C.2   331  ILE331      0.2287
    158  O          1.9770   -8.3280   42.9590 O.2   331  ILE331     -0.2864
    159  CB         4.0250   -6.5280   44.4080 C.3   331  ILE331      0.0276
    160  CG1        4.4980   -5.6360   43.2030 C.3   331  ILE331      0.0022
    161  CG2        4.6340   -7.9580   44.3720 C.3   331  ILE331      0.0022
    162  CD1        5.8910   -5.2880   43.1390 C.3   331  ILE331      0.0001
    163  N         -2.2910    1.5230   50.5840 N.3   356  GLU356     -0.1245
    164  CA        -1.0960    1.1000   51.3210 C.3   356  GLU356      0.1567
    165  C         -0.8970   -0.4370   51.2040 C.2   356  GLU356      0.2260
    166  O          0.2260   -0.9090   51.3060 O.2   356  GLU356     -0.2867
    167  CB        -1.0370    1.6350   52.7630 C.3   356  GLU356      0.0388
    168  CG        -2.1740    1.3070   53.6880 C.3   356  GLU356      0.1160
    169  CD        -2.4520    2.3970   54.7150 C.2   356  GLU356      0.3649
    170  OE1       -3.5930    2.9020   54.7200 O.co2 356  GLU356     -0.2457
    171  OE2       -1.5520    2.7450   55.5160 O.co2 356  GLU356     -0.2457
    172  N         -0.9720   -2.2790   48.4890 N.3   358  ILE358     -0.1227
    173  CA        -0.4280   -2.6870   47.2110 C.3   358  ILE358      0.1732
    174  C          0.7720   -1.9180   46.7360 C.2   358  ILE358      0.2595
    175  O          0.9850   -0.7610   47.0870 O.2   358  ILE358     -0.2718
    176  CB        -1.6090   -2.5890   46.1850 C.3   358  ILE358      0.0485
    177  CG1       -1.3820   -3.4830   44.9450 C.2   358  ILE358     -0.0245
    178  CG2       -1.9250   -1.1350   45.7830 C.3   358  ILE358      0.0067
    179  CD1       -2.3140   -4.4700   44.7520 C.2   358  ILE358     -0.0049
    180  N          1.5130   -2.5490   45.8370 N.am  359  ALA359     -0.1980
    181  CA         2.5870   -1.9570   45.0680 C.3   359  ALA359      0.1597
    182  C          2.4160   -2.5700   43.6690 C.2   359  ALA359      0.2287
    183  O          1.6880   -3.5510   43.4790 O.2   359  ALA359     -0.2864
    184  CB         3.9460   -2.3090   45.6450 C.3   359  ALA359      0.0319
@<TRIPOS>BOND
     1    50    49    2
     2    49    48    1
     3    48    51    1
     4    48    47    1
     5    51    52    1
     6    52    53    1
     7    53    54    1
     8    54    55    2
     9    56    55    1
    10    55    57    1
    11    39    38    2
    12    38    37    1
    13    37    40    1
    14    37    36    1
    15    40    41    1
    16    96    95   ar
    17    41    43   ar
    18    41    42   ar
    19    97    95   ar
    20    61    60    2
    21    43    45   ar
    22    95    94    1
    23    60    59    1
    24    29    28    2
    25    42    44   ar
    26   135   134    1
    27    94    93    1
    28    93    90    1
    29    28    27    1
    30    45    46   ar
    31    62    59    1
    32    62    63    1
    33    59    58    1
    34    91    90    1
    35    91    92    2
    36   136   134    1
    37    90    89    1
    38   134   133    2
    39    44    46   ar
    40    65    63   ar
    41    63    64   ar
    42    27    26    1
    43    27    30    1
    44    33    31   ar
    45    33    35   ar
    46   133   132    1
    47    89    86   am
    48   132   131    1
    49    30    31    1
    50    31    32   ar
    51    35    34   ar
    52   131   130    1
    53    87    86    2
    54    86    85    1
    55   129   128    2
    56   158   157    2
    57    20    19    2
    58    32    34   ar
    59   128   127    1
    60   162   160    1
    61   157   156    1
    62   160   159    1
    63    19    18    1
    64   183   182    2
    65   130   127    1
    66   182   181    1
    67    85    88    1
    68    85    84    1
    69   127   126    1
    70    82    81    2
    71    71    70    1
    72   161   159    1
    73   159   156    1
    74    83    80    1
    75    70    67    1
    76   156   155    1
    77    84    81   am
    78    81    80    1
    79   179   177    2
    80    18    21    1
    81    18    17    1
    82   177   176    1
    83   181   184    1
    84   181   180    1
    85   110   109    1
    86    21    22    1
    87    17     7   am
    88    80    79    1
    89     8     7    2
    90   155   150   am
    91     7     6    1
    92    67    66    1
    93    67    68    1
    94   178   176    1
    95   180   174   am
    96   153   152    1
    97    75    74    2
    98   176   173    1
    99     6     5    1
   100     6     9    1
   101   109   106    1
   102   108   107    2
   103   150   151    2
   104   150   149    1
   105    22    23    1
   106   174   175    2
   107   174   173    1
   108    72    68   am
   109    72    73    1
   110   107   106    1
   111    68    69    2
   112    23    24    1
   113   173   172    1
   114   152   149    1
   115   152   154    1
   116    74    73    1
   117   106   105    1
   118     9    10    1
   119    11    13   ar
   120    11    10   ar
   121   149   148    1
   122   124   122    1
   123    73    76    1
   124    78    76    1
   125   121   120    2
   126    13    15   ar
   127    10    12   ar
   128     4     3    2
   129    24    25    1
   130   120   119    1
   131    76    77    1
   132   148   139   am
   133    15    16    1
   134    15    14   ar
   135    12    14   ar
   136   122   119    1
   137   122   123    1
   138     3     2    1
   139   119   118    1
   140   125   123    1
   141   140   139    2
   142   139   138    1
   143   163   164    1
   144     2     1    1
   145   165   166    2
   146   165   164    1
   147   141   138    1
   148   141   142    1
   149   164   167    1
   150   138   137    1
   151   101   100    2
   152   100    99    1
   153   102    99    1
   154   102   103    1
   155   142   143    1
   156   143   144    1
   157   167   168    1
   158    99    98    1
   159   103   104    1
   160   114   113    2
   161   144   145    2
   162   104    98    1
   163   168   169    1
   164   113   112    1
   165   116   115    1
   166   116   117    1
   167   145   146    1
   168   145   147    1
   169   169   170   ar
   170   169   171   ar
   171   115   112    1
   172   117   111    1
   173   112   111    1
