@<TRIPOS>MOLECULE
tmp/5upgA01.pdb
 167 165 0 0 0
SMALL
GASTEIGER

@<TRIPOS>ATOM
      1  N         -4.2620   -3.4350   -4.1060 N.3    85  ALA85      -0.1231
      2  CA        -3.6310   -4.7220   -3.8260 C.3    85  ALA85       0.1694
      3  C         -4.6650   -5.7560   -3.4170 C.2    85  ALA85       0.2592
      4  O         -4.6180   -6.9110   -3.8640 O.2    85  ALA85      -0.2718
      5  CB        -2.5930   -4.5610   -2.7150 C.3    85  ALA85       0.0304
      6  N         -5.6000   -5.3600   -2.5520 N.am   86  GLY86      -0.1957
      7  CA        -6.5960   -6.3000   -2.0680 C.3    86  GLY86       0.1869
      8  C         -7.4910   -6.8410   -3.1590 C.2    86  GLY86       0.2309
      9  O         -7.9730   -7.9740   -3.0630 O.2    86  GLY86      -0.2863
     10  N         -0.6750  -15.5180    1.0890 N.3   153  PHE153     -0.1241
     11  CA        -0.3720  -14.1530    1.4990 C.3   153  PHE153      0.1605
     12  C         -0.9460  -13.9360    2.8850 C.2   153  PHE153      0.2264
     13  O         -2.1390  -14.1540    3.1070 O.2   153  PHE153     -0.2867
     14  CB        -0.9330  -13.1110    0.5270 C.3   153  PHE153      0.0534
     15  CG        -0.6140  -11.7040    0.9260 C.ar  153  PHE153     -0.0203
     16  CD1        0.7010  -11.2910    1.0370 C.ar  153  PHE153     -0.0042
     17  CD2       -1.6250  -10.8000    1.2070 C.ar  153  PHE153     -0.0042
     18  CE1        1.0110   -9.9920    1.4040 C.ar  153  PHE153     -0.0003
     19  CE2       -1.3160   -9.5020    1.5870 C.ar  153  PHE153     -0.0003
     20  CZ        -0.0000   -9.0980    1.6700 C.ar  153  PHE153     -0.0000
     21  N         -4.9640  -14.5000    4.0980 N.3   177  PHE177     -0.1227
     22  CA        -5.9980  -14.1360    3.1390 C.3   177  PHE177      0.1736
     23  C         -6.4780  -15.3060    2.2950 C.2   177  PHE177      0.2596
     24  O         -7.2470  -15.0890    1.3550 O.2   177  PHE177     -0.2718
     25  CB        -5.5120  -12.9730    2.2650 C.3   177  PHE177      0.0547
     26  CG        -5.3950  -11.6770    3.0300 C.ar  177  PHE177     -0.0202
     27  CD1       -6.5180  -10.8890    3.2670 C.ar  177  PHE177     -0.0042
     28  CD2       -4.1790  -11.2750    3.5670 C.ar  177  PHE177     -0.0042
     29  CE1       -6.4220   -9.7070    3.9870 C.ar  177  PHE177     -0.0003
     30  CE2       -4.0820  -10.1030    4.2980 C.ar  177  PHE177     -0.0003
     31  CZ        -5.2080   -9.3210    4.5200 C.ar  177  PHE177     -0.0000
     32  N         -6.0740  -16.5360    2.6160 N.am  178  SER178     -0.1938
     33  CA        -6.7560  -17.6890    2.0470 C.3   178  SER178      0.2055
     34  C         -8.0040  -18.0480    2.8370 C.2   178  SER178      0.2644
     35  O         -8.8790  -18.7550    2.3150 O.2   178  SER178     -0.2714
     36  CB        -5.8200  -18.8990    1.9790 C.3   178  SER178      0.2130
     37  OG        -5.5590  -19.4400    3.2630 O.3   178  SER178     -0.2179
     38  N         -8.1100  -17.5680    4.0730 N.am  179  SER179     -0.1935
     39  CA        -9.2510  -17.8770    4.9190 C.3   179  SER179      0.2055
     40  C         -9.9590  -16.6480    5.4690 C.2   179  SER179      0.2644
     41  O        -11.0420  -16.7990    6.0470 O.2   179  SER179     -0.2714
     42  CB        -8.8220  -18.7760    6.0890 C.3   179  SER179      0.2130
     43  OG        -7.8550  -18.1270    6.8910 O.3   179  SER179     -0.2179
     44  N         -9.4040  -15.4480    5.2940 N.am  180  THR180     -0.1936
     45  CA       -10.0040  -14.2050    5.7640 C.3   180  THR180      0.2028
     46  C        -10.1060  -13.2210    4.6060 C.2   180  THR180      0.2643
     47  O         -9.1560  -13.0570    3.8370 O.2   180  THR180     -0.2714
     48  CB        -9.1860  -13.5850    6.8980 C.3   180  THR180      0.1808
     49  OG1       -9.0400  -14.5400    7.9530 O.3   180  THR180     -0.2208
     50  CG2       -9.8790  -12.3490    7.4410 C.3   180  THR180      0.0379
     51  N        -11.2620  -12.5640    4.5020 N.am  181  SER181     -0.1935
     52  CA       -11.5670  -11.6710    3.3890 C.3   181  SER181      0.2055
     53  C        -10.9550  -10.2940    3.6110 C.2   181  SER181      0.2643
     54  O        -11.2430   -9.6320    4.6130 O.2   181  SER181     -0.2714
     55  CB       -13.0820  -11.5540    3.2290 C.3   181  SER181      0.2130
     56  OG       -13.4240  -10.5200    2.3230 O.3   181  SER181     -0.2179
     57  N        -10.1380   -9.8430    2.6570 N.am  182  PHE182     -0.1959
     58  CA        -9.6940   -8.4520    2.6850 C.3   182  PHE182      0.1771
     59  C        -10.8860   -7.5020    2.7000 C.2   182  PHE182      0.2619
     60  O        -10.9370   -6.5670    3.5100 O.2   182  PHE182     -0.2715
     61  CB        -8.7920   -8.1520    1.4850 C.3   182  PHE182      0.0574
     62  CG        -8.4370   -6.7000    1.3680 C.ar  182  PHE182     -0.0200
     63  CD1       -9.1730   -5.8460    0.5550 C.ar  182  PHE182     -0.0042
     64  CD2       -7.3780   -6.1800    2.1010 C.ar  182  PHE182     -0.0042
     65  CE1       -8.8510   -4.4960    0.4780 C.ar  182  PHE182     -0.0003
     66  CE2       -7.0460   -4.8300    2.0230 C.ar  182  PHE182     -0.0003
     67  CZ        -7.7830   -3.9940    1.2180 C.ar  182  PHE182     -0.0000
     68  N        -11.8560   -7.7190    1.8050 N.am  183  VAL183     -0.1963
     69  CA       -12.9670   -6.7720    1.6980 C.3   183  VAL183      0.1727
     70  C        -13.7210   -6.6740    3.0190 C.2   183  VAL183      0.2616
     71  O        -14.0240   -5.5750    3.4970 O.2   183  VAL183     -0.2715
     72  CB       -13.9180   -7.1540    0.5500 C.3   183  VAL183      0.0290
     73  CG1      -15.2630   -6.4340    0.7250 C.3   183  VAL183      0.0023
     74  CG2      -13.3010   -6.8080   -0.8070 C.3   183  VAL183      0.0023
     75  N        -14.0350   -7.8160    3.6330 N.am  184  LYS184     -0.1977
     76  CA       -14.9250   -7.7900    4.7900 C.3   184  LYS184      0.1596
     77  C        -14.1980   -7.4980    6.0930 C.2   184  LYS184      0.2287
     78  O        -14.7600   -6.8340    6.9740 O.2   184  LYS184     -0.2864
     79  CB       -15.6820   -9.1120    4.9000 C.3   184  LYS184      0.0298
     80  CG       -16.6880   -9.3130    3.7830 C.3   184  LYS184      0.0038
     81  CD       -17.5530  -10.5450    3.9980 C.3   184  LYS184      0.0206
     82  CE       -16.8190  -11.8480    3.6650 C.3   184  LYS184      0.1093
     83  NZ       -17.7980  -12.8840    3.1750 N.3   184  LYS184     -0.1314
     84  N         -0.3670   -3.5130    3.7840 N.3   244  ILE244     -0.1245
     85  CA        -0.6820   -4.0530    2.4590 C.3   244  ILE244      0.1561
     86  C         -0.4500   -2.9960    1.3790 C.2   244  ILE244      0.2260
     87  O          0.1420   -3.2800    0.3280 O.2   244  ILE244     -0.2867
     88  CB        -2.1270   -4.5950    2.4550 C.3   244  ILE244      0.0252
     89  CG1       -2.2060   -5.8240    3.3730 C.3   244  ILE244      0.0019
     90  CG2       -2.5960   -4.9370    1.0360 C.3   244  ILE244      0.0019
     91  CD1       -3.6420   -6.2960    3.6740 C.3   244  ILE244      0.0001
     92  N          3.3090   -2.3660    1.0430 N.3   247  LEU247     -0.1231
     93  CA         3.9430   -3.5120    0.3840 C.3   247  LEU247      0.1693
     94  C          3.6580   -3.5380   -1.1140 C.2   247  LEU247      0.2592
     95  O          4.4750   -4.0460   -1.8940 O.2   247  LEU247     -0.2718
     96  CB         3.4590   -4.8230    1.0130 C.3   247  LEU247      0.0284
     97  CG         4.2490   -5.4030    2.1880 C.3   247  LEU247      0.0019
     98  CD1        4.8280   -4.3130    3.0690 C.3   247  LEU247      0.0001
     99  CD2        3.3450   -6.3370    2.9810 C.3   247  LEU247      0.0001
    100  N          2.5090   -3.0170   -1.5350 N.am  248  TYR248     -0.1976
    101  CA         2.2020   -3.0310   -2.9580 C.3   248  TYR248      0.1639
    102  C          3.1070   -2.1070   -3.7730 C.2   248  TYR248      0.2290
    103  O          3.1060   -2.1980   -5.0040 O.2   248  TYR248     -0.2864
    104  CB         0.7280   -2.6730   -3.1790 C.3   248  TYR248      0.0560
    105  CG         0.1680   -3.3200   -4.4230 C.ar  248  TYR248     -0.0198
    106  CD1        0.3710   -4.6790   -4.6730 C.ar  248  TYR248     -0.0009
    107  CD2       -0.5480   -2.5790   -5.3460 C.ar  248  TYR248     -0.0009
    108  CE1       -0.1430   -5.2790   -5.8120 C.ar  248  TYR248      0.0417
    109  CE2       -1.0490   -3.1690   -6.4990 C.ar  248  TYR248      0.0417
    110  CZ        -0.8410   -4.5130   -6.7230 C.ar  248  TYR248      0.1957
    111  OH        -1.3450   -5.0940   -7.8620 O.3   248  TYR248     -0.2866
    112  N          4.0200   -5.6320   -7.6100 N.3   252  ASN252     -0.1225
    113  CA         3.3550   -6.9020   -7.8850 C.3   252  ASN252      0.1785
    114  C          2.8540   -7.4890   -6.5730 C.2   252  ASN252      0.2598
    115  O          3.3810   -7.1900   -5.4960 O.2   252  ASN252     -0.2718
    116  CB         4.2990   -7.9060   -8.5710 C.3   252  ASN252      0.1169
    117  CG         4.7110   -7.4640   -9.9580 C.2   252  ASN252      0.2627
    118  OD1        5.8080   -6.9480  -10.1580 O.2   252  ASN252     -0.2716
    119  ND2        3.8220   -7.6410  -10.9190 N.am  252  ASN252     -0.0877
    120  N          1.8260   -8.3340   -6.6710 N.am  253  SER253     -0.1938
    121  CA         1.3250   -9.0390   -5.4970 C.3   253  SER253      0.2055
    122  C          2.3800   -9.9910   -4.9280 C.2   253  SER253      0.2642
    123  O          3.1920  -10.5670   -5.6570 O.2   253  SER253     -0.2714
    124  CB         0.0600   -9.8180   -5.8380 C.3   253  SER253      0.2130
    125  OG        -0.9940   -8.9270   -6.1420 O.3   253  SER253     -0.2179
    126  N          2.3280  -10.1780   -3.6110 N.am  254  LEU254     -0.1977
    127  CA         3.2810  -11.0030   -2.8830 C.3   254  LEU254      0.1596
    128  C          2.7460  -12.4090   -2.6480 C.2   254  LEU254      0.2287
    129  O          1.5650  -12.6020   -2.3210 O.2   254  LEU254     -0.2864
    130  CB         3.6200  -10.3770   -1.5270 C.3   254  LEU254      0.0297
    131  CG         4.7970   -9.4070   -1.4620 C.3   254  LEU254      0.0022
    132  CD1        4.6980   -8.5190   -0.2250 C.3   254  LEU254      0.0001
    133  CD2        6.1120  -10.1740   -1.4610 C.3   254  LEU254      0.0001
    134  N         -2.7960  -18.3810   -4.1760 N.3   295  ILE295     -0.1231
    135  CA        -3.6550  -17.2220   -3.9740 C.3   295  ILE295      0.1692
    136  C         -4.7750  -17.2940   -4.9970 C.2   295  ILE295      0.2593
    137  O         -4.5580  -17.7290   -6.1300 O.2   295  ILE295     -0.2718
    138  CB        -2.8730  -15.9010   -4.1140 C.3   295  ILE295      0.0266
    139  CG1       -1.7530  -15.8280   -3.0760 C.3   295  ILE295      0.0019
    140  CG2       -3.7990  -14.6920   -3.9550 C.3   295  ILE295      0.0020
    141  CD1       -0.8310  -14.6430   -3.2950 C.3   295  ILE295      0.0001
    142  N         -5.9750  -16.8920   -4.5970 N.am  296  SER296     -0.1938
    143  CA        -7.0880  -16.8370   -5.5240 C.3   296  SER296      0.2055
    144  C         -7.8030  -15.5050   -5.3840 C.2   296  SER296      0.2643
    145  O         -7.7810  -14.8680   -4.3270 O.2   296  SER296     -0.2714
    146  CB        -8.0690  -17.9920   -5.3150 C.3   296  SER296      0.2130
    147  OG        -8.7270  -17.8780   -4.0680 O.3   296  SER296     -0.2179
    148  N         -8.4400  -15.0940   -6.4720 N.am  297  TYR297     -0.1959
    149  CA        -9.1240  -13.8160   -6.5360 C.3   297  TYR297      0.1771
    150  C        -10.5750  -14.0490   -6.8950 C.2   297  TYR297      0.2619
    151  O        -10.9120  -15.0060   -7.6000 O.2   297  TYR297     -0.2715
    152  CB        -8.4660  -12.8890   -7.5650 C.3   297  TYR297      0.0574
    153  CG        -7.0690  -12.4860   -7.1670 C.ar  297  TYR297     -0.0198
    154  CD1       -5.9680  -13.2600   -7.5100 C.ar  297  TYR297     -0.0009
    155  CD2       -6.8530  -11.3270   -6.4380 C.ar  297  TYR297     -0.0009
    156  CE1       -4.6960  -12.8830   -7.1250 C.ar  297  TYR297      0.0417
    157  CE2       -5.5960  -10.9400   -6.0700 C.ar  297  TYR297      0.0417
    158  CZ        -4.5230  -11.7210   -6.4010 C.ar  297  TYR297      0.1957
    159  OH        -3.2770  -11.3150   -6.0020 O.3   297  TYR297     -0.2866
    160  N        -11.4480  -13.1860   -6.3870 N.am  298  MET298     -0.1977
    161  CA       -12.8380  -13.2670   -6.7880 C.3   298  MET298      0.1605
    162  C        -12.9810  -12.8440   -8.2490 C.2   298  MET298      0.2287
    163  O        -12.0670  -12.2720   -8.8510 O.2   298  MET298     -0.2864
    164  CB       -13.7030  -12.3960   -5.8840 C.3   298  MET298      0.0413
    165  CG       -13.4490  -10.9200   -6.0320 C.3   298  MET298      0.0598
    166  SD       -14.4650   -9.9860   -4.8760 S.3   298  MET298     -0.1393
    167  CE       -13.6850  -10.4070   -3.3180 C.3   298  MET298      0.0692
@<TRIPOS>BOND
     1   119   117   am
     2   118   117    2
     3   117   116    1
     4   163   162    2
     5   116   113    1
     6   162   161    1
     7   113   112    1
     8   113   114    1
     9   111   110    1
    10   151   150    2
    11   152   153    1
    12   152   149    1
    13   154   153   ar
    14   154   156   ar
    15   153   155   ar
    16   156   158   ar
    17   150   149    1
    18   150   160   am
    19   161   160    1
    20   161   164    1
    21   110   109   ar
    22   110   108   ar
    23   120   114   am
    24   120   121    1
    25   114   115    2
    26   149   148    1
    27   109   107   ar
    28   148   144   am
    29   155   157   ar
    30   158   157   ar
    31   158   159    1
    32   125   124    1
    33   137   136    2
    34   165   164    1
    35   165   166    1
    36   124   121    1
    37   108   106   ar
    38   123   122    2
    39   143   144    1
    40   143   146    1
    41   143   142    1
    42   121   122    1
    43   144   145    2
    44   107   105   ar
    45   146   147    1
    46   103   102    2
    47   136   142   am
    48   136   135    1
    49   122   126   am
    50   166   167    1
    51   106   105   ar
    52   105   104    1
    53   134   135    1
    54   138   135    1
    55   138   140    1
    56   138   139    1
    57     1     2    1
    58     4     3    2
    59     2     3    1
    60     2     5    1
    61   102   101    1
    62   126   127    1
    63     3     6   am
    64   141   139    1
    65   104   101    1
    66     8     9    2
    67     8     7    1
    68   101   100    1
    69   127   128    1
    70   127   130    1
    71   128   129    2
    72     6     7    1
    73    95    94    2
    74   100    94   am
    75   130   131    1
    76   131   133    1
    77   131   132    1
    78    94    93    1
    79    74    72    1
    80    87    86    2
    81    93    96    1
    82    93    92    1
    83    65    63   ar
    84    65    67   ar
    85    14    15    1
    86    14    11    1
    87    72    73    1
    88    72    69    1
    89    63    62   ar
    90    15    16   ar
    91    15    17   ar
    92    96    97    1
    93    90    88    1
    94    16    18   ar
    95    10    11    1
    96    17    19   ar
    97    67    66   ar
    98    24    23    2
    99    62    61    1
   100    62    64   ar
   101    86    85    1
   102    18    20   ar
   103    61    58    1
   104    11    12    1
   105    19    20   ar
   106    69    68    1
   107    69    70    1
   108    68    59   am
   109    36    33    1
   110    36    37    1
   111    66    64   ar
   112    33    32    1
   113    33    34    1
   114    97    99    1
   115    97    98    1
   116    25    26    1
   117    25    22    1
   118    23    32   am
   119    23    22    1
   120    35    34    2
   121    56    55    1
   122    88    85    1
   123    88    89    1
   124    85    84    1
   125    57    58    1
   126    57    53   am
   127    58    59    1
   128    59    60    2
   129    34    38   am
   130    12    13    2
   131    70    71    2
   132    70    75   am
   133    26    27   ar
   134    26    28   ar
   135    22    21    1
   136    83    82    1
   137    55    52    1
   138    27    29   ar
   139    89    91    1
   140    52    53    1
   141    52    51    1
   142    28    30   ar
   143    53    54    2
   144    75    76    1
   145    82    81    1
   146    80    81    1
   147    80    79    1
   148    47    46    2
   149    29    31   ar
   150    38    39    1
   151    30    31   ar
   152    51    46   am
   153    46    45    1
   154    76    79    1
   155    76    77    1
   156    39    40    1
   157    39    42    1
   158    44    40   am
   159    44    45    1
   160    40    41    2
   161    45    48    1
   162    42    43    1
   163    77    78    2
   164    48    50    1
   165    48    49    1
