@<TRIPOS>MOLECULE
tmp/5upgA00.pdb
 203 195 0 0 0
SMALL
GASTEIGER

@<TRIPOS>ATOM
      1  N         -6.2110   14.1310    3.8250 N.3    19  LEU19      -0.1231
      2  CA        -6.1620   14.0570    5.2820 C.3    19  LEU19       0.1693
      3  C         -5.2140   15.1060    5.8430 C.2    19  LEU19       0.2592
      4  O         -5.5580   15.8490    6.7690 O.2    19  LEU19      -0.2718
      5  CB        -5.7220   12.6660    5.7390 C.3    19  LEU19       0.0284
      6  CG        -5.2390   12.5840    7.1910 C.3    19  LEU19       0.0019
      7  CD1       -6.3790   12.8560    8.1760 C.3    19  LEU19       0.0001
      8  CD2       -4.5800   11.2130    7.4680 C.3    19  LEU19       0.0001
      9  N         -4.0230   15.1970    5.2740 N.am   20  HIS20      -0.1976
     10  CA        -3.0100   16.0560    5.8630 C.3    20  HIS20       0.1656
     11  C         -3.0700   17.4800    5.3310 C.2    20  HIS20       0.2291
     12  O         -2.9050   18.4340    6.0990 O.2    20  HIS20      -0.2864
     13  CB        -1.6290   15.4340    5.6400 C.3    20  HIS20       0.0771
     14  CG        -1.3980   14.2200    6.4850 C.ar   20  HIS20       0.0820
     15  ND1       -1.5950   14.2260    7.8490 N.ar   20  HIS20      -0.2267
     16  CD2       -1.0170   12.9610    6.1660 C.ar   20  HIS20       0.1154
     17  CE1       -1.3360   13.0260    8.3380 C.ar   20  HIS20       0.1986
     18  NE2       -0.9830   12.2380    7.3380 N.ar   20  HIS20      -0.2212
     19  N          4.0290   10.3340    8.7270 N.3    63  MET63      -0.1245
     20  CA         2.5800   10.3540    8.8680 C.3    63  MET63       0.1570
     21  C          1.8510    9.8310    7.6440 C.2    63  MET63       0.2261
     22  O          0.6120    9.7900    7.6690 O.2    63  MET63      -0.2867
     23  CB         2.0410   11.7520    9.2010 C.3    63  MET63       0.0387
     24  CG         1.5260   11.8720   10.6080 C.3    63  MET63       0.0595
     25  SD         2.4960   10.8960   11.7660 S.3    63  MET63      -0.1393
     26  CE         3.9880   11.8800   11.8320 C.3    63  MET63       0.0692
     27  N          0.0910   10.3150    0.7830 N.3    76  THR76      -0.1218
     28  CA        -0.9040    9.4260    1.3950 C.3    76  THR76       0.1862
     29  C         -1.4810    8.4500    0.3630 C.2    76  THR76       0.2287
     30  O         -2.6890    8.3630    0.1340 O.2    76  THR76      -0.2866
     31  CB        -2.0100   10.2340    2.0910 C.3    76  THR76       0.1770
     32  OG1       -1.4150   11.3080    2.8300 O.3    76  THR76      -0.2211
     33  CG2       -2.7910    9.3510    3.0990 C.3    76  THR76       0.0375
     34  N         -1.2280    5.1890    0.6540 N.3    78  GLU78      -0.1231
     35  CA        -1.2320    3.8300    1.1840 C.3    78  GLU78       0.1699
     36  C         -2.6230    3.2040    1.2270 C.2    78  GLU78       0.2592
     37  O         -2.7280    1.9860    1.0720 O.2    78  GLU78      -0.2718
     38  CB        -0.5920    3.7990    2.5750 C.3    78  GLU78       0.0402
     39  CG        -1.2320    4.7520    3.5860 C.3    78  GLU78       0.1161
     40  CD        -0.5040    6.0880    3.7010 C.2    78  GLU78       0.3649
     41  OE1        0.2070    6.4860    2.7530 O.co2  78  GLU78      -0.2457
     42  OE2       -0.6310    6.7350    4.7620 O.co2  78  GLU78      -0.2457
     43  N         -3.6870    3.9840    1.4750 N.am   79  HIS79      -0.1976
     44  CA        -5.0200    3.3830    1.5900 C.3    79  HIS79       0.1656
     45  C         -5.5800    3.0230    0.2250 C.2    79  HIS79       0.2291
     46  O         -6.2050    1.9710    0.0650 O.2    79  HIS79      -0.2864
     47  CB        -5.9820    4.3180    2.3300 C.3    79  HIS79       0.0771
     48  CG        -5.4980    4.7150    3.6880 C.ar   79  HIS79       0.0820
     49  ND1       -5.9950    5.8070    4.3660 N.ar   79  HIS79      -0.2267
     50  CD2       -4.5560    4.1660    4.4930 C.ar   79  HIS79       0.1154
     51  CE1       -5.3730    5.9210    5.5290 C.ar   79  HIS79       0.1986
     52  NE2       -4.5000    4.9330    5.6330 N.ar   79  HIS79      -0.2212
     53  N          0.7640    0.7390   22.1800 N.3   161  PHE161     -0.1241
     54  CA         0.5090    2.1220   22.5630 C.3   161  PHE161      0.1605
     55  C          0.3750    2.2110   24.0750 C.2   161  PHE161      0.2264
     56  O         -0.4600    1.5180   24.6710 O.2   161  PHE161     -0.2867
     57  CB        -0.7630    2.6460   21.8900 C.3   161  PHE161      0.0534
     58  CG        -0.5820    3.0050   20.4510 C.ar  161  PHE161     -0.0203
     59  CD1       -0.2440    4.3010   20.0870 C.ar  161  PHE161     -0.0042
     60  CD2       -0.7420    2.0510   19.4540 C.ar  161  PHE161     -0.0042
     61  CE1       -0.0760    4.6450   18.7530 C.ar  161  PHE161     -0.0003
     62  CE2       -0.5790    2.3920   18.1180 C.ar  161  PHE161     -0.0003
     63  CZ        -0.2370    3.6930   17.7700 C.ar  161  PHE161     -0.0000
     64  N         -8.1910    4.8170    9.5900 N.3   191  THR191     -0.1203
     65  CA        -7.0280    5.4540   10.1900 C.3   191  THR191      0.1994
     66  C         -7.4160    6.0690   11.5370 C.2   191  THR191      0.2618
     67  O         -8.5940    6.2350   11.8620 O.2   191  THR191     -0.2717
     68  CB        -6.4760    6.5150    9.2420 C.3   191  THR191      0.1784
     69  OG1       -5.1880    6.9390    9.6860 O.3   191  THR191     -0.2211
     70  CG2       -7.4380    7.7230    9.1670 C.3   191  THR191      0.0376
     71  N         -6.4070    6.3690   12.3440 N.am  192  PHE192     -0.1961
     72  CA        -6.6550    6.8510   13.6910 C.3   192  PHE192      0.1771
     73  C         -5.5390    7.7980   14.0860 C.2   192  PHE192      0.2620
     74  O         -4.4410    7.7640   13.5270 O.2   192  PHE192     -0.2715
     75  CB        -6.7800    5.7000   14.7050 C.3   192  PHE192      0.0574
     76  CG        -5.5540    4.8280   14.8220 C.ar  192  PHE192     -0.0200
     77  CD1       -5.4230    3.6830   14.0480 C.ar  192  PHE192     -0.0042
     78  CD2       -4.5620    5.1230   15.7420 C.ar  192  PHE192     -0.0042
     79  CE1       -4.3070    2.8600   14.1770 C.ar  192  PHE192     -0.0003
     80  CE2       -3.4340    4.3170   15.8680 C.ar  192  PHE192     -0.0003
     81  CZ        -3.3150    3.1770   15.0850 C.ar  192  PHE192     -0.0000
     82  N         -5.8560    8.6710   15.0360 N.am  193  GLY193     -0.1940
     83  CA        -4.9030    9.6260   15.5620 C.3   193  GLY193      0.2014
     84  C         -5.4370   10.1240   16.8840 C.2   193  GLY193      0.2639
     85  O         -6.5090    9.7150   17.3390 O.2   193  GLY193     -0.2714
     86  N         -4.6720   11.0130   17.5010 N.am  194  PHE194     -0.1959
     87  CA        -4.9010   11.4060   18.8840 C.3   194  PHE194      0.1771
     88  C         -5.2170   12.8920   18.9650 C.2   194  PHE194      0.2619
     89  O         -4.4520   13.7210   18.4600 O.2   194  PHE194     -0.2715
     90  CB        -3.6830   11.0590   19.7320 C.3   194  PHE194      0.0574
     91  CG        -3.4290    9.5820   19.8080 C.ar  194  PHE194     -0.0200
     92  CD1       -4.0060    8.8200   20.8120 C.ar  194  PHE194     -0.0042
     93  CD2       -2.6600    8.9500   18.8490 C.ar  194  PHE194     -0.0042
     94  CE1       -3.7890    7.4500   20.8780 C.ar  194  PHE194     -0.0003
     95  CE2       -2.4390    7.5760   18.9020 C.ar  194  PHE194     -0.0003
     96  CZ        -3.0080    6.8280   19.9170 C.ar  194  PHE194     -0.0000
     97  N         -6.3440   13.2110   19.6180 N.am  195  MET195     -0.1977
     98  CA        -6.7990   14.5940   19.7330 C.3   195  MET195      0.1605
     99  C         -5.7440   15.4700   20.3920 C.2   195  MET195      0.2287
    100  O         -5.5770   16.6390   20.0200 O.2   195  MET195     -0.2864
    101  CB        -8.1040   14.6380   20.5300 C.3   195  MET195      0.0413
    102  CG        -8.6890   16.0190   20.7020 C.3   195  MET195      0.0598
    103  SD        -9.4070   16.5730   19.1550 S.3   195  MET195     -0.1393
    104  CE       -10.1620   18.1150   19.6710 C.3   195  MET195      0.0692
    105  N         -2.7660   15.6320   19.8640 N.3   197  ASP197     -0.1225
    106  CA        -1.7820   16.0620   18.8830 C.3   197  ASP197      0.1805
    107  C         -2.3120   17.0350   17.8440 C.2   197  ASP197      0.2597
    108  O         -1.5120   17.5210   17.0390 O.2   197  ASP197     -0.2718
    109  CB        -1.2180   14.8620   18.1170 C.3   197  ASP197      0.1424
    110  CG        -0.6750   13.7930   19.0140 C.2   197  ASP197      0.3668
    111  OD1       -0.3360   14.0970   20.1810 O.co2 197  ASP197     -0.2456
    112  OD2       -0.5860   12.6410   18.5310 O.co2 197  ASP197     -0.2456
    113  N         -3.6160   17.3290   17.8100 N.am  198  ILE198     -0.1980
    114  CA        -4.1540   17.9230   16.5830 C.3   198  ILE198      0.1595
    115  C         -3.6460   19.3500   16.3810 C.2   198  ILE198      0.2287
    116  O         -3.3090   19.7330   15.2540 O.2   198  ILE198     -0.2864
    117  CB        -5.6920   17.8510   16.5250 C.3   198  ILE198      0.0276
    118  CG1       -6.1470   18.3090   15.1350 C.3   198  ILE198      0.0022
    119  CG2       -6.3630   18.7030   17.5990 C.3   198  ILE198      0.0022
    120  CD1       -5.5500   17.4730   14.0070 C.3   198  ILE198      0.0001
    121  N         -0.0990   18.9190   15.1370 N.3   201  LEU201     -0.1231
    122  CA        -0.0880   18.4320   13.7560 C.3   201  LEU201      0.1693
    123  C         -0.4410   19.5450   12.7790 C.2   201  LEU201      0.2591
    124  O          0.2610   19.7650   11.7820 O.2   201  LEU201     -0.2718
    125  CB        -1.0550   17.2510   13.5990 C.3   201  LEU201      0.0284
    126  CG        -0.6640   15.9340   14.2870 C.3   201  LEU201      0.0019
    127  CD1       -1.8060   14.9290   14.2520 C.3   201  LEU201      0.0001
    128  CD2        0.5890   15.3420   13.6370 C.3   201  LEU201      0.0001
    129  N         -1.5320   20.2640   13.0460 N.am  202  ARG202     -0.1980
    130  CA        -1.9490   21.3320   12.1410 C.3   202  ARG202      0.1597
    131  C         -0.8810   22.4090   12.0220 C.2   202  ARG202      0.2287
    132  O         -0.6980   22.9940   10.9450 O.2   202  ARG202     -0.2864
    133  CB        -3.2680   21.9450   12.6150 C.3   202  ARG202      0.0334
    134  CG        -4.4820   21.0230   12.5030 C.3   202  ARG202      0.0492
    135  CD        -5.7610   21.8440   12.3720 C.3   202  ARG202      0.2205
    136  NE        -6.7660   21.5460   13.3940 N.pl3 202  ARG202     -0.0865
    137  CZ        -7.7490   20.6620   13.2470 C.cat 202  ARG202      0.5346
    138  NH1       -7.8610   19.9610   12.1250 N.pl3 202  ARG202      0.1354
    139  NH2       -8.6190   20.4680   14.2300 N.pl3 202  ARG202      0.1354
    140  N         -2.6680   16.5910    9.2240 N.3   207  ALA207     -0.1245
    141  CA        -4.0530   16.3670    9.6660 C.3   207  ALA207      0.1562
    142  C         -4.9370   17.6050    9.5090 C.2   207  ALA207      0.2260
    143  O         -5.9100   17.7850   10.2520 O.2   207  ALA207     -0.2867
    144  CB        -4.1010   15.8570   11.1090 C.3   207  ALA207      0.0290
    145  N         -8.3130   16.2520    8.9390 N.3   210  GLY210     -0.1210
    146  CA        -8.7340   15.1150    9.7500 C.3   210  GLY210      0.1956
    147  C         -9.7880   15.4910   10.7810 C.2   210  GLY210      0.2612
    148  O         -9.7400   16.5560   11.4000 O.2   210  GLY210     -0.2717
    149  N        -10.7430   14.5860   10.9650 N.am  211  SER211     -0.1952
    150  CA       -11.8500   14.7760   11.8960 C.3   211  SER211      0.1924
    151  C        -12.4530   13.4060   12.1660 C.2   211  SER211      0.2314
    152  O        -12.0450   12.4060   11.5760 O.2   211  SER211     -0.2863
    153  CB       -12.9010   15.7330   11.3290 C.3   211  SER211      0.2116
    154  OG       -13.6380   15.0960   10.2980 O.3   211  SER211     -0.2180
    155  N        -11.6030    9.6410   10.3840 N.3   215  ALA215     -0.1245
    156  CA       -10.6010    9.0050   11.2230 C.3   215  ALA215      0.1562
    157  C        -11.2210    8.6680   12.5700 C.2   215  ALA215      0.2260
    158  O        -12.1960    9.2980   12.9910 O.2   215  ALA215     -0.2867
    159  CB        -9.3770    9.9110   11.4350 C.3   215  ALA215      0.0290
    160  N        -10.7230    9.3440   16.1150 N.3   217  VAL217     -0.1245
    161  CA       -10.0120   10.3620   16.8780 C.3   217  VAL217      0.1561
    162  C        -10.0430    9.9260   18.3360 C.2   217  VAL217      0.2260
    163  O        -11.1140    9.8340   18.9400 O.2   217  VAL217     -0.2867
    164  CB       -10.6220   11.7520   16.6770 C.3   217  VAL217      0.0252
    165  CG1       -9.8130   12.7800   17.4480 C.3   217  VAL217      0.0019
    166  CG2      -10.6230   12.1040   15.2060 C.3   217  VAL217      0.0019
    167  N         -6.1490   -1.6000   10.9550 N.3   238  HIS238     -0.1226
    168  CA        -5.7540   -0.5150   10.0640 C.3   238  HIS238      0.1752
    169  C         -4.2610   -0.5570    9.7750 C.2   238  HIS238      0.2595
    170  O         -3.8280   -0.2350    8.6620 O.2   238  HIS238     -0.2718
    171  CB        -6.1240    0.8630   10.6140 C.3   238  HIS238      0.0759
    172  CG        -5.7700    1.9500    9.6450 C.ar  238  HIS238      0.0818
    173  ND1       -6.5240    2.2010    8.5200 N.ar  238  HIS238     -0.2268
    174  CD2       -4.6730    2.7330    9.5460 C.ar  238  HIS238      0.1154
    175  CE1       -5.9420    3.1470    7.8050 C.ar  238  HIS238      0.1986
    176  NE2       -4.8160    3.4890    8.4090 N.ar  238  HIS238     -0.2212
    177  N         -3.4490   -0.9220   10.7700 N.am  239  LYS239     -0.1980
    178  CA        -2.0150   -1.0490   10.5170 C.3   239  LYS239      0.1596
    179  C         -1.7430   -2.1350    9.4850 C.2   239  LYS239      0.2287
    180  O         -0.8040   -2.0160    8.6840 O.2   239  LYS239     -0.2864
    181  CB        -1.2740   -1.3340   11.8280 C.3   239  LYS239      0.0298
    182  CG        -1.4030   -0.2230   12.8720 C.3   239  LYS239      0.0038
    183  CD        -0.7310    1.0820   12.4150 C.3   239  LYS239      0.0206
    184  CE         0.7980    0.9650   12.4100 C.3   239  LYS239      0.1093
    185  NZ         1.4970    2.2790   12.1710 N.3   239  LYS239     -0.1314
    186  N         -2.5810   -0.5630    6.1430 N.3   242  ASP242     -0.1239
    187  CA        -1.4390    0.2650    5.7630 C.3   242  ASP242      0.1674
    188  C         -0.3060   -0.5870    5.2130 C.2   242  ASP242      0.2266
    189  O          0.3140   -0.2370    4.2000 O.2   242  ASP242     -0.2867
    190  CB        -0.9270    1.0470    6.9770 C.3   242  ASP242      0.1410
    191  CG        -1.7120    2.3090    7.2570 C.2   242  ASP242      0.3668
    192  OD1       -1.5480    2.8320    8.3820 O.co2 242  ASP242     -0.2456
    193  OD2       -2.4730    2.7850    6.3810 O.co2 242  ASP242     -0.2456
    194  N          5.2700    3.4620    8.0850 N.3   265  HIS265     -0.1241
    195  CA         5.5720    3.6340    6.6630 C.3   265  HIS265      0.1621
    196  C          7.0680    3.6390    6.4000 C.2   265  HIS265      0.2264
    197  O          7.5260    3.0510    5.4160 O.2   265  HIS265     -0.2867
    198  CB         4.9270    4.9170    6.1490 C.3   265  HIS265      0.0745
    199  CG         3.4580    4.9770    6.4020 C.ar  265  HIS265      0.0817
    200  ND1        2.5910    3.9960    5.9710 N.ar  265  HIS265     -0.2268
    201  CD2        2.7060    5.8760    7.0760 C.ar  265  HIS265      0.1154
    202  CE1        1.3620    4.3030    6.3460 C.ar  265  HIS265      0.1986
    203  NE2        1.4080    5.4350    7.0250 N.ar  265  HIS265     -0.2212
@<TRIPOS>BOND
     1    46    45    2
     2    30    29    2
     3    45    44    1
     4    29    28    1
     5    34    35    1
     6    27    28    1
     7    37    36    2
     8    35    36    1
     9    35    38    1
    10    36    43   am
    11    28    31    1
    12    43    44    1
    13    44    47    1
    14    31    32    1
    15    31    33    1
    16    47    48    1
    17    38    39    1
    18    41    40   ar
    19    39    40    1
    20    48    49   ar
    21    48    50   ar
    22    40    42   ar
    23     1     2    1
    24   189   188    2
    25    49    51   ar
    26    50    52   ar
    27   188   187    1
    28     9     3   am
    29     9    10    1
    30     2     5    1
    31     2     3    1
    32    11    10    1
    33    11    12    2
    34   197   196    2
    35    51    52   ar
    36    13    10    1
    37    13    14    1
    38     5     6    1
    39   187   186    1
    40   187   190    1
    41     3     4    2
    42   200   202   ar
    43   200   199   ar
    44   198   199    1
    45   198   195    1
    46    16    14   ar
    47    16    18   ar
    48   202   203   ar
    49   193   191   ar
    50   196   195    1
    51   199   201   ar
    52    14    15   ar
    53   195   194    1
    54   190   191    1
    55   203   201   ar
    56     6     8    1
    57     6     7    1
    58   191   192   ar
    59    18    17   ar
    60    21    22    2
    61    21    20    1
    62   175   176   ar
    63   175   173   ar
    64    15    17   ar
    65   176   174   ar
    66   173   172   ar
    67   170   169    2
    68   180   179    2
    69    19    20    1
    70    20    23    1
    71   145   146    1
    72    70    68    1
    73    23    24    1
    74   140   141    1
    75    68    69    1
    76    68    65    1
    77   179   178    1
    78   142   141    1
    79   142   143    2
    80   174   172   ar
    81    64    65    1
    82   172   171    1
    83   141   144    1
    84   146   147    1
    85   169   168    1
    86   169   177   am
    87   168   171    1
    88   168   167    1
    89    65    66    1
    90   154   153    1
    91   155   156    1
    92   178   177    1
    93   178   181    1
    94    24    25    1
    95   147   149   am
    96   147   148    2
    97   132   131    2
    98   149   150    1
    99   156   159    1
   100   156   157    1
   101   153   150    1
   102    66    67    2
   103    66    71   am
   104   152   151    2
   105    25    26    1
   106   124   123    2
   107   181   182    1
   108   150   151    1
   109   131   130    1
   110   138   137    1
   111   130   133    1
   112   130   129    1
   113   185   184    1
   114    71    72    1
   115   135   134    1
   116   135   136    1
   117   184   183    1
   118   183   182    1
   119   134   133    1
   120   157   158    2
   121   123   129   am
   122   123   122    1
   123   137   136    2
   124   137   139    1
   125    74    73    2
   126   125   122    1
   127   125   126    1
   128   128   126    1
   129    72    73    1
   130    72    75    1
   131   122   121    1
   132   120   118    1
   133    77    79   ar
   134    77    76   ar
   135    73    82   am
   136    79    81   ar
   137   127   126    1
   138    75    76    1
   139    76    78   ar
   140    82    83    1
   141    81    80   ar
   142   118   117    1
   143   166   164    1
   144   116   115    2
   145    83    84    1
   146    78    80   ar
   147   160   161    1
   148   115   114    1
   149   117   114    1
   150   117   119    1
   151   114   113    1
   152   164   161    1
   153   164   165    1
   154   161   162    1
   155    84    85    2
   156    84    86   am
   157   108   107    2
   158    86    87    1
   159    63    62   ar
   160    63    61   ar
   161   113   107   am
   162   107   106    1
   163   109   106    1
   164   109   110    1
   165    62    60   ar
   166   162   163    2
   167    89    88    2
   168   112   110   ar
   169    61    59   ar
   170    93    95   ar
   171    93    91   ar
   172   106   105    1
   173    87    88    1
   174    87    90    1
   175    95    96   ar
   176    88    97   am
   177   110   111   ar
   178   103   104    1
   179   103   102    1
   180    60    58   ar
   181    97    98    1
   182    90    91    1
   183    98    99    1
   184    98   101    1
   185    91    92   ar
   186    96    94   ar
   187   100    99    2
   188    59    58   ar
   189    58    57    1
   190   101   102    1
   191    92    94   ar
   192    57    54    1
   193    53    54    1
   194    54    55    1
   195    55    56    2
