@<TRIPOS>MOLECULE
tmp/5uphB03.pdb
 112 111 0 0 0
SMALL
GASTEIGER

@<TRIPOS>ATOM
      1  N         38.1690    2.7490   21.9450 N.3     3  TRP3       -0.1241
      2  CA        38.7010    4.0580   21.5250 C.3     3  TRP3        0.1605
      3  C         39.3130    4.0730   20.1090 C.2     3  TRP3        0.2264
      4  O         40.4460    3.6290   19.9010 O.2     3  TRP3       -0.2867
      5  CB        39.6690    4.6510   22.5620 C.3     3  TRP3        0.0550
      6  CG        38.9720    5.4770   23.6030 C.ar    3  TRP3        0.0003
      7  CD1       38.1890    6.5740   23.3870 C.ar    3  TRP3        0.0946
      8  CD2       39.0170    5.2880   25.0240 C.ar    3  TRP3        0.0152
      9  NE1       37.7200    7.0650   24.5860 N.ar    3  TRP3       -0.2442
     10  CE2       38.2260    6.3040   25.6090 C.ar    3  TRP3        0.0810
     11  CE3       39.6490    4.3560   25.8640 C.ar    3  TRP3        0.0012
     12  CZ2       38.0570    6.4210   26.9960 C.ar    3  TRP3        0.0191
     13  CZ3       39.4550    4.4510   27.2370 C.ar    3  TRP3        0.0001
     14  CH2       38.6870    5.4870   27.7920 C.ar    3  TRP3        0.0015
     15  N         48.8700   16.4030   22.9470 N.3    41  TYR41      -0.1241
     16  CA        47.9650   15.3030   23.2190 C.3    41  TYR41       0.1605
     17  C         47.0540   15.1360   22.0010 C.2    41  TYR41       0.2264
     18  O         46.4620   16.1150   21.5240 O.2    41  TYR41      -0.2867
     19  CB        47.1350   15.6210   24.4580 C.3    41  TYR41       0.0534
     20  CG        47.8860   15.4450   25.7530 C.ar   41  TYR41      -0.0201
     21  CD1       48.6220   16.4890   26.3030 C.ar   41  TYR41      -0.0009
     22  CD2       47.8270   14.2530   26.4550 C.ar   41  TYR41      -0.0009
     23  CE1       49.3000   16.3410   27.5130 C.ar   41  TYR41       0.0417
     24  CE2       48.4960   14.0910   27.6660 C.ar   41  TYR41       0.0417
     25  CZ        49.2350   15.1370   28.1950 C.ar   41  TYR41       0.1957
     26  OH        49.9000   14.9580   29.3930 O.3    41  TYR41      -0.2866
     27  N         41.0830   11.0610   20.8980 N.3    44  LEU44      -0.1245
     28  CA        40.5460    9.7760   20.4510 C.3    44  LEU44       0.1561
     29  C         39.0790    9.6290   20.8090 C.2    44  LEU44       0.2260
     30  O         38.7290    9.7390   21.9810 O.2    44  LEU44      -0.2867
     31  CB        41.3270    8.6000   21.0560 C.3    44  LEU44       0.0270
     32  CG        42.7050    8.2850   20.4980 C.3    44  LEU44       0.0019
     33  CD1       43.2390    7.0270   21.1320 C.3    44  LEU44       0.0001
     34  CD2       42.6850    8.1190   18.9640 C.3    44  LEU44       0.0001
     35  N         39.5200   10.7460   24.7090 N.3    51  ALA51      -0.1231
     36  CA        40.7030   10.3920   25.4780 C.3    51  ALA51       0.1694
     37  C         41.8930   11.1470   24.9280 C.2    51  ALA51       0.2592
     38  O         42.0100   11.3280   23.7080 O.2    51  ALA51      -0.2718
     39  CB        40.9600    8.9030   25.3870 C.3    51  ALA51       0.0304
     40  N         42.7790   11.5910   25.8220 N.am   52  TYR52      -0.1962
     41  CA        43.9830   12.3160   25.4310 C.3    52  TYR52       0.1771
     42  C         45.2380   11.4310   25.4450 C.2    52  TYR52       0.2619
     43  O         45.6530   10.9550   26.5000 O.2    52  TYR52      -0.2715
     44  CB        44.1670   13.5490   26.3210 C.3    52  TYR52       0.0574
     45  CG        43.0850   14.5930   26.1710 C.ar   52  TYR52      -0.0198
     46  CD1       43.1990   15.6090   25.2280 C.ar   52  TYR52      -0.0009
     47  CD2       41.9820   14.6120   27.0220 C.ar   52  TYR52      -0.0009
     48  CE1       42.2310   16.6050   25.1180 C.ar   52  TYR52       0.0417
     49  CE2       41.0070   15.6020   26.9210 C.ar   52  TYR52       0.0417
     50  CZ        41.1360   16.5980   25.9670 C.ar   52  TYR52       0.1957
     51  OH        40.1980   17.5950   25.8600 O.3    52  TYR52      -0.2866
     52  N         45.8420   11.2190   24.2710 N.am   53  VAL53      -0.1963
     53  CA        47.0590   10.4100   24.1480 C.3    53  VAL53       0.1727
     54  C         48.2620   11.3290   23.9320 C.2    53  VAL53       0.2616
     55  O         48.3120   12.0470   22.9390 O.2    53  VAL53      -0.2715
     56  CB        46.9570    9.3190   23.0520 C.3    53  VAL53       0.0290
     57  CG1       48.2430    8.5080   22.9800 C.3    53  VAL53       0.0023
     58  CG2       45.7720    8.4000   23.3080 C.3    53  VAL53       0.0023
     59  N         49.2340   11.2890   24.8570 N.am   54  PHE54      -0.1974
     60  CA        50.4270   12.1270   24.7910 C.3    54  PHE54       0.1639
     61  C         51.3560   11.7300   23.6520 C.2    54  PHE54       0.2290
     62  O         51.6170   10.5400   23.4590 O.2    54  PHE54      -0.2864
     63  CB        51.1690   12.1400   26.1360 C.3    54  PHE54       0.0560
     64  CG        52.3690   13.0550   26.1780 C.ar   54  PHE54      -0.0200
     65  CD1       52.2110   14.4320   26.2410 C.ar   54  PHE54      -0.0042
     66  CD2       53.6550   12.5380   26.1760 C.ar   54  PHE54      -0.0042
     67  CE1       53.3210   15.2740   26.2710 C.ar   54  PHE54      -0.0003
     68  CE2       54.7620   13.3800   26.2380 C.ar   54  PHE54      -0.0003
     69  CZ        54.5890   14.7410   26.2590 C.ar   54  PHE54      -0.0000
     70  N         55.6810   14.1380   32.8590 N.3    64  LYS64      -0.1245
     71  CA        55.8050   13.3420   34.0610 C.3    64  LYS64       0.1561
     72  C         57.0920   13.6730   34.8100 C.2    64  LYS64       0.2260
     73  O         57.2780   13.2180   35.9360 O.2    64  LYS64      -0.2867
     74  CB        55.6380   11.8540   33.7380 C.3    64  LYS64       0.0271
     75  CG        54.1570   11.5030   33.5940 C.3    64  LYS64       0.0035
     76  CD        53.9000   10.0630   33.1740 C.3    64  LYS64       0.0206
     77  CE        52.6320    9.5000   33.7820 C.3    64  LYS64       0.1093
     78  NZ        51.4040   10.2460   33.3730 N.3    64  LYS64      -0.1314
     79  N         51.9610   16.9290   34.2890 N.3   109  ASP109     -0.1239
     80  CA        50.9540   15.8820   34.4640 C.3   109  ASP109      0.1674
     81  C         50.1810   16.0530   35.7720 C.2   109  ASP109      0.2266
     82  O         48.9810   15.7730   35.7910 O.2   109  ASP109     -0.2867
     83  CB        51.5970   14.4880   34.3820 C.3   109  ASP109      0.1410
     84  CG        50.6910   13.4570   33.7400 C.2   109  ASP109      0.3668
     85  OD1       50.4780   13.5350   32.5040 O.co2 109  ASP109     -0.2456
     86  OD2       50.1930   12.5760   34.4640 O.co2 109  ASP109     -0.2456
     87  N         46.4080   16.6500   34.9710 N.3   113  TRP113     -0.1241
     88  CA        45.4760   15.5710   35.2210 C.3   113  TRP113      0.1605
     89  C         45.2040   15.3000   36.6950 C.2   113  TRP113      0.2264
     90  O         44.1700   14.6950   36.9980 O.2   113  TRP113     -0.2867
     91  CB        45.9120   14.3140   34.4580 C.3   113  TRP113      0.0550
     92  CG        46.3300   14.6380   33.0510 C.ar  113  TRP113      0.0003
     93  CD1       47.5990   14.8500   32.6140 C.ar  113  TRP113      0.0946
     94  CD2       45.4670   14.9850   31.9550 C.ar  113  TRP113      0.0152
     95  NE1       47.5850   15.2600   31.2940 N.ar  113  TRP113     -0.2442
     96  CE2       46.2910   15.3430   30.8650 C.ar  113  TRP113      0.0810
     97  CE3       44.0740   14.9950   31.7760 C.ar  113  TRP113      0.0012
     98  CZ2       45.7770   15.6640   29.6070 C.ar  113  TRP113      0.0191
     99  CZ3       43.5630   15.3320   30.5280 C.ar  113  TRP113      0.0001
    100  CH2       44.4100   15.6680   29.4650 C.ar  113  TRP113      0.0015
    101  N         39.5750   13.0910   31.3120 N.3   141  ASN141     -0.1225
    102  CA        39.9900   12.0580   30.3720 C.3   141  ASN141      0.1785
    103  C         39.0090   10.8920   30.3970 C.2   141  ASN141      0.2597
    104  O         38.7260   10.3470   31.4700 O.2   141  ASN141     -0.2718
    105  CB        41.4050   11.5810   30.6560 C.3   141  ASN141      0.1169
    106  CG        42.0160   10.8550   29.4870 C.2   141  ASN141      0.2627
    107  OD1       41.6830   11.1160   28.3260 O.2   141  ASN141     -0.2716
    108  ND2       42.9260    9.9400   29.7820 N.am  141  ASN141     -0.0877
    109  N         38.4840   10.5480   29.2200 N.am  142  GLY142     -0.1957
    110  CA        37.5390    9.4540   29.0330 C.3   142  GLY142      0.1869
    111  C         36.0840    9.8290   29.1890 C.2   142  GLY142      0.2309
    112  O         35.2310    8.9440   29.1530 O.2   142  GLY142     -0.2863
@<TRIPOS>BOND
     1    34    32    1
     2     4     3    2
     3     3     2    1
     4    28    29    1
     5    28    27    1
     6    28    31    1
     7    32    31    1
     8    32    33    1
     9    29    30    2
    10    18    17    2
    11     2     1    1
    12     2     5    1
    13    17    16    1
    14     5     6    1
    15    55    54    2
    16    15    16    1
    17    57    56    1
    18    56    58    1
    19    56    53    1
    20    16    19    1
    21     7     6   ar
    22     7     9   ar
    23    62    61    2
    24     6     8   ar
    25    61    60    1
    26    38    37    2
    27    54    53    1
    28    54    59   am
    29    53    52    1
    30    52    42   am
    31    19    20    1
    32     9    10   ar
    33    35    36    1
    34    60    59    1
    35    60    63    1
    36    37    36    1
    37    37    40   am
    38     8    10   ar
    39     8    11   ar
    40    48    46   ar
    41    48    50   ar
    42    46    45   ar
    43    39    36    1
    44    41    42    1
    45    41    40    1
    46    41    44    1
    47    42    43    2
    48    10    12   ar
    49    20    21   ar
    50    20    22   ar
    51    51    50    1
    52    11    13   ar
    53    50    49   ar
    54    63    64    1
    55    45    44    1
    56    45    47   ar
    57    66    64   ar
    58    66    68   ar
    59    64    65   ar
    60    68    69   ar
    61    65    67   ar
    62    69    67   ar
    63    21    23   ar
    64    22    24   ar
    65    49    47   ar
    66    12    14   ar
    67    13    14   ar
    68    23    25   ar
    69    24    25   ar
    70    25    26    1
    71   107   106    2
    72   110   111    1
    73   110   109    1
    74   112   111    2
    75   109   103   am
    76   100    98   ar
    77   100    99   ar
    78   106   108   am
    79   106   105    1
    80    98    96   ar
    81   102   103    1
    82   102   105    1
    83   102   101    1
    84   103   104    2
    85    99    97   ar
    86    96    95   ar
    87    96    94   ar
    88    95    93   ar
    89    97    94   ar
    90    94    92   ar
    91    85    84   ar
    92    93    92   ar
    93    70    71    1
    94    92    91    1
    95    76    75    1
    96    76    77    1
    97    78    77    1
    98    75    74    1
    99    74    71    1
   100    84    83    1
   101    84    86   ar
   102    71    72    1
   103    79    80    1
   104    83    80    1
   105    91    88    1
   106    80    81    1
   107    72    73    2
   108    87    88    1
   109    88    89    1
   110    81    82    2
   111    89    90    2
