@<TRIPOS>MOLECULE
tmp/5uphB09.pdb
 194 181 0 0 0
SMALL
GASTEIGER

@<TRIPOS>ATOM
      1  N         42.2510   15.6060   15.6480 N.3    10  VAL10      -0.1245
      2  CA        42.1450   16.6710   16.6450 C.3    10  VAL10       0.1561
      3  C         43.2540   16.5180   17.6860 C.2    10  VAL10       0.2260
      4  O         43.5360   15.4030   18.1350 O.2    10  VAL10      -0.2867
      5  CB        40.7470   16.7780   17.2730 C.3    10  VAL10       0.0252
      6  CG1       40.6420   18.0190   18.1440 C.3    10  VAL10       0.0019
      7  CG2       39.6810   16.8020   16.1910 C.3    10  VAL10       0.0019
      8  N         38.2260    9.3500   19.8130 N.3    45  ARG45      -0.1245
      9  CA        36.7900    9.1540   20.0400 C.3    45  ARG45       0.1563
     10  C         36.3530    7.6820   19.8110 C.2    45  ARG45       0.2260
     11  O         36.5780    7.1420   18.7180 O.2    45  ARG45      -0.2867
     12  CB        35.9520   10.1540   19.2110 C.3    45  ARG45       0.0307
     13  CG        35.5790   11.4370   19.9690 C.3    45  ARG45       0.0489
     14  CD        36.6310   12.5330   19.8510 C.3    45  ARG45       0.2205
     15  NE        36.1520   13.8050   20.3990 N.pl3  45  ARG45      -0.0865
     16  CZ        36.7710   14.9740   20.2500 C.cat  45  ARG45       0.5346
     17  NH1       37.9060   15.0510   19.5620 N.pl3  45  ARG45       0.1354
     18  NH2       36.2540   16.0780   20.7780 N.pl3  45  ARG45       0.1354
     19  N         32.1760   20.5940   22.8560 N.3   147  ASP147     -0.1239
     20  CA        31.4400   21.8350   22.7320 C.3   147  ASP147      0.1674
     21  C         30.1380   21.6630   21.9550 C.2   147  ASP147      0.2266
     22  O         29.8460   20.5690   21.4740 O.2   147  ASP147     -0.2867
     23  CB        32.3400   22.9320   22.1360 C.3   147  ASP147      0.1410
     24  CG        33.7820   22.9200   22.6370 C.2   147  ASP147      0.3668
     25  OD1       34.0210   23.3760   23.7810 O.co2 147  ASP147     -0.2456
     26  OD2       34.6700   22.4560   21.8840 O.co2 147  ASP147     -0.2456
     27  N         27.7890   23.8300   19.0520 N.3   149  VAL149     -0.1245
     28  CA        27.6620   25.0250   18.2360 C.3   149  VAL149      0.1561
     29  C         26.2540   25.1370   17.6770 C.2   149  VAL149      0.2260
     30  O         25.6960   24.1590   17.1930 O.2   149  VAL149     -0.2867
     31  CB        28.7670   25.1470   17.1620 C.3   149  VAL149      0.0252
     32  CG1       28.7620   26.5280   16.5140 C.3   149  VAL149      0.0019
     33  CG2       30.1420   24.8280   17.7410 C.3   149  VAL149      0.0019
     34  N         27.3940   20.2260   15.5280 N.3   161  GLU161     -0.1245
     35  CA        28.0600   19.6050   16.6860 C.3   161  GLU161      0.1567
     36  C         27.2850   19.7820   18.0120 C.2   161  GLU161      0.2260
     37  O         27.0000   20.8820   18.4840 O.2   161  GLU161     -0.2867
     38  CB        29.5300   20.0340   16.8220 C.3   161  GLU161      0.0388
     39  CG        30.2400   19.5590   18.0720 C.3   161  GLU161      0.1160
     40  CD        31.3530   20.4900   18.4920 C.2   161  GLU161      0.3649
     41  OE1       32.4120   19.9900   18.9380 O.co2 161  GLU161     -0.2457
     42  OE2       31.1760   21.7230   18.3430 O.co2 161  GLU161     -0.2457
     43  N         28.3310   29.3240   20.9470 N.3   179  VAL179     -0.1245
     44  CA        29.0780   28.1700   21.4290 C.3   179  VAL179      0.1561
     45  C         29.1260   27.9990   22.9730 C.2   179  VAL179      0.2260
     46  O         29.5410   28.8800   23.7340 O.2   179  VAL179     -0.2867
     47  CB        30.4700   27.9800   20.8660 C.3   179  VAL179      0.0252
     48  CG1       30.7540   26.4910   20.8730 C.3   179  VAL179      0.0019
     49  CG2       30.5980   28.5670   19.4540 C.3   179  VAL179      0.0019
     50  N         29.5010   31.8940   24.2700 N.3   188  VAL188     -0.1245
     51  CA        30.4180   32.8120   23.5800 C.3   188  VAL188      0.1561
     52  C         29.8330   32.8380   22.1910 C.2   188  VAL188      0.2260
     53  O         29.4700   31.7700   21.6760 O.2   188  VAL188     -0.2867
     54  CB        31.9000   32.3380   23.4950 C.3   188  VAL188      0.0252
     55  CG1       32.7830   33.4480   22.9410 C.3   188  VAL188      0.0019
     56  CG2       32.4410   31.8430   24.8270 C.3   188  VAL188      0.0019
     57  N         30.4410   33.7960   18.1810 N.3   190  ILE190     -0.1245
     58  CA        31.4290   33.9880   17.1410 C.3   190  ILE190      0.1561
     59  C         30.6880   34.4580   15.9170 C.2   190  ILE190      0.2260
     60  O         29.6800   33.8690   15.5340 O.2   190  ILE190     -0.2867
     61  CB        32.2840   32.7080   16.8780 C.3   190  ILE190      0.0252
     62  CG1       31.4400   31.4350   16.8680 C.3   190  ILE190      0.0019
     63  CG2       33.3800   32.5630   17.8920 C.3   190  ILE190      0.0019
     64  CD1       31.8730   30.4140   15.9240 C.3   190  ILE190      0.0001
     65  N         35.8260   35.3220   17.3650 N.3   208  VAL208     -0.1245
     66  CA        35.2050   35.9810   18.5350 C.3   208  VAL208      0.1561
     67  C         35.3280   37.5130   18.3210 C.2   208  VAL208      0.2260
     68  O         36.4630   38.0060   18.2510 O.2   208  VAL208     -0.2867
     69  CB        35.7580   35.5420   19.9220 C.3   208  VAL208      0.0252
     70  CG1       35.2540   36.4540   21.0370 C.3   208  VAL208      0.0019
     71  CG2       35.4030   34.0950   20.2380 C.3   208  VAL208      0.0019
     72  N         37.0980   37.2280   30.9990 N.3   219  LEU219     -0.1245
     73  CA        35.7920   36.7180   31.4290 C.3   219  LEU219      0.1561
     74  C         35.8520   36.0260   32.8130 C.2   219  LEU219      0.2260
     75  O         36.5540   35.0240   32.9770 O.2   219  LEU219     -0.2867
     76  CB        35.2970   35.7610   30.3410 C.3   219  LEU219      0.0270
     77  CG        33.9130   35.2120   30.4570 C.3   219  LEU219      0.0019
     78  CD1       32.9050   36.3190   30.4480 C.3   219  LEU219      0.0001
     79  CD2       33.6750   34.1700   29.3750 C.3   219  LEU219      0.0001
     80  N         39.0500   34.1620   32.5310 N.3   232  MET232     -0.1230
     81  CA        39.3240   33.6200   31.1960 C.3   232  MET232      0.1702
     82  C         39.8770   34.6510   30.2480 C.2   232  MET232      0.2593
     83  O         39.3770   35.7750   30.2170 O.2   232  MET232     -0.2718
     84  CB        38.0650   32.9870   30.5710 C.3   232  MET232      0.0401
     85  CG        37.7760   31.5890   31.0800 C.3   232  MET232      0.0596
     86  SD        39.2100   30.5030   30.9360 S.3   232  MET232     -0.1393
     87  CE        38.9100   29.3860   32.2320 C.3   232  MET232      0.0692
     88  N         40.8570   34.2750   29.4300 N.am  233  SER233     -0.1938
     89  CA        41.3630   35.2590   28.4900 C.3   233  SER233      0.2055
     90  C         41.8150   34.5980   27.2060 C.2   233  SER233      0.2643
     91  O         41.8630   33.3650   27.1350 O.2   233  SER233     -0.2714
     92  CB        42.5090   36.0590   29.1150 C.3   233  SER233      0.2130
     93  OG        43.7060   35.3070   29.2580 O.3   233  SER233     -0.2179
     94  N         42.1650   35.4020   26.1970 N.am  234  PHE234     -0.1973
     95  CA        42.7640   34.7980   25.0280 C.3   234  PHE234      0.1639
     96  C         44.2590   34.5750   25.3890 C.2   234  PHE234      0.2290
     97  O         44.7670   35.2420   26.3050 O.2   234  PHE234     -0.2864
     98  CB        42.6260   35.7030   23.8020 C.3   234  PHE234      0.0560
     99  CG        41.2940   35.5540   23.1500 C.ar  234  PHE234     -0.0200
    100  CD1       40.9980   34.4290   22.3960 C.ar  234  PHE234     -0.0042
    101  CD2       40.3210   36.5290   23.3030 C.ar  234  PHE234     -0.0042
    102  CE1       39.7450   34.2780   21.8220 C.ar  234  PHE234     -0.0003
    103  CE2       39.0600   36.3690   22.7490 C.ar  234  PHE234     -0.0003
    104  CZ        38.7810   35.2470   22.0100 C.ar  234  PHE234     -0.0000
    105  N         41.3030   32.9940   18.0440 N.3   260  THR260     -0.1203
    106  CA        40.4010   31.8710   17.9660 C.3   260  THR260      0.1994
    107  C         39.6220   32.0250   16.7010 C.2   260  THR260      0.2618
    108  O         39.0530   33.1120   16.4180 O.2   260  THR260     -0.2717
    109  CB        39.5600   31.7460   19.2400 C.3   260  THR260      0.1784
    110  OG1       39.9660   30.5530   19.8860 O.3   260  THR260     -0.2211
    111  CG2       38.0810   31.6620   18.9790 C.3   260  THR260      0.0376
    112  N         39.6120   30.9410   15.9220 N.am  261  PHE261     -0.1961
    113  CA        38.8370   30.9220   14.6990 C.3   261  PHE261      0.1771
    114  C         38.2590   29.5150   14.4570 C.2   261  PHE261      0.2619
    115  O         38.7380   28.5410   15.0560 O.2   261  PHE261     -0.2715
    116  CB        39.6960   31.3980   13.5360 C.3   261  PHE261      0.0574
    117  CG        40.6750   30.3600   13.0990 C.ar  261  PHE261     -0.0200
    118  CD1       40.2910   29.3450   12.2400 C.ar  261  PHE261     -0.0042
    119  CD2       41.9930   30.4180   13.5050 C.ar  261  PHE261     -0.0042
    120  CE1       41.2000   28.3950   11.8180 C.ar  261  PHE261     -0.0003
    121  CE2       42.9140   29.4750   13.0620 C.ar  261  PHE261     -0.0003
    122  CZ        42.5070   28.4630   12.2330 C.ar  261  PHE261     -0.0000
    123  N         37.2790   29.4100   13.5280 N.am  262  VAL262     -0.1977
    124  CA        36.6340   28.1500   13.1210 C.3   262  VAL262      0.1596
    125  C         36.0150   28.2720   11.7040 C.2   262  VAL262      0.2287
    126  O         34.9980   28.9390   11.5450 O.2   262  VAL262     -0.2864
    127  CB        35.6370   27.5920   14.1840 C.3   262  VAL262      0.0276
    128  CG1       34.6280   28.6350   14.6050 C.3   262  VAL262      0.0022
    129  CG2       34.9360   26.3430   13.6820 C.3   262  VAL262      0.0022
    130  N         32.9770   21.4290   10.2530 N.3   271  ILE271     -0.1245
    131  CA        34.1430   22.2410   10.6120 C.3   271  ILE271      0.1561
    132  C         35.3310   21.6440    9.8150 C.2   271  ILE271      0.2260
    133  O         35.6580   20.4690   10.0110 O.2   271  ILE271     -0.2867
    134  CB        34.4520   22.2980   12.1450 C.3   271  ILE271      0.0252
    135  CG1       33.3260   23.0230   12.8860 C.3   271  ILE271      0.0019
    136  CG2       35.8100   22.9920   12.4040 C.3   271  ILE271      0.0019
    137  CD1       33.3350   22.8920   14.4110 C.3   271  ILE271      0.0001
    138  N         40.1400   24.7490   12.3870 N.3   274  ALA274     -0.1231
    139  CA        39.8380   25.5830   13.5610 C.3   274  ALA274      0.1694
    140  C         40.9030   25.5950   14.6260 C.2   274  ALA274      0.2592
    141  O         41.7760   24.7270   14.6330 O.2   274  ALA274     -0.2718
    142  CB        38.5340   25.1590   14.1720 C.3   274  ALA274      0.0304
    143  N         40.8150   26.5750   15.5490 N.am  275  ALA275     -0.1966
    144  CA        41.7190   26.7230   16.6880 C.3   275  ALA275      0.1728
    145  C         40.9760   27.3110   17.8810 C.2   275  ALA275      0.2616
    146  O         40.5140   28.4610   17.8210 O.2   275  ALA275     -0.2715
    147  CB        42.9140   27.5950   16.3230 C.3   275  ALA275      0.0334
    148  N         40.8040   26.4700   18.9330 N.am  276  LYS276     -0.1963
    149  CA        40.2250   26.7580   20.2470 C.3   276  LYS276      0.1728
    150  C         41.3830   27.2780   21.0330 C.2   276  LYS276      0.2616
    151  O         42.2860   26.5090   21.3970 O.2   276  LYS276     -0.2715
    152  CB        39.6910   25.4660   20.8910 C.3   276  LYS276      0.0311
    153  CG        38.8570   25.6460   22.1690 C.3   276  LYS276      0.0038
    154  CD        37.5330   24.8420   22.1290 C.3   276  LYS276      0.0206
    155  CE        37.5430   23.5500   22.8910 C.3   276  LYS276      0.1093
    156  NZ        37.5120   23.7790   24.3600 N.3   276  LYS276     -0.1314
    157  N         41.4490   28.5890   21.1940 N.am  277  ARG277     -0.1963
    158  CA        42.5790   29.1600   21.9120 C.3   277  ARG277      0.1729
    159  C         42.0810   30.0120   23.0770 C.2   277  ARG277      0.2616
    160  O         41.3780   31.0190   22.8650 O.2   277  ARG277     -0.2715
    161  CB        43.5790   29.8780   20.9660 C.3   277  ARG277      0.0348
    162  CG        44.5180   28.8940   20.2340 C.3   277  ARG277      0.0492
    163  CD        45.7840   29.5090   19.6570 C.3   277  ARG277      0.2205
    164  NE        45.5270   30.2550   18.4230 N.pl3 277  ARG277     -0.0865
    165  CZ        45.9580   29.9040   17.2110 C.cat 277  ARG277      0.5346
    166  NH1       46.7020   28.8190   17.0530 N.pl3 277  ARG277      0.1354
    167  NH2       45.6570   30.6430   16.1510 N.pl3 277  ARG277      0.1354
    168  N         42.3740   29.5300   24.3210 N.am  278  PHE278     -0.1974
    169  CA        42.0000   30.1920   25.5710 C.3   278  PHE278      0.1639
    170  C         43.0650   29.9930   26.6390 C.2   278  PHE278      0.2290
    171  O         43.9030   29.0880   26.5180 O.2   278  PHE278     -0.2864
    172  CB        40.6060   29.7780   26.0540 C.3   278  PHE278      0.0560
    173  CG        40.4420   28.3380   26.4760 C.ar  278  PHE278     -0.0200
    174  CD1       40.7610   27.9350   27.7740 C.ar  278  PHE278     -0.0042
    175  CD2       39.9120   27.3950   25.5980 C.ar  278  PHE278     -0.0042
    176  CE1       40.5810   26.6120   28.1770 C.ar  278  PHE278     -0.0003
    177  CE2       39.7180   26.0740   26.0040 C.ar  278  PHE278     -0.0003
    178  CZ        40.0370   25.6960   27.3000 C.ar  278  PHE278     -0.0000
    179  N         43.2860   23.8060   20.9160 N.3   308  GLU308     -0.1245
    180  CA        42.5730   22.6360   20.3780 C.3   308  GLU308      0.1567
    181  C         42.3020   22.9090   18.8710 C.2   308  GLU308      0.2260
    182  O         41.4990   23.7720   18.4970 O.2   308  GLU308     -0.2867
    183  CB        41.3080   22.2900   21.1510 C.3   308  GLU308      0.0388
    184  CG        40.8020   20.8930   20.8500 C.3   308  GLU308      0.1160
    185  CD        39.6720   20.4410   21.7520 C.2   308  GLU308      0.3649
    186  OE1       38.5090   20.8140   21.4750 O.co2 308  GLU308     -0.2457
    187  OE2       39.9500   19.7480   22.7610 O.co2 308  GLU308     -0.2457
    188  N         42.1430   21.4260   14.5510 N.3   310  VAL310     -0.1245
    189  CA        41.6780   20.4490   13.5590 C.3   310  VAL310      0.1561
    190  C         41.9040   20.9970   12.1510 C.2   310  VAL310      0.2260
    191  O         41.7180   22.1910   11.9250 O.2   310  VAL310     -0.2867
    192  CB        40.2130   19.9990   13.7940 C.3   310  VAL310      0.0252
    193  CG1       39.2160   21.1380   13.5890 C.3   310  VAL310      0.0019
    194  CG2       39.8680   18.8070   12.9230 C.3   310  VAL310      0.0019
@<TRIPOS>BOND
     1   132   133    2
     2   132   131    1
     3   130   131    1
     4   131   134    1
     5   126   125    2
     6   125   124    1
     7   120   122   ar
     8   120   118   ar
     9   191   190    2
    10   134   136    1
    11   134   135    1
    12   190   189    1
    13   122   121   ar
    14   118   117   ar
    15   138   139    1
    16   135   137    1
    17   194   192    1
    18   121   119   ar
    19   117   119   ar
    20   117   116    1
    21   124   123    1
    22   124   127    1
    23   123   114   am
    24   116   113    1
    25   189   192    1
    26   189   188    1
    27   139   142    1
    28   139   140    1
    29   193   192    1
    30   129   127    1
    31   127   128    1
    32   114   113    1
    33   114   115    2
    34   140   141    2
    35   140   143   am
    36   113   112    1
    37    34    35    1
    38    60    59    2
    39   143   144    1
    40     1     2    1
    41    59    58    1
    42   112   107   am
    43    64    62    1
    44   167   165    1
    45     7     5    1
    46   147   144    1
    47   108   107    2
    48    32    31    1
    49     2     5    1
    50     2     3    1
    51    35    38    1
    52    35    36    1
    53   144   145    1
    54   107   106    1
    55    38    39    1
    56    62    61    1
    57    61    58    1
    58    61    63    1
    59   166   165    1
    60    58    57    1
    61    31    33    1
    62    31    28    1
    63    30    29    2
    64   165   164    2
    65     5     6    1
    66    65    66    1
    67    29    28    1
    68     3     4    2
    69   146   145    2
    70   145   148   am
    71   106   105    1
    72   106   109    1
    73    36    37    2
    74    39    40    1
    75    28    27    1
    76    68    67    2
    77    67    66    1
    78    42    40   ar
    79   164   163    1
    80    40    41   ar
    81   182   181    2
    82    66    69    1
    83    11    10    2
    84   181   180    1
    85   148   149    1
    86   111   109    1
    87    12    13    1
    88    12     9    1
    89   109   110    1
    90    49    47    1
    91    17    16    1
    92   163   162    1
    93    10     9    1
    94     8     9    1
    95    14    13    1
    96    14    15    1
    97    69    71    1
    98    69    70    1
    99   162   161    1
   100   149   152    1
   101   149   150    1
   102    16    15    2
   103    16    18    1
   104   180   179    1
   105   180   183    1
   106   184   183    1
   107   184   185    1
   108    47    48    1
   109    47    44    1
   110   152   153    1
   111    43    44    1
   112   161   158    1
   113   150   157   am
   114   150   151    2
   115   157   158    1
   116    44    45    1
   117    22    21    2
   118   186   185   ar
   119    53    52    2
   120   185   187   ar
   121   102   104   ar
   122   102   100   ar
   123    26    24   ar
   124   158   159    1
   125    21    20    1
   126   104   103   ar
   127   154   153    1
   128   154   155    1
   129    23    24    1
   130    23    20    1
   131    52    51    1
   132   100    99   ar
   133    24    25   ar
   134    20    19    1
   135   103   101   ar
   136   160   159    2
   137   155   156    1
   138    55    54    1
   139    45    46    2
   140   159   168   am
   141    99   101   ar
   142    99    98    1
   143    54    51    1
   144    54    56    1
   145    51    50    1
   146    98    95    1
   147   168   169    1
   148    95    96    1
   149    95    94    1
   150    96    97    2
   151   169   172    1
   152   169   170    1
   153   175   177   ar
   154   175   173   ar
   155   177   178   ar
   156   172   173    1
   157    94    90   am
   158   173   174   ar
   159   171   170    2
   160    91    90    2
   161    90    89    1
   162   178   176   ar
   163   174   176   ar
   164    89    92    1
   165    89    88    1
   166    92    93    1
   167    79    77    1
   168    88    82   am
   169    83    82    2
   170    82    81    1
   171    76    77    1
   172    76    73    1
   173    78    77    1
   174    84    85    1
   175    84    81    1
   176    86    85    1
   177    86    87    1
   178    72    73    1
   179    81    80    1
   180    73    74    1
   181    74    75    2
