@<TRIPOS>MOLECULE
tmp/5upkB00.pdb
 139 129 0 0 0
SMALL
GASTEIGER

@<TRIPOS>ATOM
      1  N         -0.9700    0.4400    4.5710 N.3    28  ILE28      -0.1231
      2  CA         0.2340    0.0580    5.3330 C.3    28  ILE28       0.1692
      3  C          0.1040    0.4680    6.7980 C.2    28  ILE28       0.2593
      4  O          0.5590   -0.2560    7.6680 O.2    28  ILE28      -0.2718
      5  CB         1.5110    0.7020    4.7090 C.3    28  ILE28       0.0266
      6  CG1        1.8610    0.0260    3.3760 C.3    28  ILE28       0.0019
      7  CG2        2.7120    0.6690    5.6460 C.3    28  ILE28       0.0020
      8  CD1        2.0290   -1.4800    3.4290 C.3    28  ILE28       0.0001
      9  N         -0.4810    1.6330    7.0720 N.am   29  GLY29      -0.1942
     10  CA        -0.7660    2.0310    8.4450 C.3    29  GLY29       0.2014
     11  C         -1.7920    3.1320    8.5820 C.2    29  GLY29       0.2639
     12  O         -2.3080    3.6380    7.5910 O.2    29  GLY29      -0.2714
     13  N         -2.1020    3.4630    9.8330 N.am   30  GLU30      -0.1963
     14  CA        -2.9370    4.6100   10.1870 C.3    30  GLU30       0.1733
     15  C         -2.1100    5.6140   10.9800 C.2    30  GLU30       0.2616
     16  O         -1.1040    5.2570   11.6050 O.2    30  GLU30      -0.2715
     17  CB        -4.1410    4.1810   11.0320 C.3    30  GLU30       0.0429
     18  CG        -5.0880    3.2240   10.3300 C.3    30  GLU30       0.1163
     19  CD        -6.5080    3.2700   10.8760 C.2    30  GLU30       0.3649
     20  OE1       -6.9470    2.2730   11.4940 O.co2  30  GLU30      -0.2457
     21  OE2       -7.1910    4.3000   10.6750 O.co2  30  GLU30      -0.2457
     22  N         -2.5500    6.8700   10.9370 N.am   31  GLY31      -0.1955
     23  CA        -1.9850    7.9680   11.7340 C.3    31  GLY31       0.1869
     24  C         -3.1180    8.8260   12.2780 C.2    31  GLY31       0.2309
     25  O         -4.2970    8.4800   12.1240 O.2    31  GLY31      -0.2863
     26  N         -3.6600   12.0720   11.3070 N.3    33  THR33      -0.1203
     27  CA        -4.1550   12.8400   10.1620 C.3    33  THR33       0.1994
     28  C         -4.7250   11.9620    9.0540 C.2    33  THR33       0.2618
     29  O         -5.5410   12.4190    8.2530 O.2    33  THR33      -0.2717
     30  CB        -3.0450   13.7220    9.5580 C.3    33  THR33       0.1784
     31  OG1       -1.9420   12.8990    9.1560 O.3    33  THR33      -0.2211
     32  CG2       -2.5650   14.7490   10.5730 C.3    33  THR33       0.0376
     33  N         -4.2730   10.7160    8.9830 N.am   34  GLY34      -0.1956
     34  CA        -4.8590    9.7510    8.0580 C.3    34  GLY34       0.1869
     35  C         -3.9950    8.5300    7.8330 C.2    34  GLY34       0.2309
     36  O         -3.1080    8.2220    8.6410 O.2    34  GLY34      -0.2863
     37  N         -1.6140    5.6440    5.5210 N.3    36  VAL36      -0.1245
     38  CA        -0.5010    5.5150    4.5860 C.3    36  VAL36       0.1561
     39  C         -0.7150    4.2360    3.7860 C.2    36  VAL36       0.2260
     40  O         -1.0050    3.1830    4.3630 O.2    36  VAL36      -0.2867
     41  CB         0.8480    5.4510    5.3120 C.3    36  VAL36       0.0252
     42  CG1        2.0000    5.2170    4.3300 C.3    36  VAL36       0.0019
     43  CG2        1.0630    6.7350    6.0980 C.3    36  VAL36       0.0019
     44  N          5.2470    5.3800   -1.2540 N.3    49  ALA49      -0.1245
     45  CA         4.3180    5.5070   -0.1380 C.3    49  ALA49       0.1562
     46  C          3.3740    6.6460   -0.4400 C.2    49  ALA49       0.2260
     47  O          3.7870    7.6550   -1.0040 O.2    49  ALA49      -0.2867
     48  CB         5.0740    5.7940    1.1480 C.3    49  ALA49       0.0290
     49  N          0.4850    9.0470    1.4710 N.3    51  LYS51      -0.1245
     50  CA        -0.2210    9.4460    2.6830 C.3    51  LYS51       0.1561
     51  C         -1.5110   10.1580    2.2790 C.2    51  LYS51       0.2260
     52  O         -1.4750   11.1090    1.5040 O.2    51  LYS51      -0.2867
     53  CB         0.6600   10.3520    3.5310 C.3    51  LYS51       0.0271
     54  CG         0.1270   10.6010    4.9270 C.3    51  LYS51       0.0035
     55  CD         1.1160   11.4200    5.7490 C.3    51  LYS51       0.0206
     56  CE         0.6250   11.5770    7.1800 C.3    51  LYS51       0.1093
     57  NZ         1.6330   12.2630    8.0410 N.3    51  LYS51      -0.1314
     58  N         12.6370   12.6120    4.7430 N.3    80  VAL80      -0.1245
     59  CA        11.9140   11.7680    3.7820 C.3    80  VAL80       0.1561
     60  C         11.6460   12.5360    2.4810 C.2    80  VAL80       0.2260
     61  O         11.0980   13.6260    2.5190 O.2    80  VAL80      -0.2867
     62  CB        10.5770   11.2570    4.3770 C.3    80  VAL80       0.0252
     63  CG1        9.7350   10.5370    3.3250 C.3    80  VAL80       0.0019
     64  CG2       10.8480   10.3180    5.5350 C.3    80  VAL80       0.0019
     65  N          5.4720    9.9150   -1.5770 N.3    96  MET96      -0.1230
     66  CA         6.8340   10.0380   -1.0830 C.3    96  MET96       0.1702
     67  C          7.5680    8.7200   -1.2080 C.2    96  MET96       0.2592
     68  O          6.9650    7.7070   -1.5800 O.2    96  MET96      -0.2718
     69  CB         6.8100   10.5080    0.3660 C.3    96  MET96       0.0401
     70  CG         6.1010    9.5800    1.3170 C.3    96  MET96       0.0596
     71  SD         5.7660   10.4080    2.8740 S.3    96  MET96      -0.1393
     72  CE         4.4410    9.3530    3.4660 C.3    96  MET96       0.0692
     73  N          8.8700    8.7380   -0.9220 N.am   97  GLU97      -0.1966
     74  CA         9.6900    7.5290   -1.0020 C.3    97  GLU97       0.1733
     75  C          9.1940    6.5130    0.0080 C.2    97  GLU97       0.2616
     76  O          8.7670    6.8880    1.1040 O.2    97  GLU97      -0.2715
     77  CB        11.1840    7.8180   -0.7770 C.3    97  GLU97       0.0429
     78  CG        11.5520    8.3260    0.6130 C.3    97  GLU97       0.1163
     79  CD        13.0390    8.5500    0.8040 C.2    97  GLU97       0.3649
     80  OE1       13.8410    7.7780    0.2380 O.co2  97  GLU97      -0.2457
     81  OE2       13.4030    9.4920    1.5530 O.co2  97  GLU97      -0.2457
     82  N          9.2170    5.2400   -0.3740 N.am   98  PHE98      -0.1960
     83  CA         8.8540    4.1760    0.5410 C.3    98  PHE98       0.1771
     84  C         10.1200    3.8090    1.2870 C.2    98  PHE98       0.2619
     85  O         11.1210    3.4540    0.6670 O.2    98  PHE98      -0.2715
     86  CB         8.2850    2.9500   -0.1890 C.3    98  PHE98       0.0574
     87  CG         8.0500    1.7770    0.7150 C.ar   98  PHE98      -0.0200
     88  CD1        7.2040    1.8870    1.8100 C.ar   98  PHE98      -0.0042
     89  CD2        8.6990    0.5750    0.4990 C.ar   98  PHE98      -0.0042
     90  CE1        6.9930    0.8140    2.6630 C.ar   98  PHE98      -0.0003
     91  CE2        8.4940   -0.5070    1.3490 C.ar   98  PHE98      -0.0003
     92  CZ         7.6360   -0.3890    2.4310 C.ar   98  PHE98      -0.0000
     93  N         10.0760    3.9270    2.6100 N.am   99  LEU99      -0.1977
     94  CA        11.2050    3.5650    3.4540 C.3    99  LEU99       0.1596
     95  C         11.0030    2.1690    4.0500 C.2    99  LEU99       0.2287
     96  O         10.1620    1.9330    4.9240 O.2    99  LEU99      -0.2864
     97  CB        11.4420    4.6360    4.5130 C.3    99  LEU99       0.0297
     98  CG        11.8400    5.9860    3.8890 C.3    99  LEU99       0.0022
     99  CD1       12.2070    6.9430    5.0030 C.3    99  LEU99       0.0001
    100  CD2       12.9820    5.8750    2.8760 C.3    99  LEU99       0.0001
    101  N         11.2060    0.5760    7.8650 N.3   102  GLY102     -0.1210
    102  CA        10.1480    0.8330    8.8430 C.3   102  GLY102      0.1956
    103  C         10.5180    1.8950    9.8770 C.2   102  GLY102      0.2611
    104  O         11.5440    2.5600    9.7770 O.2   102  GLY102     -0.2717
    105  N          9.6620    2.0400   10.8780 N.am  103  ALA103     -0.1979
    106  CA         9.8470    3.0180   11.9300 C.3   103  ALA103      0.1597
    107  C         10.7940    2.4840   12.9980 C.2   103  ALA103      0.2287
    108  O         10.8690    1.2830   13.2380 O.2   103  ALA103     -0.2864
    109  CB         8.5060    3.3880   12.5550 C.3   103  ALA103      0.0319
    110  N          8.3450    6.8150   16.4640 N.3   145  ASP145     -0.1239
    111  CA         7.4000    6.6210   15.3330 C.3   145  ASP145      0.1674
    112  C          7.6790    7.5190   14.1340 C.2   145  ASP145      0.2266
    113  O          7.3840    7.1350   13.0100 O.2   145  ASP145     -0.2867
    114  CB         5.9390    6.8230   15.7740 C.3   145  ASP145      0.1410
    115  CG         5.6400    6.2210   17.1480 C.2   145  ASP145      0.3668
    116  OD1        6.2330    6.6800   18.1610 O.co2 145  ASP145     -0.2456
    117  OD2        4.8130    5.2850   17.2260 O.co2 145  ASP145     -0.2456
    118  N         12.1510    7.0500   10.3600 N.3   148  LEU148     -0.1245
    119  CA        12.0570    5.9180    9.4480 C.3   148  LEU148      0.1561
    120  C         13.4460    5.5360    8.9710 C.2   148  LEU148      0.2260
    121  O         14.3650    6.3730    8.9650 O.2   148  LEU148     -0.2867
    122  CB        11.1610    6.2660    8.2660 C.3   148  LEU148      0.0270
    123  CG         9.7530    6.7330    8.6370 C.3   148  LEU148      0.0019
    124  CD1        8.8680    6.9640    7.4130 C.3   148  LEU148      0.0001
    125  CD2        9.1030    5.7520    9.6070 C.3   148  LEU148      0.0001
    126  N         10.4560   11.9680    9.4860 N.3   158  SER158     -0.1202
    127  CA         9.1760   12.0590    8.7740 C.3   158  SER158      0.2020
    128  C          8.1330   12.7400    9.6660 C.2   158  SER158      0.2618
    129  O          8.4970   13.3100   10.6960 O.2   158  SER158     -0.2717
    130  CB         8.7180   10.6600    8.3620 C.3   158  SER158      0.2103
    131  OG         8.1980    9.9590    9.4740 O.3   158  SER158     -0.2182
    132  N          6.8600   12.7010    9.2460 N.am  159  ASP159     -0.1973
    133  CA         5.7140   13.1720   10.0390 C.3   159  ASP159      0.1709
    134  C          5.8330   14.6720   10.3440 C.2   159  ASP159      0.2293
    135  O          5.9020   15.0780   11.4970 O.2   159  ASP159     -0.2864
    136  CB         5.5540   12.2950   11.3040 C.3   159  ASP159      0.1436
    137  CG         4.4720   12.8140   12.3000 C.2   159  ASP159      0.3671
    138  OD1        3.4160   13.3740   11.8940 O.co2 159  ASP159     -0.2456
    139  OD2        4.6960   12.6380   13.5240 O.co2 159  ASP159     -0.2456
@<TRIPOS>BOND
     1    68    67    2
     2    65    66    1
     3    44    45    1
     4    67    66    1
     5    67    73   am
     6    66    69    1
     7    47    46    2
     8    74    73    1
     9    74    77    1
    10    74    75    1
    11    77    78    1
    12    46    45    1
    13    82    75   am
    14    82    83    1
    15    86    83    1
    16    86    87    1
    17    45    48    1
    18    75    76    2
    19    80    79   ar
    20    69    70    1
    21    89    87   ar
    22    89    91   ar
    23    83    84    1
    24    78    79    1
    25    85    84    2
    26    87    88   ar
    27    79    81   ar
    28    84    93   am
    29    70    71    1
    30    91    92   ar
    31    49    50    1
    32    52    51    2
    33    88    90   ar
    34    51    50    1
    35    92    90   ar
    36    60    61    2
    37    60    59    1
    38    93    94    1
    39    50    53    1
    40    71    72    1
    41   100    98    1
    42    63    62    1
    43     6     8    1
    44     6     5    1
    45    94    95    1
    46    94    97    1
    47    53    54    1
    48    59    62    1
    49    59    58    1
    50    39    40    2
    51    39    38    1
    52    98    97    1
    53    98    99    1
    54    95    96    2
    55    42    41    1
    56    62    64    1
    57     1     2    1
    58    38    41    1
    59    38    37    1
    60     5     2    1
    61     5     7    1
    62    54    55    1
    63    41    43    1
    64     2     3    1
    65    55    56    1
    66     3     9   am
    67     3     4    2
    68     9    10    1
    69    56    57    1
    70   124   123    1
    71    12    11    2
    72    35    34    1
    73    35    36    2
    74   101   102    1
    75    34    33    1
    76    29    28    2
    77   122   123    1
    78   122   119    1
    79   130   127    1
    80   130   131    1
    81    10    11    1
    82    11    13   am
    83   123   125    1
    84   127   126    1
    85   127   128    1
    86   102   103    1
    87   121   120    2
    88   120   119    1
    89    33    28   am
    90    28    27    1
    91    31    30    1
    92   132   128   am
    93   132   133    1
    94   119   118    1
    95    30    27    1
    96    30    32    1
    97   128   129    2
    98   104   103    2
    99    13    14    1
   100   103   105   am
   101   133   134    1
   102   133   136    1
   103    27    26    1
   104    14    15    1
   105    14    17    1
   106    18    19    1
   107    18    17    1
   108   134   135    2
   109    21    19   ar
   110    19    20   ar
   111   105   106    1
   112    22    15   am
   113    22    23    1
   114    15    16    2
   115   136   137    1
   116    23    24    1
   117   138   137   ar
   118   106   109    1
   119   106   107    1
   120    25    24    2
   121   137   139   ar
   122   107   108    2
   123   113   112    2
   124   112   111    1
   125   111   114    1
   126   111   110    1
   127   114   115    1
   128   115   117   ar
   129   115   116   ar
