@<TRIPOS>MOLECULE
tmp/5upmA03.pdb
 122 118 0 0 0
SMALL
GASTEIGER

@<TRIPOS>ATOM
      1  N         21.5900    9.1490   41.7610 N.3   361  TYR361     -0.1227
      2  CA        22.7010    9.3690   40.8370 C.3   361  TYR361      0.1736
      3  C         24.0450    8.9430   41.4620 C.2   361  TYR361      0.2595
      4  O         24.7920    8.1700   40.8540 O.2   361  TYR361     -0.2718
      5  CB        22.7550   10.8030   40.2710 C.3   361  TYR361      0.0548
      6  CG        23.8360   10.9370   39.2310 C.ar  361  TYR361     -0.0200
      7  CD1       23.7570   10.2270   38.0190 C.ar  361  TYR361     -0.0009
      8  CD2       24.9470   11.7460   39.4500 C.ar  361  TYR361     -0.0009
      9  CE1       24.7540   10.3290   37.0600 C.ar  361  TYR361      0.0417
     10  CE2       25.9590   11.8500   38.4960 C.ar  361  TYR361      0.0417
     11  CZ        25.8490   11.1490   37.3010 C.ar  361  TYR361      0.1957
     12  OH        26.8550   11.2270   36.3650 O.3   361  TYR361     -0.2866
     13  N         24.3480    9.4250   42.6610 N.am  362  GLU362     -0.1979
     14  CA        25.6290    9.0380   43.2820 C.3   362  GLU362      0.1602
     15  C         25.6920    7.5550   43.6190 C.2   362  GLU362      0.2287
     16  O         26.7420    6.9280   43.4420 O.2   362  GLU362     -0.2864
     17  CB        25.9350    9.8770   44.5230 C.3   362  GLU362      0.0415
     18  CG        26.1350   11.3580   44.2370 C.3   362  GLU362      0.1163
     19  CD        27.1970   11.6480   43.1810 C.2   362  GLU362      0.3649
     20  OE1       28.2560   10.9800   43.1430 O.co2 362  GLU362     -0.2457
     21  OE2       26.9580   12.5590   42.3590 O.co2 362  GLU362     -0.2457
     22  N         26.3210    5.8480   40.2270 N.3   365  LYS365     -0.1245
     23  CA        27.7290    5.8280   39.8130 C.3   365  LYS365      0.1561
     24  C         28.5010    4.7220   40.5310 C.2   365  LYS365      0.2260
     25  O         29.3510    4.0720   39.9260 O.2   365  LYS365     -0.2867
     26  CB        28.4040    7.1760   40.0680 C.3   365  LYS365      0.0271
     27  CG        27.9180    8.2840   39.1260 C.3   365  LYS365      0.0035
     28  CD        28.5910    9.6190   39.4720 C.3   365  LYS365      0.0206
     29  CE        30.0600    9.7090   39.0180 C.3   365  LYS365      0.1093
     30  NZ        30.2320    9.6300   37.5250 N.3   365  LYS365     -0.1314
     31  N         19.5150   16.2320   41.1800 N.3   432  HIS432     -0.1241
     32  CA        19.4530   16.7380   39.7880 C.3   432  HIS432      0.1621
     33  C         18.0260   16.9020   39.2940 C.2   432  HIS432      0.2264
     34  O         17.7800   16.8560   38.0720 O.2   432  HIS432     -0.2867
     35  CB        20.2560   15.8060   38.8540 C.3   432  HIS432      0.0745
     36  CG        21.7140   15.8010   39.1590 C.ar  432  HIS432      0.0817
     37  ND1       22.5700   16.7530   38.6530 N.ar  432  HIS432     -0.2268
     38  CD2       22.4600   15.0150   39.9720 C.ar  432  HIS432      0.1154
     39  CE1       23.7970   16.5200   39.0930 C.ar  432  HIS432      0.1986
     40  NE2       23.7560   15.4770   39.9030 N.ar  432  HIS432     -0.2212
     41  N         22.6200   16.9720   28.2550 N.3   516  GLN516     -0.1245
     42  CA        24.0620   17.1270   28.4350 C.3   516  GLN516      0.1566
     43  C         24.8010   15.8000   28.2270 C.2   516  GLN516      0.2260
     44  O         25.5270   15.6720   27.2670 O.2   516  GLN516     -0.2867
     45  CB        24.3620   17.7090   29.8110 C.3   516  GLN516      0.0367
     46  CG        25.8660   17.8880   30.0810 C.3   516  GLN516      0.0905
     47  CD        26.0770   18.4810   31.4610 C.2   516  GLN516      0.2608
     48  OE1       26.4960   19.6280   31.6010 O.2   516  GLN516     -0.2717
     49  NE2       25.7400   17.7190   32.4860 N.am  516  GLN516     -0.0878
     50  N         27.0520   22.1490   35.9630 N.3   590  TRP590     -0.1241
     51  CA        27.7470   22.5560   37.1930 C.3   590  TRP590      0.1605
     52  C         29.0000   23.3270   36.8170 C.2   590  TRP590      0.2264
     53  O         29.4670   23.2360   35.6850 O.2   590  TRP590     -0.2867
     54  CB        28.0930   21.3320   38.0680 C.3   590  TRP590      0.0550
     55  CG        29.2450   20.5170   37.5870 C.ar  590  TRP590      0.0003
     56  CD1       30.5100   20.5310   38.1120 C.ar  590  TRP590      0.0946
     57  CD2       29.2890   19.6260   36.4520 C.ar  590  TRP590      0.0152
     58  NE1       31.3220   19.6740   37.4110 N.ar  590  TRP590     -0.2442
     59  CE2       30.6100   19.1090   36.3850 C.ar  590  TRP590      0.0810
     60  CE3       28.3380   19.1940   35.4990 C.ar  590  TRP590      0.0012
     61  CZ2       31.0260   18.1950   35.3930 C.ar  590  TRP590      0.0191
     62  CZ3       28.7460   18.2790   34.5100 C.ar  590  TRP590      0.0001
     63  CH2       30.0730   17.7790   34.4700 C.ar  590  TRP590      0.0015
     64  N         32.1040   14.7470   29.8270 N.3   600  ILE600     -0.1245
     65  CA        30.7260   14.4710   30.2500 C.3   600  ILE600      0.1561
     66  C         29.9160   13.7850   29.1270 C.2   600  ILE600      0.2260
     67  O         28.8730   13.1840   29.3890 O.2   600  ILE600     -0.2867
     68  CB        30.0220   15.7310   30.8190 C.3   600  ILE600      0.0252
     69  CG1       28.7190   15.3960   31.5730 C.3   600  ILE600      0.0019
     70  CG2       29.7290   16.7440   29.7070 C.3   600  ILE600      0.0019
     71  CD1       28.8680   14.4280   32.7370 C.3   600  ILE600      0.0001
     72  N         31.7290    9.7250   29.4480 N.3   603  LEU603     -0.1245
     73  CA        31.5870    8.8530   30.6240 C.3   603  LEU603      0.1561
     74  C         30.1610    8.2570   30.7640 C.2   603  LEU603      0.2260
     75  O         29.1790    8.8530   30.2840 O.2   603  LEU603     -0.2867
     76  CB        32.0140    9.6070   31.9000 C.3   603  LEU603      0.0270
     77  CG        31.0630   10.7070   32.4270 C.3   603  LEU603      0.0019
     78  CD1       29.9630   10.1400   33.3410 C.3   603  LEU603      0.0001
     79  CD2       31.8900   11.7180   33.2170 C.3   603  LEU603      0.0001
     80  N         39.7700   14.4750   35.9370 N.3   638  TRP638     -0.1241
     81  CA        39.3460   13.2680   35.2170 C.3   638  TRP638      0.1605
     82  C         40.3720   12.7690   34.2000 C.2   638  TRP638      0.2264
     83  O         39.9990   12.3220   33.1060 O.2   638  TRP638     -0.2867
     84  CB        38.0130   13.5450   34.4780 C.3   638  TRP638      0.0550
     85  CG        36.8360   13.9640   35.3290 C.ar  638  TRP638      0.0003
     86  CD1       36.7270   14.0100   36.7060 C.ar  638  TRP638      0.0946
     87  CD2       35.5590   14.3170   34.8130 C.ar  638  TRP638      0.0152
     88  NE1       35.4400   14.3940   37.0680 N.ar  638  TRP638     -0.2442
     89  CE2       34.7140   14.6040   35.9160 C.ar  638  TRP638      0.0810
     90  CE3       35.0510   14.4360   33.5060 C.ar  638  TRP638      0.0012
     91  CZ2       33.3880   15.0000   35.7540 C.ar  638  TRP638      0.0191
     92  CZ3       33.7240   14.8280   33.3350 C.ar  638  TRP638      0.0001
     93  CH2       32.9140   15.1280   34.4550 C.ar  638  TRP638      0.0015
     94  N         39.5040   14.2110   42.2410 N.3   673  GLU673     -0.1245
     95  CA        39.2110   13.5420   40.9660 C.3   673  GLU673      0.1567
     96  C         40.1940   13.9780   39.8760 C.2   673  GLU673      0.2260
     97  O         39.9250   13.8180   38.6920 O.2   673  GLU673     -0.2867
     98  CB        37.7560   13.8610   40.5300 C.3   673  GLU673      0.0388
     99  CG        36.7330   13.2600   41.4710 C.3   673  GLU673      0.1160
    100  CD        35.3080   13.3670   40.9540 C.2   673  GLU673      0.3649
    101  OE1       34.4440   13.8620   41.7120 O.co2 673  GLU673     -0.2457
    102  OE2       35.0410   12.9110   39.8280 O.co2 673  GLU673     -0.2457
    103  N         38.4040    9.8670   37.8530 N.3   677  GLU677     -0.1231
    104  CA        37.0250   10.3740   37.9850 C.3   677  GLU677      0.1699
    105  C         36.2430    9.4520   38.9490 C.2   677  GLU677      0.2592
    106  O         36.4930    8.2540   38.9900 O.2   677  GLU677     -0.2718
    107  CB        36.4000   10.4460   36.5780 C.3   677  GLU677      0.0402
    108  CG        34.9900   11.0430   36.5290 C.3   677  GLU677      0.1161
    109  CD        33.9060   10.0130   36.7430 C.2   677  GLU677      0.3649
    110  OE1       34.1180    8.8060   36.4560 O.co2 677  GLU677     -0.2457
    111  OE2       32.8170   10.4320   37.1830 O.co2 677  GLU677     -0.2457
    112  N         35.3220   10.0150   39.7400 N.am  678  ARG678     -0.1980
    113  CA        34.7940    9.2700   40.8940 C.3   678  ARG678      0.1597
    114  C         33.9020    8.0820   40.5440 C.2   678  ARG678      0.2287
    115  O         33.6710    7.2180   41.4030 O.2   678  ARG678     -0.2864
    116  CB        34.1060   10.2010   41.9040 C.3   678  ARG678      0.0334
    117  CG        32.7170   10.6780   41.4690 C.3   678  ARG678      0.0492
    118  CD        32.0860   11.4840   42.6030 C.3   678  ARG678      0.2205
    119  NE        30.7920   12.0690   42.2160 N.pl3 678  ARG678     -0.0865
    120  CZ        30.6470   13.2900   41.6940 C.cat 678  ARG678      0.5346
    121  NH1       29.4340   13.7460   41.4030 N.pl3 678  ARG678      0.1354
    122  NH2       31.7060   14.0700   41.4650 N.pl3 678  ARG678      0.1354
@<TRIPOS>BOND
     1    44    43    2
     2    43    42    1
     3    41    42    1
     4    42    45    1
     5    66    67    2
     6    66    65    1
     7    72    73    1
     8    70    68    1
     9    45    46    1
    10    64    65    1
    11    46    47    1
    12    65    68    1
    13    75    74    2
    14    73    74    1
    15    73    76    1
    16    68    69    1
    17    47    48    2
    18    47    49   am
    19    69    71    1
    20    76    77    1
    21    77    79    1
    22    77    78    1
    23    83    82    2
    24    92    90   ar
    25    92    93   ar
    26    90    87   ar
    27    82    81    1
    28    93    91   ar
    29    63    62   ar
    30    63    61   ar
    31    84    81    1
    32    84    85    1
    33    62    60   ar
    34    87    85   ar
    35    87    89   ar
    36    81    80    1
    37    85    86   ar
    38    61    59   ar
    39    60    57   ar
    40    53    52    2
    41    91    89   ar
    42    89    88   ar
    43    50    51    1
    44    12    11    1
    45    59    57   ar
    46    59    58   ar
    47    57    55   ar
    48   110   109   ar
    49   108   107    1
    50   108   109    1
    51   107   104    1
    52    86    88   ar
    53   109   111   ar
    54    52    51    1
    55     9    11   ar
    56     9     7   ar
    57    51    54    1
    58    11    10   ar
    59    58    56   ar
    60    30    29    1
    61    55    54    1
    62    55    56   ar
    63   103   104    1
    64   104   105    1
    65     7     6   ar
    66    34    33    2
    67    10     8   ar
    68    37    39   ar
    69    37    36   ar
    70    97    96    2
    71    35    36    1
    72    35    32    1
    73   105   106    2
    74   105   112   am
    75    29    28    1
    76    39    40   ar
    77    27    28    1
    78    27    26    1
    79    36    38   ar
    80     6     8   ar
    81     6     5    1
    82    33    32    1
    83   112   113    1
    84    32    31    1
    85    23    26    1
    86    23    22    1
    87    23    24    1
    88   102   100   ar
    89    96    95    1
    90    40    38   ar
    91    25    24    2
    92     5     2    1
    93    98    95    1
    94    98    99    1
    95   114   113    1
    96   114   115    2
    97     2     3    1
    98     2     1    1
    99     4     3    2
   100   113   116    1
   101   100    99    1
   102   100   101   ar
   103    95    94    1
   104   121   120    1
   105     3    13   am
   106   122   120    1
   107   117   116    1
   108   117   118    1
   109   120   119    2
   110   119   118    1
   111    21    19   ar
   112    13    14    1
   113    20    19   ar
   114    19    18    1
   115    14    15    1
   116    14    17    1
   117    16    15    2
   118    18    17    1
