@<TRIPOS>MOLECULE
tmp/5upmA01.pdb
 109 105 0 0 0
SMALL
GASTEIGER

@<TRIPOS>ATOM
      1  N         19.5150   16.2320   41.1800 N.3   432  HIS432     -0.1226
      2  CA        19.4530   16.7380   39.7880 C.3   432  HIS432      0.1752
      3  C         18.0260   16.9020   39.2940 C.2   432  HIS432      0.2596
      4  O         17.7800   16.8560   38.0720 O.2   432  HIS432     -0.2718
      5  CB        20.2560   15.8060   38.8540 C.3   432  HIS432      0.0759
      6  CG        21.7140   15.8010   39.1590 C.ar  432  HIS432      0.0818
      7  ND1       22.5700   16.7530   38.6530 N.ar  432  HIS432     -0.2268
      8  CD2       22.4600   15.0150   39.9720 C.ar  432  HIS432      0.1154
      9  CE1       23.7970   16.5200   39.0930 C.ar  432  HIS432      0.1986
     10  NE2       23.7560   15.4770   39.9030 N.ar  432  HIS432     -0.2212
     11  N         17.1080   17.0990   40.2510 N.am  433  SER433     -0.1952
     12  CA        15.6600   17.2620   40.0160 C.3   433  SER433      0.1924
     13  C         15.0480   16.0450   39.3150 C.2   433  SER433      0.2314
     14  O         14.0680   16.1650   38.5690 O.2   433  SER433     -0.2863
     15  CB        15.3860   18.5570   39.2580 C.3   433  SER433      0.2116
     16  OG        15.9360   19.6420   39.9780 O.3   433  SER433     -0.2180
     17  N         11.5110   17.5580   38.9010 N.3   437  ARG437     -0.1245
     18  CA        11.3520   17.9530   37.4960 C.3   437  ARG437      0.1563
     19  C         11.2620   16.7340   36.5660 C.2   437  ARG437      0.2260
     20  O         11.2170   16.9040   35.3580 O.2   437  ARG437     -0.2867
     21  CB        12.5090   18.8470   37.0230 C.3   437  ARG437      0.0307
     22  CG        12.5950   20.2280   37.6570 C.3   437  ARG437      0.0489
     23  CD        13.8210   20.9680   37.1030 C.3   437  ARG437      0.2205
     24  NE        13.5980   21.3710   35.7030 N.pl3 437  ARG437     -0.0865
     25  CZ        12.8690   22.4180   35.3320 C.cat 437  ARG437      0.5346
     26  NH1       12.3350   23.2310   36.2580 N.pl3 437  ARG437      0.1354
     27  NH2       12.7280   22.6870   34.0300 N.pl3 437  ARG437      0.1354
     28  N         13.5920   14.6790   35.9270 N.3   439  ASN439     -0.1225
     29  CA        14.8040   14.7260   35.1010 C.3   439  ASN439      0.1785
     30  C         15.5870   13.4270   35.1020 C.2   439  ASN439      0.2597
     31  O         15.5900   12.7070   36.0940 O.2   439  ASN439     -0.2718
     32  CB        15.7680   15.7860   35.6160 C.3   439  ASN439      0.1169
     33  CG        15.3300   17.2020   35.3010 C.2   439  ASN439      0.2627
     34  OD1       14.2810   17.4380   34.7000 O.2   439  ASN439     -0.2716
     35  ND2       16.1260   18.1580   35.7540 N.am  439  ASN439     -0.0877
     36  N         16.2750   13.1490   33.9900 N.am  440  ASP440     -0.1974
     37  CA        17.4470   12.2610   34.0210 C.3   440  ASP440      0.1709
     38  C         17.1410   10.7990   34.3850 C.2   440  ASP440      0.2293
     39  O         18.0280   10.1120   34.8650 O.2   440  ASP440     -0.2864
     40  CB        18.5090   12.7940   35.0310 C.3   440  ASP440      0.1436
     41  CG        19.0690   14.1470   34.6670 C.2   440  ASP440      0.3671
     42  OD1       18.7090   14.7090   33.6040 O.co2 440  ASP440     -0.2456
     43  OD2       19.8890   14.6460   35.4750 O.co2 440  ASP440     -0.2456
     44  N         19.5880    8.5240   32.7590 N.3   443  PHE443     -0.1241
     45  CA        20.9400    8.6450   33.3390 C.3   443  PHE443      0.1605
     46  C         21.0150    7.8650   34.6610 C.2   443  PHE443      0.2264
     47  O         21.9410    7.0590   34.8530 O.2   443  PHE443     -0.2867
     48  CB        21.3370   10.0950   33.6390 C.3   443  PHE443      0.0534
     49  CG        21.3690   11.0080   32.4350 C.ar  443  PHE443     -0.0203
     50  CD1       21.5450   10.5140   31.1300 C.ar  443  PHE443     -0.0042
     51  CD2       21.2580   12.3870   32.6250 C.ar  443  PHE443     -0.0042
     52  CE1       21.5940   11.3880   30.0400 C.ar  443  PHE443     -0.0003
     53  CE2       21.3070   13.2680   31.5310 C.ar  443  PHE443     -0.0003
     54  CZ        21.4830   12.7630   30.2450 C.ar  443  PHE443     -0.0000
     55  N         16.7180   15.3850   28.5430 N.3   503  ALA503     -0.1231
     56  CA        16.9280   15.0790   29.9630 C.3   503  ALA503      0.1694
     57  C         15.9470   15.7430   30.9290 C.2   503  ALA503      0.2592
     58  O         15.6820   15.2030   32.0010 O.2   503  ALA503     -0.2718
     59  CB        18.3710   15.4020   30.3400 C.3   503  ALA503      0.0304
     60  N         15.3810   16.8840   30.5550 N.am  504  ASP504     -0.1974
     61  CA        14.5500   17.6230   31.5230 C.3   504  ASP504      0.1709
     62  C         13.0910   17.1820   31.3860 C.2   504  ASP504      0.2293
     63  O         12.5540   17.1730   30.2860 O.2   504  ASP504     -0.2864
     64  CB        14.6730   19.1280   31.3210 C.3   504  ASP504      0.1436
     65  CG        14.1440   19.9010   32.5040 C.2   504  ASP504      0.3671
     66  OD1       14.9640   20.2360   33.3950 O.co2 504  ASP504     -0.2456
     67  OD2       12.9260   20.1650   32.5400 O.co2 504  ASP504     -0.2456
     68  N         12.2580   26.0080   29.8260 N.3   509  PHE509     -0.1241
     69  CA        13.3480   26.8920   29.4490 C.3   509  PHE509      0.1605
     70  C         12.9920   27.5020   28.1140 C.2   509  PHE509      0.2264
     71  O         12.3480   26.8450   27.2770 O.2   509  PHE509     -0.2867
     72  CB        14.6390   26.1120   29.2250 C.3   509  PHE509      0.0534
     73  CG        15.0230   25.2160   30.3660 C.ar  509  PHE509     -0.0203
     74  CD1       15.7200   25.7190   31.4580 C.ar  509  PHE509     -0.0042
     75  CD2       14.7160   23.8460   30.3260 C.ar  509  PHE509     -0.0042
     76  CE1       16.0920   24.8790   32.5110 C.ar  509  PHE509     -0.0003
     77  CE2       15.0980   22.9950   31.3780 C.ar  509  PHE509     -0.0003
     78  CZ        15.7760   23.5250   32.4770 C.ar  509  PHE509     -0.0000
     79  N         16.7630   20.0500   26.8770 N.3   514  ASN514     -0.1240
     80  CA        18.2210   19.9110   26.7160 C.3   514  ASN514      0.1653
     81  C         18.6700   18.4830   27.0190 C.2   514  ASN514      0.2266
     82  O         17.9510   17.7480   27.6780 O.2   514  ASN514     -0.2867
     83  CB        18.9750   20.8920   27.6570 C.3   514  ASN514      0.1155
     84  CG        18.8780   20.4990   29.1330 C.2   514  ASN514      0.2627
     85  OD1       19.7440   19.7750   29.6530 O.2   514  ASN514     -0.2716
     86  ND2       17.8430   20.9940   29.8250 N.am  514  ASN514     -0.0877
     87  N         22.6200   16.9720   28.2550 N.3   516  GLN516     -0.1245
     88  CA        24.0620   17.1270   28.4350 C.3   516  GLN516      0.1566
     89  C         24.8010   15.8000   28.2270 C.2   516  GLN516      0.2260
     90  O         25.5270   15.6720   27.2670 O.2   516  GLN516     -0.2867
     91  CB        24.3620   17.7090   29.8110 C.3   516  GLN516      0.0367
     92  CG        25.8660   17.8880   30.0810 C.3   516  GLN516      0.0905
     93  CD        26.0770   18.4810   31.4610 C.2   516  GLN516      0.2608
     94  OE1       26.4960   19.6280   31.6010 O.2   516  GLN516     -0.2717
     95  NE2       25.7400   17.7190   32.4860 N.am  516  GLN516     -0.0878
     96  N         26.2460   21.8200   33.3810 N.3   589  TRP589     -0.1241
     97  CA        25.2170   22.1470   34.3540 C.3   589  TRP589      0.1605
     98  C         25.7730   22.4560   35.7430 C.2   589  TRP589      0.2264
     99  O         25.0310   22.9460   36.5930 O.2   589  TRP589     -0.2867
    100  CB        24.1930   21.0140   34.4520 C.3   589  TRP589      0.0550
    101  CG        23.0680   21.1490   33.4580 C.ar  589  TRP589      0.0003
    102  CD1       22.7680   20.3020   32.3980 C.ar  589  TRP589      0.0946
    103  CD2       22.1020   22.1980   33.4200 C.ar  589  TRP589      0.0152
    104  NE1       21.6470   20.7700   31.7320 N.ar  589  TRP589     -0.2442
    105  CE2       21.2310   21.9320   32.3290 C.ar  589  TRP589      0.0810
    106  CE3       21.8860   23.3490   34.2050 C.ar  589  TRP589      0.0012
    107  CZ2       20.1460   22.7670   32.0120 C.ar  589  TRP589      0.0191
    108  CZ3       20.7990   24.1840   33.8910 C.ar  589  TRP589      0.0001
    109  CH2       19.9490   23.8790   32.8020 C.ar  589  TRP589      0.0015
@<TRIPOS>BOND
     1    80    79    1
     2    80    81    1
     3    80    83    1
     4    81    82    2
     5    90    89    2
     6    71    70    2
     7    83    84    1
     8    70    69    1
     9    89    88    1
    10    87    88    1
    11    88    91    1
    12    55    56    1
    13    84    85    2
    14    84    86   am
    15    72    69    1
    16    72    73    1
    17    69    68    1
    18    91    92    1
    19    56    59    1
    20    56    57    1
    21    52    54   ar
    22    52    50   ar
    23    92    93    1
    24    54    53   ar
    25    63    62    2
    26    75    73   ar
    27    75    77   ar
    28    73    74   ar
    29    60    57   am
    30    60    61    1
    31    57    58    2
    32    50    49   ar
    33    64    61    1
    34    64    65    1
    35    77    78   ar
    36    62    61    1
    37    74    76   ar
    38    93    94    2
    39    93    95   am
    40    53    51   ar
    41   104   105   ar
    42   104   102   ar
    43   107   105   ar
    44   107   109   ar
    45   105   103   ar
    46   102   101   ar
    47    49    51   ar
    48    49    48    1
    49    78    76   ar
    50    65    67   ar
    51    65    66   ar
    52    44    45    1
    53   109   108   ar
    54    45    48    1
    55    45    46    1
    56    96    97    1
    57   103   101   ar
    58   103   106   ar
    59   101   100    1
    60    42    41   ar
    61   108   106   ar
    62    36    37    1
    63    36    30   am
    64    37    38    1
    65    37    40    1
    66    27    25    1
    67    97   100    1
    68    97    98    1
    69    38    39    2
    70    46    47    2
    71    41    40    1
    72    41    43   ar
    73    34    33    2
    74    29    30    1
    75    29    32    1
    76    29    28    1
    77    30    31    2
    78    33    32    1
    79    33    35   am
    80    25    24    2
    81    25    26    1
    82    20    19    2
    83    24    23    1
    84    98    99    2
    85    19    18    1
    86    21    18    1
    87    21    22    1
    88    23    22    1
    89    18    17    1
    90     4     3    2
    91    14    13    2
    92     7     9   ar
    93     7     6   ar
    94     5     6    1
    95     5     2    1
    96     9    10   ar
    97     6     8   ar
    98    15    16    1
    99    15    12    1
   100     3     2    1
   101     3    11   am
   102    13    12    1
   103     2     1    1
   104    10     8   ar
   105    12    11    1
