@<TRIPOS>MOLECULE
tmp/5upmA02.pdb
 111 111 0 0 0
SMALL
GASTEIGER

@<TRIPOS>ATOM
      1  N         21.5900    9.1490   41.7610 N.3   361  TYR361     -0.1241
      2  CA        22.7010    9.3690   40.8370 C.3   361  TYR361      0.1605
      3  C         24.0450    8.9430   41.4620 C.2   361  TYR361      0.2264
      4  O         24.7920    8.1700   40.8540 O.2   361  TYR361     -0.2867
      5  CB        22.7550   10.8030   40.2710 C.3   361  TYR361      0.0534
      6  CG        23.8360   10.9370   39.2310 C.ar  361  TYR361     -0.0201
      7  CD1       23.7570   10.2270   38.0190 C.ar  361  TYR361     -0.0009
      8  CD2       24.9470   11.7460   39.4500 C.ar  361  TYR361     -0.0009
      9  CE1       24.7540   10.3290   37.0600 C.ar  361  TYR361      0.0417
     10  CE2       25.9590   11.8500   38.4960 C.ar  361  TYR361      0.0417
     11  CZ        25.8490   11.1490   37.3010 C.ar  361  TYR361      0.1957
     12  OH        26.8550   11.2270   36.3650 O.3   361  TYR361     -0.2866
     13  N         19.5150   16.2320   41.1800 N.3   432  HIS432     -0.1241
     14  CA        19.4530   16.7380   39.7880 C.3   432  HIS432      0.1621
     15  C         18.0260   16.9020   39.2940 C.2   432  HIS432      0.2264
     16  O         17.7800   16.8560   38.0720 O.2   432  HIS432     -0.2867
     17  CB        20.2560   15.8060   38.8540 C.3   432  HIS432      0.0745
     18  CG        21.7140   15.8010   39.1590 C.ar  432  HIS432      0.0817
     19  ND1       22.5700   16.7530   38.6530 N.ar  432  HIS432     -0.2268
     20  CD2       22.4600   15.0150   39.9720 C.ar  432  HIS432      0.1154
     21  CE1       23.7970   16.5200   39.0930 C.ar  432  HIS432      0.1986
     22  NE2       23.7560   15.4770   39.9030 N.ar  432  HIS432     -0.2212
     23  N         16.2750   13.1490   33.9900 N.3   440  ASP440     -0.1239
     24  CA        17.4470   12.2610   34.0210 C.3   440  ASP440      0.1674
     25  C         17.1410   10.7990   34.3850 C.2   440  ASP440      0.2266
     26  O         18.0280   10.1120   34.8650 O.2   440  ASP440     -0.2867
     27  CB        18.5090   12.7940   35.0310 C.3   440  ASP440      0.1410
     28  CG        19.0690   14.1470   34.6670 C.2   440  ASP440      0.3668
     29  OD1       18.7090   14.7090   33.6040 O.co2 440  ASP440     -0.2456
     30  OD2       19.8890   14.6460   35.4750 O.co2 440  ASP440     -0.2456
     31  N         19.5880    8.5240   32.7590 N.3   443  PHE443     -0.1227
     32  CA        20.9400    8.6450   33.3390 C.3   443  PHE443      0.1736
     33  C         21.0150    7.8650   34.6610 C.2   443  PHE443      0.2595
     34  O         21.9410    7.0590   34.8530 O.2   443  PHE443     -0.2718
     35  CB        21.3370   10.0950   33.6390 C.3   443  PHE443      0.0547
     36  CG        21.3690   11.0080   32.4350 C.ar  443  PHE443     -0.0202
     37  CD1       21.5450   10.5140   31.1300 C.ar  443  PHE443     -0.0042
     38  CD2       21.2580   12.3870   32.6250 C.ar  443  PHE443     -0.0042
     39  CE1       21.5940   11.3880   30.0400 C.ar  443  PHE443     -0.0003
     40  CE2       21.3070   13.2680   31.5310 C.ar  443  PHE443     -0.0003
     41  CZ        21.4830   12.7630   30.2450 C.ar  443  PHE443     -0.0000
     42  N         20.0510    8.0990   35.5540 N.am  444  HIS444     -0.1975
     43  CA        20.1310    7.4720   36.8810 C.3   444  HIS444      0.1656
     44  C         19.7780    5.9900   36.8140 C.2   444  HIS444      0.2291
     45  O         20.5510    5.1380   37.3010 O.2   444  HIS444     -0.2864
     46  CB        19.1850    8.1370   37.9020 C.3   444  HIS444      0.0771
     47  CG        19.4890    9.5680   38.1960 C.ar  444  HIS444      0.0820
     48  ND1       19.0720   10.1730   39.3610 N.ar  444  HIS444     -0.2267
     49  CD2       20.1560   10.5190   37.4890 C.ar  444  HIS444      0.1154
     50  CE1       19.4430   11.4400   39.3510 C.ar  444  HIS444      0.1986
     51  NE2       20.1220   11.6700   38.2350 N.ar  444  HIS444     -0.2212
     52  N         22.6200   16.9720   28.2550 N.3   516  GLN516     -0.1231
     53  CA        24.0620   17.1270   28.4350 C.3   516  GLN516      0.1698
     54  C         24.8010   15.8000   28.2270 C.2   516  GLN516      0.2592
     55  O         25.5270   15.6720   27.2670 O.2   516  GLN516     -0.2718
     56  CB        24.3620   17.7090   29.8110 C.3   516  GLN516      0.0381
     57  CG        25.8660   17.8880   30.0810 C.3   516  GLN516      0.0905
     58  CD        26.0770   18.4810   31.4610 C.2   516  GLN516      0.2608
     59  OE1       26.4960   19.6280   31.6010 O.2   516  GLN516     -0.2717
     60  NE2       25.7400   17.7190   32.4860 N.am  516  GLN516     -0.0878
     61  N         24.6270   14.8160   29.1110 N.am  517  SER517     -0.1952
     62  CA        25.4370   13.6050   28.9840 C.3   517  SER517      0.1924
     63  C         24.8220   12.6180   28.0020 C.2   517  SER517      0.2314
     64  O         24.1170   11.6990   28.4010 O.2   517  SER517     -0.2863
     65  CB        25.6880   12.9270   30.3370 C.3   517  SER517      0.2116
     66  OG        26.5130   11.7880   30.0970 O.3   517  SER517     -0.2180
     67  N         25.6730    9.0560   28.9950 N.3   520  GLU520     -0.1245
     68  CA        24.8610    8.3660   30.0220 C.3   520  GLU520      0.1567
     69  C         23.5220    7.8940   29.4450 C.2   520  GLU520      0.2260
     70  O         22.9720    6.9170   29.9340 O.2   520  GLU520     -0.2867
     71  CB        24.7110    9.2250   31.2860 C.3   520  GLU520      0.0388
     72  CG        25.9520    9.0910   32.1820 C.3   520  GLU520      0.1160
     73  CD        25.8860    9.9330   33.4310 C.2   520  GLU520      0.3649
     74  OE1       25.1430   10.9450   33.4540 O.co2 520  GLU520     -0.2457
     75  OE2       26.5850    9.5870   34.4270 O.co2 520  GLU520     -0.2457
     76  N         26.2460   21.8200   33.3810 N.3   589  TRP589     -0.1227
     77  CA        25.2170   22.1470   34.3540 C.3   589  TRP589      0.1737
     78  C         25.7730   22.4560   35.7430 C.2   589  TRP589      0.2595
     79  O         25.0310   22.9460   36.5930 O.2   589  TRP589     -0.2718
     80  CB        24.1930   21.0140   34.4520 C.3   589  TRP589      0.0564
     81  CG        23.0680   21.1490   33.4580 C.ar  589  TRP589      0.0003
     82  CD1       22.7680   20.3020   32.3980 C.ar  589  TRP589      0.0946
     83  CD2       22.1020   22.1980   33.4200 C.ar  589  TRP589      0.0152
     84  NE1       21.6470   20.7700   31.7320 N.ar  589  TRP589     -0.2442
     85  CE2       21.2310   21.9320   32.3290 C.ar  589  TRP589      0.0810
     86  CE3       21.8860   23.3490   34.2050 C.ar  589  TRP589      0.0012
     87  CZ2       20.1460   22.7670   32.0120 C.ar  589  TRP589      0.0191
     88  CZ3       20.7990   24.1840   33.8910 C.ar  589  TRP589      0.0001
     89  CH2       19.9490   23.8790   32.8020 C.ar  589  TRP589      0.0015
     90  N         27.0520   22.1490   35.9630 N.am  590  TRP590     -0.1976
     91  CA        27.7470   22.5560   37.1930 C.3   590  TRP590      0.1640
     92  C         29.0000   23.3270   36.8170 C.2   590  TRP590      0.2290
     93  O         29.4670   23.2360   35.6850 O.2   590  TRP590     -0.2864
     94  CB        28.0930   21.3320   38.0680 C.3   590  TRP590      0.0576
     95  CG        29.2450   20.5170   37.5870 C.ar  590  TRP590      0.0006
     96  CD1       30.5100   20.5310   38.1120 C.ar  590  TRP590      0.0946
     97  CD2       29.2890   19.6260   36.4520 C.ar  590  TRP590      0.0152
     98  NE1       31.3220   19.6740   37.4110 N.ar  590  TRP590     -0.2442
     99  CE2       30.6100   19.1090   36.3850 C.ar  590  TRP590      0.0810
    100  CE3       28.3380   19.1940   35.4990 C.ar  590  TRP590      0.0012
    101  CZ2       31.0260   18.1950   35.3930 C.ar  590  TRP590      0.0191
    102  CZ3       28.7460   18.2790   34.5100 C.ar  590  TRP590      0.0001
    103  CH2       30.0730   17.7790   34.4700 C.ar  590  TRP590      0.0015
    104  N         32.1040   14.7470   29.8270 N.3   600  ILE600     -0.1245
    105  CA        30.7260   14.4710   30.2500 C.3   600  ILE600      0.1561
    106  C         29.9160   13.7850   29.1270 C.2   600  ILE600      0.2260
    107  O         28.8730   13.1840   29.3890 O.2   600  ILE600     -0.2867
    108  CB        30.0220   15.7310   30.8190 C.3   600  ILE600      0.0252
    109  CG1       28.7190   15.3960   31.5730 C.3   600  ILE600      0.0019
    110  CG2       29.7290   16.7440   29.7070 C.3   600  ILE600      0.0019
    111  CD1       28.8680   14.4280   32.7370 C.3   600  ILE600      0.0001
@<TRIPOS>BOND
     1    55    54    2
     2    63    64    2
     3    63    62    1
     4    54    53    1
     5    54    61   am
     6    52    53    1
     7    53    56    1
     8    62    61    1
     9    62    65    1
    10    67    68    1
    11   106   107    2
    12   106   105    1
    13    69    70    2
    14    69    68    1
    15   110   108    1
    16    56    57    1
    17   104   105    1
    18    68    71    1
    19    39    41   ar
    20    39    37   ar
    21    57    58    1
    22    66    65    1
    23    41    40   ar
    24   105   108    1
    25   108   109    1
    26    37    36   ar
    27    71    72    1
    28    58    59    2
    29    58    60   am
    30    40    38   ar
    31   109   111    1
    32    84    85   ar
    33    84    82   ar
    34    87    85   ar
    35    87    89   ar
    36    72    73    1
    37    85    83   ar
    38    82    81   ar
    39    36    38   ar
    40    36    35    1
    41    31    32    1
    42    89    88   ar
    43    32    35    1
    44    32    33    1
    45    76    77    1
    46    83    81   ar
    47    83    86   ar
    48    73    74   ar
    49    73    75   ar
    50    81    80    1
    51    29    28   ar
    52    88    86   ar
    53    23    24    1
    54    24    25    1
    55    24    27    1
    56    77    80    1
    57    77    78    1
    58    25    26    2
    59   103   102   ar
    60   103   101   ar
    61   102   100   ar
    62    33    34    2
    63    33    42   am
    64    28    27    1
    65    28    30   ar
    66   101    99   ar
    67   100    97   ar
    68    42    43    1
    69    93    92    2
    70    78    90   am
    71    78    79    2
    72    90    91    1
    73    12    11    1
    74    99    97   ar
    75    99    98   ar
    76    97    95   ar
    77    44    43    1
    78    44    45    2
    79    92    91    1
    80    43    46    1
    81     9    11   ar
    82     9     7   ar
    83    91    94    1
    84    11    10   ar
    85    98    96   ar
    86    49    47   ar
    87    49    51   ar
    88    95    94    1
    89    95    96   ar
    90    46    47    1
    91     7     6   ar
    92    16    15    2
    93    47    48   ar
    94    51    50   ar
    95    10     8   ar
    96    19    21   ar
    97    19    18   ar
    98    17    18    1
    99    17    14    1
   100    21    22   ar
   101    18    20   ar
   102     6     8   ar
   103     6     5    1
   104    15    14    1
   105    50    48   ar
   106    14    13    1
   107    22    20   ar
   108     5     2    1
   109     2     3    1
   110     2     1    1
   111     4     3    2
