@<TRIPOS>MOLECULE
tmp/5uptA02.pdb
 96 96 0 0 0
SMALL
GASTEIGER

@<TRIPOS>ATOM
      1  N         16.9830   58.9560   29.6880 N.3    86  TRP86      -0.1227
      2  CA        16.2140   59.6070   28.6550 C.3    86  TRP86       0.1737
      3  C         14.9870   60.3370   29.2110 C.2    86  TRP86       0.2595
      4  O         14.3930   61.1260   28.5130 O.2    86  TRP86      -0.2718
      5  CB        15.8100   58.6470   27.5410 C.3    86  TRP86       0.0564
      6  CG        14.9460   57.5070   27.9570 C.ar   86  TRP86       0.0003
      7  CD1       15.3470   56.2370   28.2650 C.ar   86  TRP86       0.0946
      8  CD2       13.5300   57.5150   28.0810 C.ar   86  TRP86       0.0152
      9  NE1       14.2670   55.4650   28.5750 N.ar   86  TRP86      -0.2442
     10  CE2       13.1390   56.2230   28.4750 C.ar   86  TRP86       0.0810
     11  CE3       12.5510   58.4780   27.8650 C.ar   86  TRP86       0.0012
     12  CZ2       11.8140   55.8820   28.6910 C.ar   86  TRP86       0.0191
     13  CZ3       11.2310   58.1350   28.0690 C.ar   86  TRP86       0.0001
     14  CH2       10.8810   56.8560   28.5020 C.ar   86  TRP86       0.0015
     15  N         14.6360   60.0870   30.4590 N.am   87  ARG87      -0.1980
     16  CA        13.5250   60.8210   31.0820 C.3    87  ARG87       0.1597
     17  C         13.9800   62.0610   31.8330 C.2    87  ARG87       0.2287
     18  O         13.1570   62.6900   32.4800 O.2    87  ARG87      -0.2864
     19  CB        12.7580   59.9230   32.0510 C.3    87  ARG87       0.0334
     20  CG        12.0390   58.7420   31.4020 C.3    87  ARG87       0.0492
     21  CD        11.6540   57.6800   32.4410 C.3    87  ARG87       0.2205
     22  NE        10.3560   57.0670   32.1460 N.pl3  87  ARG87      -0.0865
     23  CZ         9.6100   56.3950   33.0260 C.cat  87  ARG87       0.5346
     24  NH1        8.4470   55.8870   32.6360 N.pl3  87  ARG87       0.1354
     25  NH2       10.0070   56.2210   34.2910 N.pl3  87  ARG87       0.1354
     26  N         14.9250   44.5220   27.5790 N.3   207  SER207     -0.1202
     27  CA        13.7130   45.2010   27.9360 C.3   207  SER207      0.2020
     28  C         13.8710   46.0100   29.2160 C.2   207  SER207      0.2619
     29  O         12.9480   46.7540   29.5960 O.2   207  SER207     -0.2717
     30  CB        12.5620   44.1940   28.0630 C.3   207  SER207      0.2103
     31  OG        12.8830   43.1500   28.9410 O.3   207  SER207     -0.2182
     32  N         15.0540   45.9520   29.8310 N.am  208  GLY208     -0.1942
     33  CA        15.3790   46.8520   30.9630 C.3   208  GLY208      0.1998
     34  C         16.0570   48.1180   30.4360 C.2   208  GLY208      0.2480
     35  O         16.6110   48.1120   29.3330 O.2   208  GLY208     -0.2729
     36  N         16.0550   49.2060   31.2020 N.am  209  PRO209     -0.2726
     37  CA        16.6960   50.4070   30.6490 C.3   209  PRO209      0.1402
     38  C         18.2090   50.3480   30.6590 C.2   209  PRO209      0.2269
     39  O         18.8240   50.0530   31.6970 O.2   209  PRO209     -0.2865
     40  CB        16.2360   51.5170   31.6110 C.3   209  PRO209      0.0296
     41  CG        16.0000   50.8070   32.9020 C.3   209  PRO209      0.0237
     42  CD        15.4470   49.4700   32.5260 C.3   209  PRO209      0.0939
     43  N         20.1870   52.7450   30.6710 N.3   210  PHE210     -0.1241
     44  CA        20.7340   53.7750   31.5560 C.3   210  PHE210      0.1605
     45  C         20.9550   53.2880   32.9770 C.2   210  PHE210      0.2264
     46  O         21.4890   54.0160   33.8280 O.2   210  PHE210     -0.2867
     47  CB        19.8790   55.0470   31.5710 C.3   210  PHE210      0.0534
     48  CG        18.4690   54.8640   32.0470 C.ar  210  PHE210     -0.0203
     49  CD1       18.1910   54.5850   33.3830 C.ar  210  PHE210     -0.0042
     50  CD2       17.4160   55.0630   31.1820 C.ar  210  PHE210     -0.0042
     51  CE1       16.8970   54.4570   33.8200 C.ar  210  PHE210     -0.0003
     52  CE2       16.0940   54.9360   31.6130 C.ar  210  PHE210     -0.0003
     53  CZ        15.8420   54.6300   32.9400 C.ar  210  PHE210     -0.0000
     54  N         11.5550   50.6390   24.3410 N.3   232  ARG232     -0.1231
     55  CA        11.1210   50.5760   25.7100 C.3   232  ARG232      0.1694
     56  C         10.0040   49.4850   25.8030 C.2   232  ARG232      0.2591
     57  O          9.6150   48.8700   24.8060 O.2   232  ARG232     -0.2718
     58  CB        10.5640   51.9390   26.1200 C.3   232  ARG232      0.0321
     59  CG         9.2930   52.2950   25.3350 C.3   232  ARG232      0.0489
     60  CD         8.7630   53.6880   25.6960 C.3   232  ARG232      0.2205
     61  NE         8.5450   53.8830   27.1420 N.pl3 232  ARG232     -0.0865
     62  CZ         7.8940   54.9290   27.6630 C.cat 232  ARG232      0.5346
     63  NH1        7.3900   55.8750   26.8710 N.pl3 232  ARG232      0.1354
     64  NH2        7.7410   55.0350   28.9750 N.pl3 232  ARG232      0.1354
     65  N          9.4570   49.3060   26.9980 N.am  233  VAL233     -0.1980
     66  CA         8.4920   48.2580   27.2290 C.3   233  VAL233      0.1595
     67  C          7.1240   48.6540   26.7640 C.2   233  VAL233      0.2287
     68  O          6.5410   49.6110   27.2750 O.2   233  VAL233     -0.2864
     69  CB         8.4190   47.9000   28.7130 C.3   233  VAL233      0.0276
     70  CG1        7.2740   46.9410   28.9650 C.3   233  VAL233      0.0022
     71  CG2        9.7260   47.2700   29.1620 C.3   233  VAL233      0.0022
     72  N         14.4870   41.1070   30.7800 N.3   251  PHE251     -0.1241
     73  CA        14.4530   41.9070   32.0270 C.3   251  PHE251      0.1605
     74  C         13.0520   42.4690   32.1590 C.2   251  PHE251      0.2264
     75  O         12.6890   43.4060   31.4140 O.2   251  PHE251     -0.2867
     76  CB        15.4920   43.0330   31.9580 C.3   251  PHE251      0.0534
     77  CG        15.7170   43.7320   33.2510 C.ar  251  PHE251     -0.0203
     78  CD1       16.8140   43.4310   34.0210 C.ar  251  PHE251     -0.0042
     79  CD2       14.8330   44.6940   33.6910 C.ar  251  PHE251     -0.0042
     80  CE1       17.0520   44.0810   35.2060 C.ar  251  PHE251     -0.0003
     81  CE2       15.0460   45.3680   34.9010 C.ar  251  PHE251     -0.0003
     82  CZ        16.1780   45.0630   35.6430 C.ar  251  PHE251     -0.0000
     83  N          4.6750   43.7160   37.0680 N.3   254  PRO254     -0.2102
     84  CA         3.4660   44.2330   36.4030 C.3   254  PRO254      0.1504
     85  C          3.5000   43.9630   34.8840 C.2   254  PRO254      0.2576
     86  O          2.4850   43.7440   34.2840 O.2   254  PRO254     -0.2718
     87  CB         3.5290   45.7510   36.6650 C.3   254  PRO254      0.0282
     88  CG         4.3670   45.8830   37.9090 C.3   254  PRO254      0.0208
     89  CD         5.4020   44.7860   37.7760 C.3   254  PRO254      0.0893
     90  N          4.6960   43.9920   34.3050 N.am  255  THR255     -0.1953
     91  CA         4.8660   43.7220   32.8740 C.3   255  THR255      0.1897
     92  C          4.5910   42.2580   32.5710 C.2   255  THR255      0.2313
     93  O          3.8820   41.9640   31.6170 O.2   255  THR255     -0.2863
     94  CB         6.2330   44.1270   32.3700 C.3   255  THR255      0.1794
     95  OG1        6.5190   45.4750   32.7510 O.3   255  THR255     -0.2208
     96  CG2        6.2930   43.9870   30.8410 C.3   255  THR255      0.0378
@<TRIPOS>BOND
     1    54    55    1
     2    57    56    2
     3    59    60    1
     4    59    58    1
     5    60    61    1
     6    55    56    1
     7    55    58    1
     8    56    65   am
     9    67    66    1
    10    67    68    2
    11    63    62    1
    12    65    66    1
    13    61    62    2
    14    66    69    1
    15     5     6    1
    16     5     2    1
    17    26    27    1
    18    62    64    1
    19    11    13   ar
    20    11     8   ar
    21    27    30    1
    22    27    28    1
    23     6     8   ar
    24     6     7   ar
    25    30    31    1
    26    13    14   ar
    27     8    10   ar
    28     7     9   ar
    29    10     9   ar
    30    10    12   ar
    31    14    12   ar
    32     4     3    2
    33     2     3    1
    34     2     1    1
    35    69    70    1
    36    69    71    1
    37     3    15   am
    38    28    29    2
    39    28    32   am
    40    35    34    2
    41    32    33    1
    42    34    33    1
    43    34    36   am
    44    15    16    1
    45    37    38    1
    46    37    36    1
    47    37    40    1
    48    38    39    2
    49    43    44    1
    50    72    73    1
    51    96    94    1
    52    16    17    1
    53    16    19    1
    54    50    52   ar
    55    50    48   ar
    56    36    42    1
    57    20    19    1
    58    20    21    1
    59    75    74    2
    60    44    47    1
    61    44    45    1
    62    47    48    1
    63    40    41    1
    64    52    53   ar
    65    93    92    2
    66    17    18    2
    67    76    73    1
    68    76    77    1
    69    73    74    1
    70    48    49   ar
    71    22    21    1
    72    22    23    2
    73    94    95    1
    74    94    91    1
    75    42    41    1
    76    92    91    1
    77    24    23    1
    78    91    90    1
    79    53    51   ar
    80    45    46    2
    81    23    25    1
    82    77    79   ar
    83    77    78   ar
    84    49    51   ar
    85    79    81   ar
    86    78    80   ar
    87    86    85    2
    88    90    85   am
    89    85    84    1
    90    81    82   ar
    91    80    82   ar
    92    84    87    1
    93    84    83    1
    94    87    88    1
    95    83    89    1
    96    89    88    1
