@<TRIPOS>MOLECULE
tmp/5uptA00.pdb
 125 122 0 0 0
SMALL
GASTEIGER

@<TRIPOS>ATOM
      1  N         20.5620   52.0470   33.2240 N.3   211  HIS211     -0.1226
      2  CA        20.6480   51.4430   34.5610 C.3   211  HIS211      0.1752
      3  C         21.3770   50.0960   34.4810 C.2   211  HIS211      0.2596
      4  O         21.3000   49.4020   33.4820 O.2   211  HIS211     -0.2718
      5  CB        19.2070   51.3290   35.0780 C.3   211  HIS211      0.0759
      6  CG        19.0610   50.6420   36.4050 C.ar  211  HIS211      0.0818
      7  ND1       18.8570   49.2860   36.5110 N.ar  211  HIS211     -0.2268
      8  CD2       18.9780   51.1320   37.6670 C.ar  211  HIS211      0.1154
      9  CE1       18.7610   48.9490   37.7890 C.ar  211  HIS211      0.1986
     10  NE2       18.7960   50.0580   38.5110 N.ar  211  HIS211     -0.2212
     11  N         22.0910   49.7380   35.5560 N.am  212  ILE212     -0.1966
     12  CA        23.0290   48.6290   35.5590 C.3   212  ILE212      0.1727
     13  C         22.3020   47.2710   35.4230 C.2   212  ILE212      0.2616
     14  O         22.9050   46.3200   34.9400 O.2   212  ILE212     -0.2715
     15  CB        23.9010   48.6830   36.8170 C.3   212  ILE212      0.0290
     16  CG1       25.0590   47.7060   36.7730 C.3   212  ILE212      0.0022
     17  CG2       23.0700   48.4140   38.0670 C.3   212  ILE212      0.0023
     18  CD1       26.0450   47.9010   35.6660 C.3   212  ILE212      0.0001
     19  N         21.0370   47.2040   35.8480 N.am  213  GLY213     -0.1955
     20  CA        20.2520   45.9610   35.8610 C.3   213  GLY213      0.1869
     21  C         20.2730   45.2050   34.5230 C.2   213  GLY213      0.2309
     22  O         20.5790   44.0250   34.4680 O.2   213  GLY213     -0.2863
     23  N         23.7250   43.7760   33.5650 N.3   216  GLN216     -0.1231
     24  CA        24.1750   42.6110   34.3320 C.3   216  GLN216      0.1698
     25  C         23.3160   41.3650   34.0170 C.2   216  GLN216      0.2592
     26  O         23.8420   40.2620   33.8300 O.2   216  GLN216     -0.2718
     27  CB        24.1070   42.9200   35.8590 C.3   216  GLN216      0.0381
     28  CG        24.5780   41.7220   36.6870 C.3   216  GLN216      0.0905
     29  CD        24.7490   42.0690   38.1360 C.2   216  GLN216      0.2608
     30  OE1       24.0790   42.9700   38.6430 O.2   216  GLN216     -0.2717
     31  NE2       25.6200   41.3480   38.8160 N.am  216  GLN216     -0.0878
     32  N         22.0020   41.5640   33.9790 N.am  217  PHE217     -0.1976
     33  CA        21.0200   40.5120   33.7980 C.3   217  PHE217      0.1639
     34  C         20.1420   40.8620   32.6090 C.2   217  PHE217      0.2290
     35  O         19.0240   41.3130   32.7770 O.2   217  PHE217     -0.2864
     36  CB        20.1500   40.3670   35.0440 C.3   217  PHE217      0.0560
     37  CG        20.9340   40.0780   36.2950 C.ar  217  PHE217     -0.0200
     38  CD1       21.6910   38.9350   36.4160 C.ar  217  PHE217     -0.0042
     39  CD2       20.8620   40.9340   37.3600 C.ar  217  PHE217     -0.0042
     40  CE1       22.4310   38.6780   37.5590 C.ar  217  PHE217     -0.0003
     41  CE2       21.5830   40.6980   38.5170 C.ar  217  PHE217     -0.0003
     42  CZ        22.3600   39.5800   38.6410 C.ar  217  PHE217     -0.0000
     43  N         14.4870   41.1070   30.7800 N.3   251  PHE251     -0.1241
     44  CA        14.4530   41.9070   32.0270 C.3   251  PHE251      0.1605
     45  C         13.0520   42.4690   32.1590 C.2   251  PHE251      0.2264
     46  O         12.6890   43.4060   31.4140 O.2   251  PHE251     -0.2867
     47  CB        15.4920   43.0330   31.9580 C.3   251  PHE251      0.0534
     48  CG        15.7170   43.7320   33.2510 C.ar  251  PHE251     -0.0203
     49  CD1       16.8140   43.4310   34.0210 C.ar  251  PHE251     -0.0042
     50  CD2       14.8330   44.6940   33.6910 C.ar  251  PHE251     -0.0042
     51  CE1       17.0520   44.0810   35.2060 C.ar  251  PHE251     -0.0003
     52  CE2       15.0460   45.3680   34.9010 C.ar  251  PHE251     -0.0003
     53  CZ        16.1780   45.0630   35.6430 C.ar  251  PHE251     -0.0000
     54  N         11.8970   36.1240   37.5090 N.3   277  VAL277     -0.1245
     55  CA        11.1220   36.9320   38.4470 C.3   277  VAL277      0.1561
     56  C          9.6810   36.4720   38.4690 C.2   277  VAL277      0.2260
     57  O          9.0760   36.2690   37.4220 O.2   277  VAL277     -0.2867
     58  CB        11.1520   38.4340   38.0540 C.3   277  VAL277      0.0252
     59  CG1       10.2540   38.6980   36.8380 C.3   277  VAL277      0.0019
     60  CG2       10.7600   39.3050   39.2430 C.3   277  VAL277      0.0019
     61  N         20.6990   31.6590   39.9930 N.3   292  PHE292     -0.1241
     62  CA        20.0920   32.9920   40.1630 C.3   292  PHE292      0.1605
     63  C         18.6730   32.8790   40.7760 C.2   292  PHE292      0.2264
     64  O         18.3340   33.6210   41.7020 O.2   292  PHE292     -0.2867
     65  CB        19.9850   33.6970   38.8230 C.3   292  PHE292      0.0534
     66  CG        19.4280   35.0940   38.8700 C.ar  292  PHE292     -0.0203
     67  CD1       20.1050   36.1070   39.4830 C.ar  292  PHE292     -0.0042
     68  CD2       18.2500   35.3890   38.2190 C.ar  292  PHE292     -0.0042
     69  CE1       19.6050   37.3980   39.4970 C.ar  292  PHE292     -0.0003
     70  CE2       17.7440   36.6740   38.2210 C.ar  292  PHE292     -0.0003
     71  CZ        18.4350   37.6750   38.8560 C.ar  292  PHE292     -0.0000
     72  N         18.1440   34.8930   44.7090 N.3   297  ALA297     -0.1231
     73  CA        18.7310   36.1520   44.2730 C.3   297  ALA297      0.1694
     74  C         17.7610   36.8770   43.3750 C.2   297  ALA297      0.2592
     75  O         17.5960   38.1030   43.4570 O.2   297  ALA297     -0.2718
     76  CB        20.0940   35.9210   43.5490 C.3   297  ALA297      0.0304
     77  N         17.0840   36.1170   42.5330 N.am  298  ALA298     -0.1966
     78  CA        16.0920   36.6700   41.5960 C.3   298  ALA298      0.1728
     79  C         14.9050   37.3150   42.3230 C.2   298  ALA298      0.2616
     80  O         14.2100   38.1460   41.7680 O.2   298  ALA298     -0.2715
     81  CB        15.5580   35.5510   40.7120 C.3   298  ALA298      0.0334
     82  N         14.6250   36.8530   43.5240 N.am  299  ALA299     -0.1963
     83  CA        13.5860   37.4620   44.3430 C.3   299  ALA299      0.1728
     84  C         14.1440   38.5960   45.2300 C.2   299  ALA299      0.2616
     85  O         13.4420   39.0640   46.1230 O.2   299  ALA299     -0.2715
     86  CB        12.9300   36.3990   45.2110 C.3   299  ALA299      0.0334
     87  N         15.3990   39.0160   45.0190 N.am  300  GLY300     -0.1955
     88  CA        15.9860   40.1450   45.7580 C.3   300  GLY300      0.1869
     89  C         16.9160   39.8250   46.9140 C.2   300  GLY300      0.2309
     90  O         17.3360   40.7310   47.6340 O.2   300  GLY300     -0.2863
     91  N         23.7050   45.2340   46.0320 N.3   304  GLY304     -0.1210
     92  CA        24.6710   45.8740   45.1670 C.3   304  GLY304      0.1956
     93  C         24.3380   47.2990   44.8300 C.2   304  GLY304      0.2612
     94  O         23.4290   47.8820   45.4310 O.2   304  GLY304     -0.2717
     95  N         25.1060   47.8640   43.8930 N.am  305  GLN305     -0.1965
     96  CA        24.9050   49.2410   43.3910 C.3   305  GLN305      0.1733
     97  C         25.7140   49.3730   42.1420 C.2   305  GLN305      0.2617
     98  O         26.5870   48.5260   41.8510 O.2   305  GLN305     -0.2715
     99  CB        25.3270   50.3030   44.4420 C.3   305  GLN305      0.0408
    100  CG        26.7550   50.1340   44.9580 C.3   305  GLN305      0.0908
    101  CD        27.2620   51.2360   45.9120 C.2   305  GLN305      0.2608
    102  OE1       28.4770   51.4080   46.0640 O.2   305  GLN305     -0.2717
    103  NE2       26.3670   51.9500   46.5690 N.am  305  GLN305     -0.0878
    104  N         25.4620   50.4340   41.4030 N.am  306  THR306     -0.1951
    105  CA        26.1630   50.6750   40.1390 C.3   306  THR306      0.1897
    106  C         27.6600   50.5900   40.3300 C.2   306  THR306      0.2313
    107  O         28.3770   49.9910   39.5100 O.2   306  THR306     -0.2863
    108  CB        25.7460   52.0440   39.6120 C.3   306  THR306      0.1794
    109  OG1       24.3090   52.0490   39.5350 O.3   306  THR306     -0.2208
    110  CG2       26.3550   52.3530   38.2760 C.3   306  THR306      0.0378
    111  N         26.8070   46.3270   39.8490 N.3   310  GLY310     -0.1210
    112  CA        25.5210   45.6960   40.0130 C.3   310  GLY310      0.1956
    113  C         25.3820   44.8930   41.3040 C.2   310  GLY310      0.2611
    114  O         25.9220   45.3020   42.3480 O.2   310  GLY310     -0.2717
    115  N         24.6400   43.7960   41.1990 N.am  311  PHE311     -0.1976
    116  CA        24.2730   42.8660   42.3070 C.3   311  PHE311      0.1639
    117  C         25.4540   41.9580   42.6200 C.2   311  PHE311      0.2290
    118  O         25.5970   40.8640   42.0770 O.2   311  PHE311     -0.2864
    119  CB        23.0470   42.0730   41.8820 C.3   311  PHE311      0.0560
    120  CG        21.9710   41.8810   42.9350 C.ar  311  PHE311     -0.0200
    121  CD1       21.6720   42.8290   43.8610 C.ar  311  PHE311     -0.0042
    122  CD2       21.1760   40.7510   42.8610 C.ar  311  PHE311     -0.0042
    123  CE1       20.6090   42.6470   44.7560 C.ar  311  PHE311     -0.0003
    124  CE2       20.1460   40.5360   43.7380 C.ar  311  PHE311     -0.0003
    125  CZ        19.8790   41.4770   44.7000 C.ar  311  PHE311     -0.0000
@<TRIPOS>BOND
     1    43    44    1
     2    46    45    2
     3    47    44    1
     4    47    48    1
     5    44    45    1
     6    34    35    2
     7    34    33    1
     8     1     2    1
     9    48    50   ar
    10    48    49   ar
    11     4     3    2
    12    23    24    1
    13    50    52   ar
    14    33    32    1
    15    33    36    1
    16    26    25    2
    17    32    25   am
    18    25    24    1
    19    49    51   ar
    20    24    27    1
    21    22    21    2
    22     3     2    1
    23     3    11   am
    24    21    20    1
    25     2     5    1
    26    52    53   ar
    27    14    13    2
    28    36    37    1
    29     5     6    1
    30    51    53   ar
    31    13    12    1
    32    13    19   am
    33    11    12    1
    34    12    15    1
    35    18    16    1
    36    19    20    1
    37    27    28    1
    38    37    38   ar
    39    37    39   ar
    40     6     7   ar
    41     6     8   ar
    42    38    40   ar
    43     7     9   ar
    44    28    29    1
    45    16    15    1
    46    15    17    1
    47    59    58    1
    48    39    41   ar
    49    57    56    2
    50    54    55    1
    51    40    42   ar
    52     8    10   ar
    53     9    10   ar
    54    58    55    1
    55    58    60    1
    56    29    30    2
    57    29    31   am
    58    68    70   ar
    59    68    66   ar
    60    70    71   ar
    61   110   108    1
    62    55    56    1
    63    41    42   ar
    64    65    66    1
    65    65    62    1
    66    71    69   ar
    67    66    67   ar
    68    67    69   ar
    69   107   106    2
    70   109   108    1
    71   108   105    1
    72   111   112    1
    73    61    62    1
    74   112   113    1
    75   105   106    1
    76   105   104    1
    77    62    63    1
    78    81    78    1
    79    63    64    2
    80   115   113   am
    81   115   116    1
    82   113   114    2
    83   104    97   am
    84    78    79    1
    85    78    77    1
    86    80    79    2
    87    98    97    2
    88   119   116    1
    89   119   120    1
    90   118   117    2
    91    97    96    1
    92   116   117    1
    93    79    82   am
    94    77    74   am
    95   122   120   ar
    96   122   124   ar
    97   120   121   ar
    98    74    75    2
    99    74    73    1
   100    96    95    1
   101    96    99    1
   102    82    83    1
   103    76    73    1
   104   124   125   ar
   105   121   123   ar
   106    95    93   am
   107    73    72    1
   108    83    86    1
   109    83    84    1
   110    99   100    1
   111   125   123   ar
   112    93    92    1
   113    93    94    2
   114   100   101    1
   115    87    84   am
   116    87    88    1
   117    92    91    1
   118    84    85    2
   119    88    89    1
   120   101   102    2
   121   101   103   am
   122    89    90    2
