@<TRIPOS>MOLECULE
tmp/5upvA01.pdb
 116 107 0 0 0
SMALL
GASTEIGER

@<TRIPOS>ATOM
      1  N         13.4500   29.0160    7.9080 N.3    59  MET59      -0.1245
      2  CA        12.4210   28.7810    8.9130 C.3    59  MET59       0.1570
      3  C         12.9150   29.2410   10.2730 C.2    59  MET59       0.2261
      4  O         14.0980   29.0800   10.6000 O.2    59  MET59      -0.2867
      5  CB        12.0460   27.2950    8.9670 C.3    59  MET59       0.0387
      6  CG        11.5020   26.7620    7.6310 C.3    59  MET59       0.0595
      7  SD        11.2260   24.9830    7.5970 S.3    59  MET59      -0.1393
      8  CE         9.8380   24.8440    8.7260 C.3    59  MET59       0.0692
      9  N         12.6010   35.0020    7.3850 N.3    82  ARG82      -0.1245
     10  CA        12.1310   36.3820    7.3240 C.3    82  ARG82       0.1563
     11  C         11.0090   36.6770    8.3150 C.2    82  ARG82       0.2260
     12  O         10.3240   37.6980    8.1790 O.2    82  ARG82      -0.2867
     13  CB        11.6850   36.7190    5.9050 C.3    82  ARG82       0.0307
     14  CG        10.5040   35.8870    5.3940 C.3    82  ARG82       0.0489
     15  CD        10.2460   36.2520    3.9430 C.3    82  ARG82       0.2205
     16  NE         9.2140   35.4440    3.3020 N.pl3  82  ARG82      -0.0865
     17  CZ         7.9480   35.8240    3.1700 C.cat  82  ARG82       0.5346
     18  NH1        7.5500   36.9960    3.6530 N.pl3  82  ARG82       0.1354
     19  NH2        7.0800   35.0270    2.5570 N.pl3  82  ARG82       0.1354
     20  N         10.5810   33.8770   -1.5930 N.3   132  ASP132     -0.1225
     21  CA        10.1310   32.6450   -0.9550 C.3   132  ASP132      0.1805
     22  C          8.6270   32.7130   -0.7500 C.2   132  ASP132      0.2598
     23  O          8.1490   33.4490    0.1220 O.2   132  ASP132     -0.2718
     24  CB        10.8500   32.4420    0.3730 C.3   132  ASP132      0.1424
     25  CG        10.7440   31.0090    0.8710 C.2   132  ASP132      0.3668
     26  OD1       10.6040   30.0980    0.0250 O.co2 132  ASP132     -0.2456
     27  OD2       10.7750   30.8070    2.1030 O.co2 132  ASP132     -0.2456
     28  N          7.8780   31.9450   -1.5460 N.am  133  THR133     -0.1939
     29  CA         6.4260   32.0370   -1.5570 C.3   133  THR133      0.2028
     30  C          5.8320   30.6370   -1.6400 C.2   133  THR133      0.2642
     31  O          6.4780   29.6900   -2.0940 O.2   133  THR133     -0.2714
     32  CB         5.9070   32.8590   -2.7410 C.3   133  THR133      0.1808
     33  OG1        6.1450   32.1170   -3.9410 O.3   133  THR133     -0.2208
     34  CG2        6.6300   34.2030   -2.8480 C.3   133  THR133      0.0379
     35  N          4.5790   30.5290   -1.2010 N.am  134  ALA134     -0.1963
     36  CA         3.8700   29.2530   -1.2780 C.3   134  ALA134      0.1728
     37  C          3.6170   28.8380   -2.7220 C.2   134  ALA134      0.2616
     38  O          3.6340   27.6440   -3.0310 O.2   134  ALA134     -0.2715
     39  CB         2.5440   29.3390   -0.5180 C.3   134  ALA134      0.0334
     40  N          3.4050   29.8000   -3.6180 N.am  135  HIS135     -0.1973
     41  CA         3.0090   29.4960   -4.9940 C.3   135  HIS135      0.1656
     42  C          3.6400   30.5530   -5.9000 C.2   135  HIS135      0.2291
     43  O          3.0810   31.6430   -6.0700 O.2   135  HIS135     -0.2864
     44  CB         1.4940   29.4780   -5.1250 C.3   135  HIS135      0.0771
     45  CG         1.0060   29.1160   -6.4930 C.ar  135  HIS135      0.0820
     46  ND1        1.5900   28.1250   -7.2530 N.ar  135  HIS135     -0.2267
     47  CD2       -0.0210   29.6000   -7.2280 C.ar  135  HIS135      0.1154
     48  CE1        0.9400   28.0170   -8.3990 C.ar  135  HIS135      0.1986
     49  NE2       -0.0350   28.9070   -8.4130 N.ar  135  HIS135     -0.2212
     50  N          8.1580   28.7620   -4.3510 N.3   162  ASN162     -0.1240
     51  CA         8.3770   27.3890   -4.7930 C.3   162  ASN162      0.1653
     52  C          7.4470   26.9780   -5.9360 C.2   162  ASN162      0.2266
     53  O          6.3300   27.5040   -6.0780 O.2   162  ASN162     -0.2867
     54  CB         8.1890   26.4340   -3.6220 C.3   162  ASN162      0.1155
     55  CG         9.4360   26.3240   -2.7530 C.2   162  ASN162      0.2627
     56  OD1       10.3320   27.1760   -2.8120 O.2   162  ASN162     -0.2716
     57  ND2        9.4930   25.2650   -1.9420 N.am  162  ASN162     -0.0877
     58  N         -0.4870   21.6320    3.4150 N.3   192  THR192     -0.1218
     59  CA        -1.1240   22.0610    2.1710 C.3   192  THR192      0.1862
     60  C         -1.8500   20.9140    1.4800 C.2   192  THR192      0.2287
     61  O         -2.9580   21.0850    0.9550 O.2   192  THR192     -0.2866
     62  CB        -0.0630   22.6620    1.2590 C.3   192  THR192      0.1770
     63  OG1        0.4920   23.8070    1.9200 O.3   192  THR192     -0.2211
     64  CG2       -0.6430   23.0800   -0.0710 C.3   192  THR192      0.0375
     65  N         13.4480   21.2310   -2.4350 N.3   223  ASP223     -0.1239
     66  CA        13.1050   21.7710   -1.1170 C.3   223  ASP223      0.1674
     67  C         11.9170   21.0190   -0.5090 C.2   223  ASP223      0.2266
     68  O         10.7740   21.2210   -0.9300 O.2   223  ASP223     -0.2867
     69  CB        12.7830   23.2610   -1.2550 C.3   223  ASP223      0.1410
     70  CG        12.3550   23.9010    0.0460 C.2   223  ASP223      0.3668
     71  OD1       12.6310   23.3370    1.1250 O.co2 223  ASP223     -0.2456
     72  OD2       11.7210   24.9830   -0.0140 O.co2 223  ASP223     -0.2456
     73  N          6.2390   27.4640    8.7970 N.3   273  MET273     -0.1230
     74  CA         6.0790   28.9130    8.7950 C.3   273  MET273      0.1702
     75  C          4.6560   29.3380    8.4560 C.2   273  MET273      0.2592
     76  O          4.3060   30.5120    8.6670 O.2   273  MET273     -0.2718
     77  CB         7.0720   29.5420    7.8190 C.3   273  MET273      0.0401
     78  CG         8.5260   29.2830    8.2140 C.3   273  MET273      0.0596
     79  SD         8.9420   30.1110    9.7670 S.3   273  MET273     -0.1393
     80  CE         9.4110   31.7050    9.1330 C.3   273  MET273      0.0692
     81  N          3.8440   28.4180    7.9340 N.am  274  GLY274     -0.1957
     82  CA         2.4240   28.6030    7.7510 C.3   274  GLY274      0.1869
     83  C          1.6060   28.0380    8.8870 C.2   274  GLY274      0.2309
     84  O          0.3850   27.9040    8.7470 O.2   274  GLY274     -0.2863
     85  N          2.6400   32.2220   12.2160 N.3   279  MET279     -0.1245
     86  CA         1.9640   33.4010   11.6860 C.3   279  MET279      0.1570
     87  C          1.5560   34.3690   12.7820 C.2   279  MET279      0.2261
     88  O          1.2250   35.5210   12.4770 O.2   279  MET279     -0.2867
     89  CB         0.7460   32.9880   10.8620 C.3   279  MET279      0.0387
     90  CG         1.1210   32.1620    9.6370 C.3   279  MET279      0.0595
     91  SD        -0.2640   31.7520    8.5650 S.3   279  MET279     -0.1393
     92  CE        -1.2280   30.6540    9.6060 C.3   279  MET279      0.0692
     93  N         -5.9150   33.7850    6.6590 N.3   281  LEU281     -0.1231
     94  CA        -5.6640   32.4920    6.0330 C.3   281  LEU281      0.1693
     95  C         -5.6720   31.3720    7.0630 C.2   281  LEU281      0.2591
     96  O         -5.2020   31.5470    8.1860 O.2   281  LEU281     -0.2718
     97  CB        -4.3250   32.5050    5.2860 C.3   281  LEU281      0.0284
     98  CG        -4.1960   33.5370    4.1620 C.3   281  LEU281      0.0019
     99  CD1       -2.8180   33.4990    3.5210 C.3   281  LEU281      0.0001
    100  CD2       -5.2770   33.3200    3.1210 C.3   281  LEU281      0.0001
    101  N         -6.2040   30.2160    6.6800 N.am  282  VAL282     -0.1980
    102  CA        -6.1620   29.0420    7.5440 C.3   282  VAL282      0.1595
    103  C         -4.7350   28.5110    7.4920 C.2   282  VAL282      0.2287
    104  O         -4.0420   28.7190    6.4840 O.2   282  VAL282     -0.2864
    105  CB        -7.2060   27.9970    7.1160 C.3   282  VAL282      0.0276
    106  CG1       -8.5880   28.6270    7.1160 C.3   282  VAL282      0.0022
    107  CG2       -6.8800   27.4360    5.7430 C.3   282  VAL282      0.0022
    108  N         -1.3700   26.3250    6.9750 N.3   284  GLU284     -0.1245
    109  CA        -0.9230   25.2630    6.0780 C.3   284  GLU284      0.1567
    110  C          0.3350   24.5840    6.6140 C.2   284  GLU284      0.2260
    111  O          1.1240   24.0270    5.8440 O.2   284  GLU284     -0.2867
    112  CB        -0.7000   25.8010    4.6630 C.3   284  GLU284      0.0388
    113  CG        -2.0150   26.2370    4.0050 C.3   284  GLU284      0.1160
    114  CD        -1.8480   26.7200    2.5670 C.2   284  GLU284      0.3649
    115  OE1       -1.1440   26.0560    1.7730 O.co2 284  GLU284     -0.2457
    116  OE2       -2.4350   27.7660    2.2250 O.co2 284  GLU284     -0.2457
@<TRIPOS>BOND
     1    49    48   ar
     2    49    47   ar
     3    48    46   ar
     4    46    45   ar
     5    47    45   ar
     6    45    44    1
     7    53    52    2
     8    43    42    2
     9    52    51    1
    10    42    41    1
    11    44    41    1
    12    41    40    1
    13    51    50    1
    14    51    54    1
    15    33    32    1
    16    54    55    1
    17    40    37   am
    18    38    37    2
    19    34    32    1
    20    56    55    2
    21    55    57   am
    22    32    29    1
    23    37    36    1
    24    65    66    1
    25    31    30    2
    26    30    29    1
    27    30    35   am
    28    20    21    1
    29    29    28    1
    30    28    22   am
    31    36    35    1
    32    36    39    1
    33    69    66    1
    34    69    70    1
    35    66    67    1
    36    21    22    1
    37    21    24    1
    38    68    67    2
    39    22    23    2
    40    64    62    1
    41    72    70   ar
    42    26    25   ar
    43    70    71   ar
    44    24    25    1
    45    25    27   ar
    46    61    60    2
    47    62    63    1
    48    62    59    1
    49    60    59    1
    50   115   114   ar
    51    59    58    1
    52   116   114   ar
    53    19    17    1
    54   114   113    1
    55   100    98    1
    56    17    16    2
    57    17    18    1
    58    16    15    1
    59    99    98    1
    60    15    14    1
    61   113   112    1
    62    98    97    1
    63   112   109    1
    64    97    94    1
    65    14    13    1
    66   107   105    1
    67   111   110    2
    68    13    10    1
    69    94    93    1
    70    94    95    1
    71   109   110    1
    72   109   108    1
    73   104   103    2
    74   101    95   am
    75   101   102    1
    76    95    96    2
    77   105   106    1
    78   105   102    1
    79    10     9    1
    80    10    11    1
    81   103   102    1
    82     7     6    1
    83     7     8    1
    84     6     5    1
    85    82    81    1
    86    82    83    1
    87    77    78    1
    88    77    74    1
    89     1     2    1
    90    81    75   am
    91    12    11    2
    92    78    79    1
    93    75    76    2
    94    75    74    1
    95    91    92    1
    96    91    90    1
    97    84    83    2
    98    74    73    1
    99     2     5    1
   100     2     3    1
   101    80    79    1
   102    90    89    1
   103     3     4    2
   104    89    86    1
   105    86    85    1
   106    86    87    1
   107    88    87    2
