@<TRIPOS>MOLECULE
tmp/5upxA00.pdb
 192 182 0 0 0
SMALL
GASTEIGER

@<TRIPOS>ATOM
      1  N         23.8500  -26.0160   -6.0850 N.3    52  ALA52      -0.1231
      2  CA        24.9390  -25.1040   -5.7630 C.3    52  ALA52       0.1694
      3  C         24.7450  -23.7250   -6.3950 C.2    52  ALA52       0.2593
      4  O         24.2540  -23.5980   -7.5210 O.2    52  ALA52      -0.2718
      5  CB        26.2690  -25.7070   -6.2220 C.3    52  ALA52       0.0304
      6  N         25.1670  -22.6840   -5.6680 N.am   53  GLY53      -0.1942
      7  CA        25.1120  -21.3180   -6.1710 C.3    53  GLY53       0.2014
      8  C         26.2550  -20.9900   -7.1210 C.2    53  GLY53       0.2638
      9  O         27.1140  -20.1580   -6.8090 O.2    53  GLY53      -0.2714
     10  N         26.2710  -21.6400   -8.2850 N.am   54  MET54      -0.1976
     11  CA        27.3530  -21.5370   -9.2540 C.3    54  MET54       0.1605
     12  C         26.7970  -21.1730  -10.6200 C.2    54  MET54       0.2287
     13  O         25.6890  -21.5850  -10.9750 O.2    54  MET54      -0.2864
     14  CB        28.1310  -22.8620   -9.3690 C.3    54  MET54       0.0413
     15  CG        28.7110  -23.3610   -8.0460 C.3    54  MET54       0.0598
     16  SD        29.3310  -25.0680   -8.1150 S.3    54  MET54      -0.1393
     17  CE        30.7310  -24.8250   -9.2130 C.3    54  MET54       0.0692
     18  N         27.8720  -16.3370    0.6440 N.3   147  ASP147     -0.1239
     19  CA        28.7320  -17.3440    0.0220 C.3   147  ASP147      0.1674
     20  C         30.1580  -16.8040   -0.0260 C.2   147  ASP147      0.2266
     21  O         30.4600  -15.9200   -0.8300 O.2   147  ASP147     -0.2867
     22  CB        28.2250  -17.6760   -1.3810 C.3   147  ASP147      0.1410
     23  CG        28.3130  -19.1570   -1.7010 C.2   147  ASP147      0.3668
     24  OD1       29.1760  -19.8490   -1.1150 O.co2 147  ASP147     -0.2456
     25  OD2       27.5050  -19.6300   -2.5320 O.co2 147  ASP147     -0.2456
     26  N         31.6910  -20.5730    3.7200 N.3   176  ASN176     -0.1240
     27  CA        31.7810  -21.9460    4.2130 C.3   176  ASN176      0.1653
     28  C         32.7550  -22.0540    5.3830 C.2   176  ASN176      0.2266
     29  O         33.7280  -21.2910    5.4840 O.2   176  ASN176     -0.2867
     30  CB        32.2210  -22.8920    3.0840 C.3   176  ASN176      0.1155
     31  CG        31.0640  -23.3180    2.1760 C.2   176  ASN176      0.2627
     32  OD1       30.0430  -22.6500    2.0880 O.2   176  ASN176     -0.2716
     33  ND2       31.2290  -24.4580    1.5150 N.am  176  ASN176     -0.0877
     34  N         26.8680  -23.5080    6.2620 N.3   195  LYS195     -0.1245
     35  CA        27.2500  -24.3280    5.1240 C.3   195  LYS195      0.1561
     36  C         28.6930  -24.7910    5.3030 C.2   195  LYS195      0.2260
     37  O         29.5940  -23.9790    5.5580 O.2   195  LYS195     -0.2867
     38  CB        27.0590  -23.5590    3.8110 C.3   195  LYS195      0.0271
     39  CG        27.1530  -24.4430    2.5510 C.3   195  LYS195      0.0035
     40  CD        26.2500  -23.8920    1.3970 C.3   195  LYS195      0.0206
     41  CE        26.7930  -22.5550    0.8410 C.3   195  LYS195      0.1093
     42  NZ        28.1520  -22.7460    0.2180 N.3   195  LYS195     -0.1314
     43  N         37.3100  -26.9320    0.3850 N.3   199  GLY199     -0.1210
     44  CA        38.1110  -27.7390   -0.5070 C.3   199  GLY199      0.1940
     45  C         37.5910  -29.0430   -1.1230 C.2   199  GLY199      0.2454
     46  O         38.2550  -29.5720   -2.0140 O.2   199  GLY199     -0.2732
     47  N         36.4450  -29.6100   -0.7030 N.am  200  PRO200     -0.2717
     48  CA        36.0920  -30.9490   -1.2150 C.3   200  PRO200      0.1536
     49  C         35.4670  -30.9520   -2.6070 C.2   200  PRO200      0.2599
     50  O         35.2960  -32.0390   -3.1850 O.2   200  PRO200     -0.2715
     51  CB        35.0960  -31.4680   -0.1690 C.3   200  PRO200      0.0310
     52  CG        34.3520  -30.2520    0.2330 C.3   200  PRO200      0.0237
     53  CD        35.4230  -29.1340    0.2460 C.3   200  PRO200      0.0939
     54  N         35.1430  -29.7850   -3.1650 N.am  201  GLY201     -0.1941
     55  CA        34.4110  -29.7520   -4.4180 C.3   201  GLY201      0.2014
     56  C         35.1600  -30.4290   -5.5500 C.2   201  GLY201      0.2640
     57  O         36.3940  -30.3970   -5.6350 O.2   201  GLY201     -0.2714
     58  N         34.3800  -31.0500   -6.4410 N.am  202  SER202     -0.1935
     59  CA        34.9310  -31.7150   -7.6200 C.3   202  SER202      0.2055
     60  C         35.8100  -30.7830   -8.4610 C.2   202  SER202      0.2643
     61  O         36.8600  -31.2120   -8.9700 O.2   202  SER202     -0.2714
     62  CB        33.7770  -32.3000   -8.4450 C.3   202  SER202      0.2130
     63  OG        32.9870  -31.2530   -9.0110 O.3   202  SER202     -0.2179
     64  N         35.4160  -29.5120   -8.6140 N.am  203  ILE203     -0.1963
     65  CA        36.0960  -28.6170   -9.5520 C.3   203  ILE203      0.1727
     66  C         37.1100  -27.7050   -8.8710 C.2   203  ILE203      0.2616
     67  O         37.5900  -26.7500   -9.4920 O.2   203  ILE203     -0.2715
     68  CB        35.0950  -27.7860  -10.3820 C.3   203  ILE203      0.0290
     69  CG1       33.9980  -27.1350   -9.5050 C.3   203  ILE203      0.0022
     70  CG2       34.5160  -28.6190  -11.5330 C.3   203  ILE203      0.0023
     71  CD1       34.4620  -26.2710   -8.3540 C.3   203  ILE203      0.0001
     72  N         37.4440  -27.9590   -7.6190 N.am  204  CYS204     -0.1968
     73  CA        38.1770  -26.9600   -6.8650 C.3   204  CYS204      0.1712
     74  C         39.5960  -27.4190   -6.5470 C.2   204  CYS204      0.2296
     75  O         39.8810  -28.6160   -6.4340 O.2   204  CYS204     -0.2864
     76  CB        37.4160  -26.6030   -5.5980 C.3   204  CYS204      0.0983
     77  SG        37.9130  -27.3600   -4.0850 S.3   204  CYS204     -0.0798
     78  N         41.4840  -25.5460   -4.0690 N.3   206  THR206     -0.1218
     79  CA        41.8330  -24.8770   -2.8190 C.3   206  THR206      0.1862
     80  C         42.8490  -25.6710   -2.0000 C.2   206  THR206      0.2287
     81  O         43.8430  -25.1240   -1.5130 O.2   206  THR206     -0.2866
     82  CB        40.5600  -24.6390   -2.0100 C.3   206  THR206      0.1770
     83  OG1       39.7730  -23.6320   -2.6610 O.3   206  THR206     -0.2211
     84  CG2       40.8930  -24.1790   -0.5930 C.3   206  THR206      0.0375
     85  N         28.2840  -29.2900    1.9570 N.3   237  ASP237     -0.1225
     86  CA        28.5120  -28.7030    0.6330 C.3   237  ASP237      0.1805
     87  C         29.8140  -29.2230    0.0230 C.2   237  ASP237      0.2598
     88  O         30.9000  -28.7810    0.4100 O.2   237  ASP237     -0.2718
     89  CB        28.5410  -27.1730    0.7690 C.3   237  ASP237      0.1424
     90  CG        28.8210  -26.4580   -0.5430 C.2   237  ASP237      0.3668
     91  OD1       28.6930  -27.1030   -1.6050 O.co2 237  ASP237     -0.2456
     92  OD2       29.1650  -25.2350   -0.5000 O.co2 237  ASP237     -0.2456
     93  N         29.7100  -30.1240   -0.9510 N.am  238  GLY238     -0.1942
     94  CA        30.8550  -30.4410   -1.7880 C.3   238  GLY238      0.2014
     95  C         31.3890  -31.8520   -1.5840 C.2   238  GLY238      0.2639
     96  O         31.3460  -32.4170   -0.4850 O.2   238  GLY238     -0.2714
     97  N         31.9090  -32.4260   -2.6690 N.am  239  GLY239     -0.1939
     98  CA        32.5790  -33.7060   -2.6170 C.3   239  GLY239      0.2014
     99  C         31.6900  -34.9160   -2.7750 C.2   239  GLY239      0.2638
    100  O         32.1920  -36.0410   -2.7010 O.2   239  GLY239     -0.2714
    101  N         30.3960  -34.7280   -2.9900 N.am  240  ILE240     -0.1977
    102  CA        29.4620  -35.8400   -3.1460 C.3   240  ILE240      0.1596
    103  C         29.4910  -36.2990   -4.6020 C.2   240  ILE240      0.2287
    104  O         29.2660  -35.5060   -5.5220 O.2   240  ILE240     -0.2864
    105  CB        28.0520  -35.4310   -2.7020 C.3   240  ILE240      0.0276
    106  CG1       28.0040  -35.3130   -1.1760 C.3   240  ILE240      0.0022
    107  CG2       27.0050  -36.4400   -3.1890 C.3   240  ILE240      0.0022
    108  CD1       26.9330  -34.3700   -0.6970 C.3   240  ILE240      0.0001
    109  N         24.4530  -29.9760   -0.4730 N.3   258  MET258     -0.1230
    110  CA        24.4800  -29.1040   -1.6390 C.3   258  MET258      0.1702
    111  C         25.2550  -29.8020   -2.7460 C.2   258  MET258      0.2592
    112  O         26.3410  -30.3380   -2.5010 O.2   258  MET258     -0.2718
    113  CB        25.1200  -27.7490   -1.3200 C.3   258  MET258      0.0401
    114  CG        25.2640  -26.8720   -2.5660 C.3   258  MET258      0.0596
    115  SD        25.7310  -25.1610   -2.1490 S.3   258  MET258     -0.1393
    116  CE        24.1220  -24.4980   -1.6840 C.3   258  MET258      0.0692
    117  N         24.7060  -29.7970   -3.9550 N.am  259  LEU259     -0.1966
    118  CA        25.2880  -30.5380   -5.0660 C.3   259  LEU259      0.1728
    119  C         25.6950  -29.5950   -6.1830 C.2   259  LEU259      0.2617
    120  O         24.9080  -28.7320   -6.5950 O.2   259  LEU259     -0.2715
    121  CB        24.3010  -31.5630   -5.6260 C.3   259  LEU259      0.0311
    122  CG        23.7740  -32.5590   -4.6030 C.3   259  LEU259      0.0022
    123  CD1       22.7040  -33.4420   -5.2460 C.3   259  LEU259      0.0001
    124  CD2       24.9420  -33.3910   -4.0350 C.3   259  LEU259      0.0001
    125  N         26.9100  -29.7820   -6.6830 N.am  260  GLY260     -0.1940
    126  CA        27.3330  -29.1420   -7.9150 C.3   260  GLY260      0.2014
    127  C         27.4470  -30.1900   -9.0010 C.2   260  GLY260      0.2640
    128  O         26.5700  -30.3210   -9.8610 O.2   260  GLY260     -0.2714
    129  N         28.5120  -30.9900   -8.9200 N.am  261  SER261     -0.1935
    130  CA        28.8200  -31.9610   -9.9650 C.3   261  SER261      0.2055
    131  C         27.6380  -32.8780  -10.3000 C.2   261  SER261      0.2642
    132  O         27.4060  -33.1930  -11.4750 O.2   261  SER261     -0.2714
    133  CB        30.0280  -32.7920   -9.5310 C.3   261  SER261      0.2130
    134  OG        30.1810  -33.9260  -10.3640 O.3   261  SER261     -0.2179
    135  N         26.9100  -33.3670   -9.2930 N.am  262  MET262     -0.1976
    136  CA        25.8550  -34.3210   -9.6360 C.3   262  MET262      0.1605
    137  C         24.6980  -33.6770  -10.3890 C.2   262  MET262      0.2287
    138  O         23.9100  -34.3990  -11.0170 O.2   262  MET262     -0.2864
    139  CB        25.3320  -35.0620   -8.4020 C.3   262  MET262      0.0413
    140  CG        26.4120  -35.8930   -7.6960 C.3   262  MET262      0.0598
    141  SD        25.7770  -37.0610   -6.4750 S.3   262  MET262     -0.1393
    142  CE        25.2830  -38.4210   -7.5490 C.3   262  MET262      0.0692
    143  N         31.1600  -27.2180  -16.8790 N.3   284  TYR284     -0.1241
    144  CA        31.0950  -27.1130  -15.4240 C.3   284  TYR284      0.1605
    145  C         32.4180  -26.5410  -14.9320 C.2   284  TYR284      0.2264
    146  O         33.4880  -27.0270  -15.3180 O.2   284  TYR284     -0.2867
    147  CB        30.8150  -28.4750  -14.7690 C.3   284  TYR284      0.0534
    148  CG        30.6790  -28.4210  -13.2630 C.ar  284  TYR284     -0.0201
    149  CD1       29.9170  -27.4250  -12.6430 C.ar  284  TYR284     -0.0009
    150  CD2       31.2980  -29.3750  -12.4570 C.ar  284  TYR284     -0.0009
    151  CE1       29.7950  -27.3800  -11.2510 C.ar  284  TYR284      0.0417
    152  CE2       31.1790  -29.3440  -11.0730 C.ar  284  TYR284      0.0417
    153  CZ        30.4320  -28.3470  -10.4740 C.ar  284  TYR284      0.1957
    154  OH        30.3280  -28.3080   -9.0980 O.3   284  TYR284     -0.2866
    155  N         34.6040  -24.2090  -11.6200 N.3   286  GLY286     -0.1210
    156  CA        34.6430  -23.5930  -10.3120 C.3   286  GLY286      0.1956
    157  C         34.3440  -22.1080  -10.3970 C.2   286  GLY286      0.2612
    158  O         34.6770  -21.4350  -11.3750 O.2   286  GLY286     -0.2717
    159  N         33.6780  -21.5990   -9.3620 N.am  287  MET287     -0.1965
    160  CA        33.4720  -20.1580   -9.2680 C.3   287  MET287      0.1736
    161  C         34.7650  -19.4120   -8.9770 C.2   287  MET287      0.2617
    162  O         34.7950  -18.1820   -9.1000 O.2   287  MET287     -0.2715
    163  CB        32.4240  -19.8460   -8.2070 C.3   287  MET287      0.0427
    164  CG        31.0230  -20.2970   -8.6400 C.3   287  MET287      0.0599
    165  SD        30.2780  -19.2350   -9.9380 S.3   287  MET287     -0.1393
    166  CE        29.6130  -17.9050   -8.9190 C.3   287  MET287      0.0692
    167  N         35.8270  -20.1270   -8.6180 N.am  288  GLY288     -0.1955
    168  CA        37.1460  -19.5540   -8.4730 C.3   288  GLY288      0.1869
    169  C         38.0750  -19.8240   -9.6340 C.2   288  GLY288      0.2309
    170  O         39.2800  -19.5670   -9.5160 O.2   288  GLY288     -0.2863
    171  N         40.7260  -12.5260   -6.3510 N.3   306  LYS306     -0.1245
    172  CA        41.8220  -13.3190   -5.8190 C.3   306  LYS306      0.1561
    173  C         42.9700  -13.3370   -6.8170 C.2   306  LYS306      0.2260
    174  O         42.7560  -13.3730   -8.0310 O.2   306  LYS306     -0.2867
    175  CB        41.3550  -14.7400   -5.5170 C.3   306  LYS306      0.0271
    176  CG        40.3060  -15.2210   -6.4760 C.3   306  LYS306      0.0035
    177  CD        39.6850  -16.5180   -6.0150 C.3   306  LYS306      0.0206
    178  CE        40.3230  -17.6910   -6.7160 C.3   306  LYS306      0.1093
    179  NZ        39.4570  -18.8770   -6.6280 N.3   306  LYS306     -0.1314
    180  N         41.3360  -20.7520   -7.7970 N.3   310  GLU310     -0.1231
    181  CA        41.1920  -21.8760   -6.8750 C.3   310  GLU310      0.1699
    182  C         40.1520  -22.8740   -7.3760 C.2   310  GLU310      0.2592
    183  O         39.5510  -23.6080   -6.5810 O.2   310  GLU310     -0.2718
    184  CB        40.8410  -21.3970   -5.4640 C.3   310  GLU310      0.0402
    185  CG        41.9060  -20.4840   -4.8680 C.3   310  GLU310      0.1161
    186  CD        41.6800  -20.1870   -3.4040 C.2   310  GLU310      0.3649
    187  OE1       42.4570  -20.6950   -2.5670 O.co2 310  GLU310     -0.2457
    188  OE2       40.7250  -19.4440   -3.0920 O.co2 310  GLU310     -0.2457
    189  N         39.9330  -22.9020   -8.6860 N.am  311  GLY311     -0.1957
    190  CA        39.0780  -23.8780   -9.3250 C.3   311  GLY311      0.1869
    191  C         39.5740  -24.0660  -10.7400 C.2   311  GLY311      0.2309
    192  O         40.4250  -23.3120  -11.2330 O.2   311  GLY311     -0.2863
@<TRIPOS>BOND
     1   143   144    1
     2   144   145    1
     3   144   147    1
     4   146   145    2
     5   147   148    1
     6   148   149   ar
     7   148   150   ar
     8   149   151   ar
     9   150   152   ar
    10   155   156    1
    11    70    68    1
    12   132   131    2
    13   158   157    2
    14   151   153   ar
    15   192   191    2
    16   152   153   ar
    17   138   137    2
    18    13    12    2
    19   191   190    1
    20    12    11    1
    21   153   154    1
    22   157   156    1
    23   157   159   am
    24   137   136    1
    25    68    65    1
    26    68    69    1
    27   134   133    1
    28   131   130    1
    29   131   135   am
    30   130   133    1
    31   130   129    1
    32   165   166    1
    33   165   164    1
    34   128   127    2
    35   136   135    1
    36   136   139    1
    37   169   170    2
    38   169   168    1
    39    65    66    1
    40    65    64    1
    41    69    71    1
    42    67    66    2
    43    14    11    1
    44    14    15    1
    45   159   160    1
    46   190   189    1
    47   160   161    1
    48   160   163    1
    49    11    10    1
    50    17    16    1
    51   162   161    2
    52    63    62    1
    53   127   129   am
    54   127   126    1
    55   161   167   am
    56    61    60    2
    57    66    72   am
    58   189   182   am
    59   164   163    1
    60   167   168    1
    61    64    60   am
    62    60    59    1
    63    62    59    1
    64   139   140    1
    65    10     8   am
    66    16    15    1
    67   174   173    2
    68   126   125    1
    69   180   181    1
    70   140   141    1
    71    59    58    1
    72    72    73    1
    73   142   141    1
    74     4     3    2
    75   182   181    1
    76   182   183    2
    77     8     9    2
    78     8     7    1
    79   181   184    1
    80    73    74    1
    81    73    76    1
    82   173   172    1
    83   178   179    1
    84   178   177    1
    85   125   119   am
    86   120   119    2
    87    74    75    2
    88   176   177    1
    89   176   175    1
    90    58    56   am
    91     3     2    1
    92     3     6   am
    93   171   172    1
    94     5     2    1
    95   119   118    1
    96     7     6    1
    97     1     2    1
    98   172   175    1
    99    57    56    2
   100   121   118    1
   101   121   122    1
   102    76    77    1
   103    56    55    1
   104   104   103    2
   105   184   185    1
   106   123   122    1
   107   118   117    1
   108   185   186    1
   109   122   124    1
   110   103   102    1
   111    55    54    1
   112    78    79    1
   113   117   111   am
   114   186   188   ar
   115   186   187   ar
   116   107   105    1
   117    50    49    2
   118    54    49   am
   119   102   101    1
   120   102   105    1
   121   101    99   am
   122    79    82    1
   123    79    80    1
   124    99   100    2
   125    99    98    1
   126   111   112    2
   127   111   110    1
   128   105   106    1
   129    97    98    1
   130    97    95   am
   131    83    82    1
   132    49    48    1
   133   114   115    1
   134   114   113    1
   135    25    23   ar
   136   115   116    1
   137    46    45    2
   138    82    84    1
   139    80    81    2
   140    94    95    1
   141    94    93    1
   142    23    22    1
   143    23    24   ar
   144   110   113    1
   145   110   109    1
   146    91    90   ar
   147    95    96    2
   148    22    19    1
   149    48    47    1
   150    48    51    1
   151   106   108    1
   152    45    47   am
   153    45    44    1
   154    93    87   am
   155    21    20    2
   156    47    53    1
   157    90    92   ar
   158    90    89    1
   159    44    43    1
   160    51    52    1
   161    20    19    1
   162    19    18    1
   163    87    88    2
   164    87    86    1
   165    42    41    1
   166    52    53    1
   167    86    89    1
   168    86    85    1
   169    41    40    1
   170    40    39    1
   171    33    31   am
   172    32    31    2
   173    31    30    1
   174    39    38    1
   175    30    27    1
   176    26    27    1
   177    38    35    1
   178    27    28    1
   179    35    36    1
   180    35    34    1
   181    36    37    2
   182    28    29    2
