@<TRIPOS>MOLECULE
tmp/5upyA00.pdb
 187 177 0 0 0
SMALL
GASTEIGER

@<TRIPOS>ATOM
      1  N         58.1230   18.7440   24.0900 N.3    51  ALA51      -0.1231
      2  CA        58.4230   19.7420   23.0670 C.3    51  ALA51       0.1694
      3  C         57.7290   21.0750   23.3340 C.2    51  ALA51       0.2593
      4  O         56.5610   21.1230   23.7350 O.2    51  ALA51      -0.2718
      5  CB        58.0150   19.2190   21.6900 C.3    51  ALA51       0.0304
      6  N         58.4540   22.1660   23.0800 N.am   52  GLY52      -0.1942
      7  CA        57.8960   23.4990   23.1910 C.3    52  GLY52       0.2014
      8  C         56.9730   23.8540   22.0420 C.2    52  GLY52       0.2638
      9  O         57.3110   24.6940   21.2030 O.2    52  GLY52      -0.2714
     10  N         55.8020   23.2160   21.9920 N.am   53  MET53      -0.1976
     11  CA        54.8530   23.3900   20.9020 C.3    53  MET53       0.1605
     12  C         53.4730   23.6750   21.4740 C.2    53  MET53       0.2287
     13  O         53.1200   23.1850   22.5510 O.2    53  MET53      -0.2864
     14  CB        54.8030   22.1480   19.9980 C.3    53  MET53       0.0413
     15  CG        56.1710   21.6720   19.5330 C.3    53  MET53       0.0598
     16  SD        56.1070   20.1420   18.5890 S.3    53  MET53      -0.1393
     17  CE        55.1440   20.6440   17.1660 C.3    53  MET53       0.0692
     18  N         64.8460   28.5840   20.9010 N.3   126  ASP126     -0.1239
     19  CA        64.3820   27.7410   19.8070 C.3   126  ASP126      0.1674
     20  C         64.4170   28.5360   18.5070 C.2   126  ASP126      0.2266
     21  O         63.7480   29.5690   18.3900 O.2   126  ASP126     -0.2867
     22  CB        62.9640   27.2360   20.0810 C.3   126  ASP126      0.1410
     23  CG        62.8930   25.7240   20.2180 C.2   126  ASP126      0.3668
     24  OD1       63.4060   25.0190   19.3260 O.co2 126  ASP126     -0.2456
     25  OD2       62.3020   25.2360   21.2050 O.co2 126  ASP126     -0.2456
     26  N         67.9970   24.9090   16.6760 N.3   155  ASN155     -0.1240
     27  CA        68.4870   23.5540   16.4710 C.3   155  ASN155      0.1653
     28  C         69.6540   23.5250   15.4870 C.2   155  ASN155      0.2266
     29  O         69.7360   24.3580   14.5800 O.2   155  ASN155     -0.2867
     30  CB        67.3560   22.6530   15.9640 C.3   155  ASN155      0.1155
     31  CG        66.4740   22.1320   17.0840 C.2   155  ASN155      0.2627
     32  OD1       66.4680   22.6740   18.1910 O.2   155  ASN155     -0.2716
     33  ND2       65.7350   21.0640   16.8050 N.am  155  ASN155     -0.0877
     34  N         70.4250   21.5960   21.3460 N.3   174  LYS174     -0.1245
     35  CA        69.3130   20.7890   20.8650 C.3   174  LYS174      0.1561
     36  C         69.5520   20.4340   19.4030 C.2   174  LYS174      0.2260
     37  O         69.8580   21.3090   18.5870 O.2   174  LYS174     -0.2867
     38  CB        67.9830   21.5240   21.0370 C.3   174  LYS174      0.0271
     39  CG        66.7700   20.6270   20.8790 C.3   174  LYS174      0.0035
     40  CD        65.6480   21.0080   21.8540 C.3   174  LYS174      0.0206
     41  CE        65.0600   22.3730   21.5280 C.3   174  LYS174      0.1093
     42  NZ        64.3830   22.3680   20.1960 N.3   174  LYS174     -0.1314
     43  N         68.5910   18.4770   15.7700 N.3   176  GLY176     -0.1225
     44  CA        67.5580   17.9550   14.8980 C.3   176  GLY176      0.1811
     45  C         67.0790   18.9540   13.8670 C.2   176  GLY176      0.2280
     46  O         66.4170   19.9380   14.2090 O.2   176  GLY176     -0.2866
     47  N         64.8550   18.6750   10.5990 N.3   178  GLY178     -0.1210
     48  CA        64.0320   17.9120    9.6930 C.3   178  GLY178      0.1940
     49  C         63.3960   16.5920   10.1300 C.2   178  GLY178      0.2454
     50  O         62.5420   16.0780    9.4010 O.2   178  GLY178     -0.2732
     51  N         63.7610   15.9920   11.2760 N.am  179  PRO179     -0.2717
     52  CA        63.2220   14.6530   11.5670 C.3   179  PRO179      0.1536
     53  C         61.8130   14.6520   12.1430 C.2   179  PRO179      0.2599
     54  O         61.2120   13.5740   12.2380 O.2   179  PRO179     -0.2715
     55  CB        64.2240   14.0920   12.5840 C.3   179  PRO179      0.0310
     56  CG        64.5940   15.2760   13.3790 C.3   179  PRO179      0.0237
     57  CD        64.5950   16.4540   12.4080 C.3   179  PRO179      0.0939
     58  N         61.2680   15.8090   12.5120 N.am  180  GLY180     -0.1941
     59  CA        60.0030   15.8280   13.2290 C.3   180  GLY180      0.2014
     60  C         58.8650   15.2310   12.4140 C.2   180  GLY180      0.2640
     61  O         58.8040   15.3740   11.1900 O.2   180  GLY180     -0.2714
     62  N         57.9440   14.5640   13.1190 N.am  181  SER181     -0.1935
     63  CA        56.8160   13.9020   12.4700 C.3   181  SER181      0.2055
     64  C         55.9320   14.8850   11.7140 C.2   181  SER181      0.2643
     65  O         55.3630   14.5330   10.6750 O.2   181  SER181     -0.2714
     66  CB        55.9930   13.1490   13.5150 C.3   181  SER181      0.2130
     67  OG        55.5280   14.0310   14.5210 O.3   181  SER181     -0.2179
     68  N         55.8060   16.1140   12.2110 N.am  182  ILE182     -0.1963
     69  CA        54.9280   17.1110   11.6050 C.3   182  ILE182      0.1727
     70  C         55.7150   18.0640   10.7130 C.2   182  ILE182      0.2616
     71  O         55.1770   19.0700   10.2340 O.2   182  ILE182     -0.2715
     72  CB        54.1340   17.8710   12.6950 C.3   182  ILE182      0.0290
     73  CG1       55.0600   18.4850   13.7720 C.3   182  ILE182      0.0022
     74  CG2       53.0780   16.9460   13.3150 C.3   182  ILE182      0.0023
     75  CD1       56.1600   19.4220   13.2640 C.3   182  ILE182      0.0001
     76  N         56.9810   17.7400   10.4680 N.am  183  CYS183     -0.1968
     77  CA        57.9240   18.6560    9.8460 C.3   183  CYS183      0.1712
     78  C         58.0360   18.3990    8.3460 C.2   183  CYS183      0.2296
     79  O         58.0330   17.2490    7.8990 O.2   183  CYS183     -0.2864
     80  CB        59.2970   18.5230   10.5090 C.3   183  CYS183      0.0983
     81  SG        60.6510   19.2690    9.5890 S.3   183  CYS183     -0.0798
     82  N         60.4660   20.5190    6.6140 N.3   185  THR185     -0.1218
     83  CA        61.6920   21.2380    6.2710 C.3   185  THR185      0.1862
     84  C         62.4540   20.5520    5.1430 C.2   185  THR185      0.2287
     85  O         62.9570   21.2150    4.2290 O.2   185  THR185     -0.2866
     86  CB        62.5900   21.3640    7.5070 C.3   185  THR185      0.1770
     87  OG1       61.9820   22.2440    8.4640 O.3   185  THR185     -0.2211
     88  CG2       63.9700   21.8980    7.1330 C.3   185  THR185      0.0375
     89  N         66.2770   15.7700   19.4190 N.3   216  ASP216     -0.1225
     90  CA        64.9640   16.3820   19.2420 C.3   216  ASP216      0.1805
     91  C         64.3880   16.0180   17.8770 C.2   216  ASP216      0.2598
     92  O         64.8520   16.5260   16.8490 O.2   216  ASP216     -0.2718
     93  CB        65.0690   17.8980   19.3970 C.3   216  ASP216      0.1424
     94  CG        63.7510   18.6110   19.1470 C.2   216  ASP216      0.3668
     95  OD1       62.6870   17.9560   19.2180 O.co2 216  ASP216     -0.2456
     96  OD2       63.7850   19.8340   18.8840 O.co2 216  ASP216     -0.2456
     97  N         63.3640   15.1770   17.8710 N.am  217  GLY217     -0.1942
     98  CA        62.5770   14.9230   16.6800 C.3   217  GLY217      0.2014
     99  C         62.7710   13.5120   16.1450 C.2   217  GLY217      0.2639
    100  O         63.8370   12.8990   16.2930 O.2   217  GLY217     -0.2714
    101  N         61.7220   12.9890   15.5110 N.am  218  GLY218     -0.1939
    102  CA        61.8000   11.7210   14.8160 C.3   218  GLY218      0.2014
    103  C         61.6040   10.4880   15.6710 C.2   218  GLY218      0.2638
    104  O         61.5710    9.3790   15.1210 O.2   218  GLY218     -0.2714
    105  N         61.4790   10.6380   16.9890 N.am  219  ILE219     -0.1977
    106  CA        61.2430    9.4990   17.8740 C.3   219  ILE219      0.1596
    107  C         59.8260    8.9810   17.6510 C.2   219  ILE219      0.2287
    108  O         58.8480    9.7150   17.8390 O.2   219  ILE219     -0.2864
    109  CB        61.4520    9.8950   19.3410 C.3   219  ILE219      0.0276
    110  CG1       62.7890   10.6210   19.5360 C.3   219  ILE219      0.0022
    111  CG2       61.3440    8.6690   20.2370 C.3   219  ILE219      0.0022
    112  CD1       63.9650    9.7280   19.7140 C.3   219  ILE219      0.0001
    113  N         63.8000   14.8450   23.1790 N.3   237  MET237     -0.1230
    114  CA        62.6310   15.7110   23.1800 C.3   237  MET237      0.1702
    115  C         61.5410   15.0630   22.3380 C.2   237  MET237      0.2592
    116  O         61.8090   14.5630   21.2430 O.2   237  MET237     -0.2718
    117  CB        62.9630   17.1080   22.6510 C.3   237  MET237      0.0401
    118  CG        61.7390   17.9890   22.4780 C.3   237  MET237      0.0596
    119  SD        62.1350   19.7360   22.3100 S.3   237  MET237     -0.1393
    120  CE        62.4500   20.1550   24.0200 C.3   237  MET237      0.0692
    121  N         60.3160   15.0570   22.8610 N.am  238  LEU238     -0.1966
    122  CA        59.2110   14.3110   22.2730 C.3   238  LEU238      0.1728
    123  C         58.0410   15.2380   21.9740 C.2   238  LEU238      0.2617
    124  O         57.6320   16.0310   22.8310 O.2   238  LEU238     -0.2715
    125  CB        58.7440   13.1920   23.2090 C.3   238  LEU238      0.0311
    126  CG        59.7920   12.2350   23.7770 C.3   238  LEU238      0.0022
    127  CD1       59.1470   11.2870   24.7730 C.3   238  LEU238      0.0001
    128  CD2       60.4680   11.4700   22.6530 C.3   238  LEU238      0.0001
    129  N         57.5060   15.1290   20.7610 N.am  239  GLY239     -0.1940
    130  CA        56.2500   15.7660   20.4210 C.3   239  GLY239      0.2014
    131  C         55.1950   14.7220   20.1200 C.2   239  GLY239      0.2640
    132  O         54.2480   14.5400   20.8900 O.2   239  GLY239     -0.2714
    133  N         55.4000   13.9970   19.0160 N.am  240  SER240     -0.1935
    134  CA        54.4450   12.9980   18.5440 C.3   240  SER240      0.2055
    135  C         54.0150   12.0360   19.6490 C.2   240  SER240      0.2642
    136  O         52.8250   11.7330   19.7920 O.2   240  SER240     -0.2714
    137  CB        55.0640   12.2270   17.3740 C.3   240  SER240      0.2130
    138  OG        54.1760   11.2630   16.8370 O.3   240  SER240     -0.2179
    139  N         54.9630   11.5540   20.4490 N.am  241  MET241     -0.1976
    140  CA        54.6380   10.5310   21.4350 C.3   241  MET241      0.1605
    141  C         53.9240   11.0890   22.6560 C.2   241  MET241      0.2287
    142  O         53.3230   10.3180   23.4120 O.2   241  MET241     -0.2864
    143  CB        55.9070    9.7990   21.8560 C.3   241  MET241      0.0413
    144  CG        56.5890    9.1210   20.6870 C.3   241  MET241      0.0598
    145  SD        57.3900    7.6060   21.1940 S.3   241  MET241     -0.1393
    146  CE        58.5260    8.2550   22.4080 C.3   241  MET241      0.0692
    147  N         47.5150   17.8680   16.4930 N.3   263  TYR263     -0.1241
    148  CA        48.9600   18.0110   16.6130 C.3   263  TYR263      0.1605
    149  C         49.4570   18.7070   15.3560 C.2   263  TYR263      0.2264
    150  O         49.1520   18.2710   14.2390 O.2   263  TYR263     -0.2867
    151  CB        49.6490   16.6510   16.8060 C.3   263  TYR263      0.0534
    152  CG        51.1520   16.7370   16.9970 C.ar  263  TYR263     -0.0201
    153  CD1       51.9980   15.8110   16.4030 C.ar  263  TYR263     -0.0009
    154  CD2       51.7220   17.7550   17.7540 C.ar  263  TYR263     -0.0009
    155  CE1       53.3730   15.8880   16.5650 C.ar  263  TYR263      0.0417
    156  CE2       53.0940   17.8420   17.9240 C.ar  263  TYR263      0.0417
    157  CZ        53.9170   16.9080   17.3270 C.ar  263  TYR263      0.1957
    158  OH        55.2860   16.9880   17.4890 O.3   263  TYR263     -0.2866
    159  N         52.7490   21.2710   13.5240 N.3   265  GLY265     -0.1210
    160  CA        54.0590   21.8800   13.6090 C.3   265  GLY265      0.1956
    161  C         53.9650   23.3520   13.9580 C.2   265  GLY265      0.2612
    162  O         53.0240   24.0480   13.5780 O.2   265  GLY265     -0.2717
    163  N         54.9540   23.8310   14.7150 N.am  266  MET266     -0.1965
    164  CA        55.0030   25.2530   15.0320 C.3   266  MET266      0.1736
    165  C         55.3340   26.1020   13.8150 C.2   266  MET266      0.2617
    166  O         55.1730   27.3260   13.8750 O.2   266  MET266     -0.2715
    167  CB        56.0120   25.5140   16.1510 C.3   266  MET266      0.0427
    168  CG        55.5720   24.9520   17.4960 C.3   266  MET266      0.0599
    169  SD        54.1790   25.8710   18.1800 S.3   266  MET266     -0.1393
    170  CE        55.0290   27.2660   18.9140 C.3   266  MET266      0.0692
    171  N         55.7870   25.4830   12.7270 N.am  267  GLY267     -0.1955
    172  CA        55.9720   26.1260   11.4450 C.3   267  GLY267      0.1869
    173  C         54.8460   25.9050   10.4570 C.2   267  GLY267      0.2309
    174  O         54.9620   26.3320    9.3000 O.2   267  GLY267     -0.2863
    175  N         56.8040   25.3200    7.0440 N.3   280  GLU280     -0.1231
    176  CA        57.6650   24.1440    7.1120 C.3   280  GLU280      0.1699
    177  C         57.0880   23.0960    8.0580 C.2   280  GLU280      0.2592
    178  O         57.8280   22.2950    8.6330 O.2   280  GLU280     -0.2718
    179  CB        59.0900   24.5240    7.5150 C.3   280  GLU280      0.0402
    180  CG        59.8100   25.3570    6.4540 C.3   280  GLU280      0.1161
    181  CD        61.2900   25.5670    6.7440 C.2   280  GLU280      0.3649
    182  OE1       61.9440   24.6440    7.2770 O.co2 280  GLU280     -0.2457
    183  OE2       61.8030   26.6600    6.4330 O.co2 280  GLU280     -0.2457
    184  N         55.7640   23.0770    8.2040 N.am  281  GLY281     -0.1957
    185  CA        55.0900   22.0580    8.9890 C.3   281  GLY281      0.1869
    186  C         53.6640   21.8760    8.5150 C.2   281  GLY281      0.2309
    187  O         53.1000   22.7350    7.8270 O.2   281  GLY281     -0.2863
@<TRIPOS>BOND
     1    85    84    2
     2    84    83    1
     3    83    82    1
     4    83    86    1
     5   183   181   ar
     6   180   181    1
     7   180   179    1
     8   181   182   ar
     9   175   176    1
    10   176   179    1
    11   176   177    1
    12    88    86    1
    13    86    87    1
    14   187   186    2
    15    79    78    2
    16   177   184   am
    17   177   178    2
    18   184   185    1
    19    78    77    1
    20   186   185    1
    21   174   173    2
    22    50    49    2
    23    81    80    1
    24    48    49    1
    25    48    47    1
    26    77    76    1
    27    77    80    1
    28    49    51   am
    29    71    70    2
    30   173   172    1
    31    76    70   am
    32    65    64    2
    33    70    69    1
    34    61    60    2
    35    51    52    1
    36    51    57    1
    37   172   171    1
    38    52    53    1
    39    52    55    1
    40    69    68    1
    41    69    72    1
    42    64    68   am
    43    64    63    1
    44    53    54    2
    45    53    58   am
    46    57    56    1
    47    60    62   am
    48    60    59    1
    49    63    62    1
    50    63    66    1
    51    58    59    1
    52    55    56    1
    53    72    74    1
    54    72    73    1
    55   171   165   am
    56    75    73    1
    57    66    67    1
    58   159   160    1
    59   162   161    2
    60   160   161    1
    61   165   166    2
    62   165   164    1
    63    45    46    2
    64    45    44    1
    65   161   163   am
    66   150   149    2
    67    29    28    2
    68   163   164    1
    69   102   101    1
    70   102   103    1
    71    44    43    1
    72   164   167    1
    73   104   103    2
    74   149   148    1
    75    28    27    1
    76   101    99   am
    77   103   105   am
    78    30    27    1
    79    30    31    1
    80    99   100    2
    81    99    98    1
    82   167   168    1
    83   153   155   ar
    84   153   152   ar
    85    27    26    1
    86   147   148    1
    87   155   157   ar
    88   148   151    1
    89    98    97    1
    90    33    31   am
    91   151   152    1
    92   138   137    1
    93    92    91    2
    94   105   106    1
    95   152   154   ar
    96    31    32    2
    97    17    16    1
    98   157   158    1
    99   157   156   ar
   100   137   134    1
   101   168   169    1
   102   107   108    2
   103   107   106    1
   104   154   156   ar
   105    97    91   am
   106   106   109    1
   107    91    90    1
   108   169   170    1
   109    21    20    2
   110    20    19    1
   111   134   133    1
   112   134   135    1
   113    37    36    2
   114    16    15    1
   115    96    94   ar
   116   133   131   am
   117    94    95   ar
   118    94    93    1
   119    90    93    1
   120    90    89    1
   121    24    23   ar
   122   109   110    1
   123   109   111    1
   124    36    35    1
   125    15    14    1
   126   110   112    1
   127   135   136    2
   128   135   139   am
   129    19    22    1
   130    19    18    1
   131    14    11    1
   132    22    23    1
   133   131   130    1
   134   131   132    2
   135    42    41    1
   136    23    25   ar
   137   130   129    1
   138   139   140    1
   139   144   145    1
   140   144   143    1
   141   129   123   am
   142    35    38    1
   143    35    34    1
   144    39    38    1
   145    39    40    1
   146    11    12    1
   147    11    10    1
   148   145   146    1
   149     9     8    2
   150   116   115    2
   151   140   143    1
   152   140   141    1
   153    12    13    2
   154    41    40    1
   155     5     2    1
   156   123   122    1
   157   123   124    2
   158    10     8   am
   159     8     7    1
   160   122   121    1
   161   122   125    1
   162   119   118    1
   163   119   120    1
   164   115   121   am
   165   115   114    1
   166   118   117    1
   167   117   114    1
   168   128   126    1
   169   141   142    2
   170     2     3    1
   171     2     1    1
   172     6     7    1
   173     6     3   am
   174   113   114    1
   175   125   126    1
   176     3     4    2
   177   126   127    1
