@<TRIPOS>MOLECULE
tmp/5upyA01.pdb
 114 106 0 0 0
SMALL
GASTEIGER

@<TRIPOS>ATOM
      1  N         64.8460   28.5840   20.9010 N.3   126  ASP126     -0.1225
      2  CA        64.3820   27.7410   19.8070 C.3   126  ASP126      0.1805
      3  C         64.4170   28.5360   18.5070 C.2   126  ASP126      0.2598
      4  O         63.7480   29.5690   18.3900 O.2   126  ASP126     -0.2718
      5  CB        62.9640   27.2360   20.0810 C.3   126  ASP126      0.1424
      6  CG        62.8930   25.7240   20.2180 C.2   126  ASP126      0.3668
      7  OD1       63.4060   25.0190   19.3260 O.co2 126  ASP126     -0.2456
      8  OD2       62.3020   25.2360   21.2050 O.co2 126  ASP126     -0.2456
      9  N         65.2000   28.0610   17.5390 N.am  127  THR127     -0.1939
     10  CA        65.2720   28.6700   16.2170 C.3   127  THR127      0.2028
     11  C         65.3190   27.5690   15.1670 C.2   127  THR127      0.2642
     12  O         65.7640   26.4510   15.4370 O.2   127  THR127     -0.2714
     13  CB        66.5050   29.5790   16.0440 C.3   127  THR127      0.1808
     14  OG1       67.6900   28.7740   15.9830 O.3   127  THR127     -0.2208
     15  CG2       66.6300   30.5610   17.1990 C.3   127  THR127      0.0379
     16  N         64.8580   27.9000   13.9600 N.am  128  ALA128     -0.1963
     17  CA        64.9020   26.9360   12.8660 C.3   128  ALA128      0.1728
     18  C         66.3370   26.6130   12.4700 C.2   128  ALA128      0.2616
     19  O         66.6710   25.4480   12.2190 O.2   128  ALA128     -0.2715
     20  CB        64.1270   27.4730   11.6630 C.3   128  ALA128      0.0334
     21  N         67.2010   27.6260   12.4070 N.am  129  HIS129     -0.1973
     22  CA        68.5870   27.4550   11.9740 C.3   129  HIS129      0.1656
     23  C         69.5020   28.0520   13.0410 C.2   129  HIS129      0.2291
     24  O         69.8920   29.2200   12.9580 O.2   129  HIS129     -0.2864
     25  CB        68.8180   28.0960   10.6100 C.3   129  HIS129      0.0771
     26  CG        70.1380   27.7440    9.9980 C.ar  129  HIS129      0.0820
     27  ND1       70.7990   26.5700   10.2870 N.ar  129  HIS129     -0.2267
     28  CD2       70.9260   28.4160    9.1260 C.ar  129  HIS129      0.1154
     29  CE1       71.9350   26.5300    9.6130 C.ar  129  HIS129      0.1986
     30  NE2       72.0350   27.6380    8.9010 N.ar  129  HIS129     -0.2212
     31  N         73.6230   30.1500   12.7220 N.3   132  SER132     -0.1202
     32  CA        73.6130   31.3830   11.9540 C.3   132  SER132      0.2020
     33  C         74.2020   32.5110   12.7870 C.2   132  SER132      0.2619
     34  O         74.1060   32.5160   14.0170 O.2   132  SER132     -0.2717
     35  CB        72.1990   31.7350   11.4860 C.3   132  SER132      0.2103
     36  OG        71.3280   31.8890   12.5830 O.3   132  SER132     -0.2182
     37  N         74.8210   33.4670   12.0910 N.am  133  ALA133     -0.1965
     38  CA        75.5360   34.5470   12.7650 C.3   133  ALA133      0.1728
     39  C         74.6120   35.3440   13.6790 C.2   133  ALA133      0.2617
     40  O         74.9570   35.6300   14.8310 O.2   133  ALA133     -0.2715
     41  CB        76.1930   35.4610   11.7320 C.3   133  ALA133      0.0334
     42  N         73.4290   35.7110   13.1830 N.am  134  GLY134     -0.1940
     43  CA        72.5240   36.5160   13.9850 C.3   134  GLY134      0.2014
     44  C         72.0440   35.7920   15.2260 C.2   134  GLY134      0.2638
     45  O         71.8930   36.3940   16.2910 O.2   134  GLY134     -0.2714
     46  N         71.8090   34.4880   15.1110 N.am  135  VAL135     -0.1977
     47  CA        71.3500   33.7170   16.2590 C.3   135  VAL135      0.1596
     48  C         72.4770   33.5460   17.2730 C.2   135  VAL135      0.2287
     49  O         72.3010   33.7970   18.4720 O.2   135  VAL135     -0.2864
     50  CB        70.7890   32.3640   15.7880 C.3   135  VAL135      0.0276
     51  CG1       70.5730   31.4320   16.9630 C.3   135  VAL135      0.0022
     52  CG2       69.4890   32.5820   15.0170 C.3   135  VAL135      0.0022
     53  N         56.9810   17.7400   10.4680 N.3   183  CYS183     -0.1235
     54  CA        57.9240   18.6560    9.8460 C.3   183  CYS183      0.1677
     55  C         58.0360   18.3990    8.3460 C.2   183  CYS183      0.2270
     56  O         58.0330   17.2490    7.8990 O.2   183  CYS183     -0.2867
     57  CB        59.2970   18.5230   10.5090 C.3   183  CYS183      0.0956
     58  SG        60.6510   19.2690    9.5890 S.3   183  CYS183     -0.0801
     59  N         60.4660   20.5190    6.6140 N.3   185  THR185     -0.1218
     60  CA        61.6920   21.2380    6.2710 C.3   185  THR185      0.1862
     61  C         62.4540   20.5520    5.1430 C.2   185  THR185      0.2287
     62  O         62.9570   21.2150    4.2290 O.2   185  THR185     -0.2866
     63  CB        62.5900   21.3640    7.5070 C.3   185  THR185      0.1770
     64  OG1       61.9820   22.2440    8.4640 O.3   185  THR185     -0.2211
     65  CG2       63.9700   21.8980    7.1330 C.3   185  THR185      0.0375
     66  N         62.5720   22.8290    1.8950 N.3   189  ALA189     -0.1245
     67  CA        63.8690   23.4580    1.6960 C.3   189  ALA189      0.1562
     68  C         64.9360   22.5000    1.1740 C.2   189  ALA189      0.2260
     69  O         65.9870   22.9660    0.7230 O.2   189  ALA189     -0.2867
     70  CB        64.3540   24.0950    3.0060 C.3   189  ALA189      0.0290
     71  N         54.9540   23.8310   14.7150 N.3   266  MET266     -0.1230
     72  CA        55.0030   25.2530   15.0320 C.3   266  MET266      0.1702
     73  C         55.3340   26.1020   13.8150 C.2   266  MET266      0.2592
     74  O         55.1730   27.3260   13.8750 O.2   266  MET266     -0.2718
     75  CB        56.0120   25.5140   16.1510 C.3   266  MET266      0.0401
     76  CG        55.5720   24.9520   17.4960 C.3   266  MET266      0.0596
     77  SD        54.1790   25.8710   18.1800 S.3   266  MET266     -0.1393
     78  CE        55.0290   27.2660   18.9140 C.3   266  MET266      0.0692
     79  N         55.7870   25.4830   12.7270 N.am  267  GLY267     -0.1957
     80  CA        55.9720   26.1260   11.4450 C.3   267  GLY267      0.1869
     81  C         54.8460   25.9050   10.4570 C.2   267  GLY267      0.2309
     82  O         54.9620   26.3320    9.3000 O.2   267  GLY267     -0.2863
     83  N         51.6450   29.6190   12.7840 N.3   272  MET272     -0.1245
     84  CA        52.2210   30.9410   12.5730 C.3   272  MET272      0.1570
     85  C         51.1720   32.0490   12.6390 C.2   272  MET272      0.2261
     86  O         51.5270   33.1990   12.9190 O.2   272  MET272     -0.2867
     87  CB        52.9720   30.9770   11.2400 C.3   272  MET272      0.0387
     88  CG        54.1210   29.9660   11.1660 C.3   272  MET272      0.0595
     89  SD        55.2140   30.1260    9.7310 S.3   272  MET272     -0.1393
     90  CE        54.0810   29.7970    8.3840 C.3   272  MET272      0.0692
     91  N         57.7400   34.0670    5.6750 N.3   277  LEU277     -0.1231
     92  CA        58.2970   32.7450    5.4290 C.3   277  LEU277      0.1693
     93  C         57.2150   31.7320    5.0690 C.2   277  LEU277      0.2591
     94  O         56.0810   31.7930    5.5510 O.2   277  LEU277     -0.2718
     95  CB        59.0820   32.2550    6.6490 C.3   277  LEU277      0.0284
     96  CG        60.3950   32.9900    6.9390 C.3   277  LEU277      0.0019
     97  CD1       61.1120   32.3730    8.1300 C.3   277  LEU277      0.0001
     98  CD2       61.2920   32.9890    5.7130 C.3   277  LEU277      0.0001
     99  N         57.5930   30.7860    4.2170 N.am  278  VAL278     -0.1980
    100  CA        56.7070   29.7440    3.7030 C.3   278  VAL278      0.1595
    101  C         56.6310   28.6400    4.7570 C.2   278  VAL278      0.2287
    102  O         57.6140   28.4180    5.4780 O.2   278  VAL278     -0.2864
    103  CB        57.2220   29.2490    2.3360 C.3   278  VAL278      0.0276
    104  CG1       58.2790   28.1540    2.4880 C.3   278  VAL278      0.0022
    105  CG2       56.0930   28.8250    1.4330 C.3   278  VAL278      0.0022
    106  N         56.8040   25.3200    7.0440 N.3   280  GLU280     -0.1245
    107  CA        57.6650   24.1440    7.1120 C.3   280  GLU280      0.1567
    108  C         57.0880   23.0960    8.0580 C.2   280  GLU280      0.2260
    109  O         57.8280   22.2950    8.6330 O.2   280  GLU280     -0.2867
    110  CB        59.0900   24.5240    7.5150 C.3   280  GLU280      0.0388
    111  CG        59.8100   25.3570    6.4540 C.3   280  GLU280      0.1160
    112  CD        61.2900   25.5670    6.7440 C.2   280  GLU280      0.3649
    113  OE1       61.9440   24.6440    7.2770 O.co2 280  GLU280     -0.2457
    114  OE2       61.8030   26.6600    6.4330 O.co2 280  GLU280     -0.2457
@<TRIPOS>BOND
     1    69    68    2
     2    68    67    1
     3   105   103    1
     4    67    66    1
     5    67    70    1
     6   103   104    1
     7   103   100    1
     8   100    99    1
     9   100   101    1
    10    99    93   am
    11    62    61    2
    12   101   102    2
    13    93    92    1
    14    93    94    2
    15    61    60    1
    16    92    91    1
    17    92    95    1
    18    98    96    1
    19    60    59    1
    20    60    63    1
    21   114   112   ar
    22   111   112    1
    23   111   110    1
    24    95    96    1
    25   112   113   ar
    26    96    97    1
    27   106   107    1
    28   107   110    1
    29   107   108    1
    30    65    63    1
    31    63    64    1
    32    56    55    2
    33   108   109    2
    34    55    54    1
    35    90    89    1
    36    30    28   ar
    37    30    29   ar
    38    28    26   ar
    39    82    81    2
    40    58    57    1
    41    29    27   ar
    42    89    88    1
    43    54    53    1
    44    54    57    1
    45    26    27   ar
    46    26    25    1
    47    81    80    1
    48    25    22    1
    49    88    87    1
    50    87    84    1
    51    80    79    1
    52    35    32    1
    53    35    36    1
    54    20    17    1
    55    41    38    1
    56    32    31    1
    57    32    33    1
    58    22    21    1
    59    22    23    1
    60    37    38    1
    61    37    33   am
    62    19    18    2
    63    21    18   am
    64    18    17    1
    65    84    85    1
    66    84    83    1
    67    85    86    2
    68    79    73   am
    69    38    39    1
    70    33    34    2
    71    17    16    1
    72    24    23    2
    73    42    39   am
    74    42    43    1
    75    39    40    2
    76    73    74    2
    77    73    72    1
    78    16    11   am
    79    43    44    1
    80    71    72    1
    81    52    50    1
    82    72    75    1
    83    46    44   am
    84    46    47    1
    85    11    12    2
    86    11    10    1
    87    44    45    2
    88    50    47    1
    89    50    51    1
    90    14    13    1
    91    13    10    1
    92    13    15    1
    93    75    76    1
    94    10     9    1
    95    47    48    1
    96    48    49    2
    97    76    77    1
    98     9     3   am
    99    77    78    1
   100     4     3    2
   101     3     2    1
   102     7     6   ar
   103     2     5    1
   104     2     1    1
   105     5     6    1
   106     6     8   ar
