@<TRIPOS>MOLECULE
tmp/5upzB00.pdb
 101 95 0 0 0
SMALL
GASTEIGER

@<TRIPOS>ATOM
      1  N         17.2550   26.3140   28.0390 N.3    23  LEU23      -0.1245
      2  CA        16.8560   27.2830   27.0300 C.3    23  LEU23       0.1561
      3  C         15.3650   27.1570   26.7300 C.2    23  LEU23       0.2260
      4  O         14.8900   26.0440   26.3790 O.2    23  LEU23      -0.2867
      5  CB        17.6890   26.9760   25.7580 C.3    23  LEU23       0.0270
      6  CG        17.4340   27.8610   24.5400 C.3    23  LEU23       0.0019
      7  CD1       17.9390   29.2550   24.8060 C.3    23  LEU23       0.0001
      8  CD2       18.2020   27.2770   23.3440 C.3    23  LEU23       0.0001
      9  N         12.5010   27.0670   24.4570 N.3    25  ASP25      -0.1239
     10  CA        12.6790   26.6950   23.0270 C.3    25  ASP25       0.1674
     11  C         11.3370   26.4730   22.3480 C.2    25  ASP25       0.2266
     12  O         10.8040   25.3690   22.3230 O.2    25  ASP25      -0.2867
     13  CB        13.5570   25.4380   22.9650 C.3    25  ASP25       0.1410
     14  CG        14.0040   25.1190   21.5440 C.2    25  ASP25       0.3668
     15  OD1       13.4880   25.7590   20.5950 O.co2  25  ASP25      -0.2456
     16  OD2       14.8390   24.2210   21.3810 O.co2  25  ASP25      -0.2456
     17  N         10.6850   26.2840   19.3260 N.3    27  GLY27      -0.1210
     18  CA        10.8330   25.4200   18.1310 C.3    27  GLY27       0.1956
     19  C         10.9270   23.9270   18.4950 C.2    27  GLY27       0.2612
     20  O         11.1870   23.1140   17.5700 O.2    27  GLY27      -0.2717
     21  N         10.7550   23.5530   19.7580 N.am   28  ALA28      -0.1965
     22  CA        10.8120   22.1570   20.1650 C.3    28  ALA28       0.1728
     23  C          9.4390   21.7130   20.6970 C.2    28  ALA28       0.2616
     24  O          8.8960   22.3830   21.6110 O.2    28  ALA28      -0.2715
     25  CB        11.8560   21.9950   21.2540 C.3    28  ALA28       0.0334
     26  N          8.9100   20.6220   20.2010 N.am   29  ASP29      -0.1957
     27  CA         7.6600   20.1120   20.7780 C.3    29  ASP29       0.1840
     28  C          7.8950   19.6200   22.2110 C.2    29  ASP29       0.2622
     29  O          6.9830   19.6690   23.0430 O.2    29  ASP29      -0.2715
     30  CB         7.1390   18.8910   20.0040 C.3    29  ASP29       0.1450
     31  CG         6.6480   19.2020   18.5870 C.2    29  ASP29       0.3671
     32  OD1        6.5680   20.3440   18.1360 O.co2  29  ASP29      -0.2456
     33  OD2        6.2690   18.1940   17.9340 O.co2  29  ASP29      -0.2456
     34  N          9.0810   19.0680   22.4430 N.am   30  ASP30      -0.1971
     35  CA         9.4530   18.2980   23.6250 C.3    30  ASP30       0.1709
     36  C         10.6150   18.9400   24.3540 C.2    30  ASP30       0.2293
     37  O         11.3640   19.7460   23.8130 O.2    30  ASP30      -0.2864
     38  CB         9.9430   16.8960   23.1770 C.3    30  ASP30       0.1436
     39  CG         8.9610   16.2050   22.2720 C.2    30  ASP30       0.3671
     40  OD1        7.7570   16.0790   22.6700 O.co2  30  ASP30      -0.2456
     41  OD2        9.3760   15.7860   21.1710 O.co2  30  ASP30      -0.2456
     42  N         14.1770   18.3830   26.2710 N.3    32  VAL32      -0.1245
     43  CA        15.3030   17.4560   26.1530 C.3    32  VAL32       0.1561
     44  C         16.3990   17.9520   27.0910 C.2    32  VAL32       0.2260
     45  O         16.8130   19.0860   26.9560 O.2    32  VAL32      -0.2867
     46  CB        15.8240   17.3160   24.6950 C.3    32  VAL32       0.0252
     47  CG1       16.8110   16.1470   24.6580 C.3    32  VAL32       0.0019
     48  CG2       14.7070   17.1110   23.6640 C.3    32  VAL32       0.0019
     49  N         14.2240   11.4790   18.1640 N.3    47  ILE47      -0.1231
     50  CA        13.8290   12.8510   17.7560 C.3    47  ILE47       0.1692
     51  C         14.8310   13.3260   16.7010 C.2    47  ILE47       0.2593
     52  O         16.0520   13.1100   16.7450 O.2    47  ILE47      -0.2718
     53  CB        13.7230   13.7570   18.9760 C.3    47  ILE47       0.0266
     54  CG1       15.0200   13.7920   19.7900 C.3    47  ILE47       0.0019
     55  CG2       12.5240   13.3790   19.8380 C.3    47  ILE47       0.0020
     56  CD1       14.9340   14.7550   20.9650 C.3    47  ILE47       0.0001
     57  N         14.2470   13.9510   15.6960 N.am   48  GLY48      -0.1942
     58  CA        14.9480   14.4160   14.4980 C.3    48  GLY48       0.2014
     59  C         15.2200   15.8890   14.7130 C.2    48  GLY48       0.2639
     60  O         14.3640   16.7550   14.5850 O.2    48  GLY48      -0.2714
     61  N         16.4410   16.2500   15.0470 N.am   49  GLY49      -0.1939
     62  CA        16.7950   17.6540   15.1680 C.3    49  GLY49       0.2014
     63  C         17.4430   18.1200   13.8710 C.2    49  GLY49       0.2638
     64  O         17.4010   17.5280   12.7760 O.2    49  GLY49      -0.2714
     65  N         18.1330   19.2420   13.9750 N.am   50  ILE50      -0.1977
     66  CA        18.6070   19.8910   12.7530 C.3    50  ILE50       0.1596
     67  C         19.6570   19.0280   12.0880 C.2    50  ILE50       0.2287
     68  O         19.7270   19.0670   10.8390 O.2    50  ILE50      -0.2864
     69  CB        19.1370   21.3030   13.0360 C.3    50  ILE50       0.0276
     70  CG1       19.1140   22.1450   11.7570 C.3    50  ILE50       0.0022
     71  CG2       20.4950   21.2450   13.7160 C.3    50  ILE50       0.0022
     72  CD1       19.4010   23.6190   11.9980 C.3    50  ILE50       0.0001
     73  N         22.0490   16.5640   23.8340 N.3    80  THR80      -0.1204
     74  CA        21.6200   17.7670   23.1580 C.3    80  THR80       0.1979
     75  C         22.6470   18.8720   23.4160 C.2    80  THR80       0.2460
     76  O         23.2550   18.8230   24.4870 O.2    80  THR80      -0.2732
     77  CB        20.2160   18.1730   23.6520 C.3    80  THR80       0.1783
     78  OG1       19.9600   19.5230   23.2720 O.3    80  THR80      -0.2211
     79  CG2       20.1440   18.1300   25.1680 C.3    80  THR80       0.0376
     80  N         22.8760   19.8300   22.5250 N.am   81  PRO81      -0.2717
     81  CA        23.8990   20.8440   22.7650 C.3    81  PRO81       0.1535
     82  C         23.6140   21.6400   24.0230 C.2    81  PRO81       0.2598
     83  O         24.5350   22.2230   24.5630 O.2    81  PRO81      -0.2715
     84  CB        23.7860   21.8180   21.5890 C.3    81  PRO81       0.0310
     85  CG        22.4220   21.5260   21.0410 C.3    81  PRO81       0.0237
     86  CD        22.2290   20.0360   21.2180 C.3    81  PRO81       0.0939
     87  N         22.3720   21.7160   24.4510 N.am   82  VAL82      -0.1978
     88  CA        21.9370   22.4900   25.6160 C.3    82  VAL82       0.1596
     89  C         20.6000   21.9170   26.0800 C.2    82  VAL82       0.2287
     90  O         19.8170   21.3560   25.2970 O.2    82  VAL82      -0.2864
     91  CB        21.7950   23.9980   25.3350 C.3    82  VAL82       0.0276
     92  CG1       20.6400   24.2250   24.3620 C.3    82  VAL82       0.0022
     93  CG2       21.5930   24.7890   26.6140 C.3    82  VAL82       0.0022
     94  N         16.8800   21.9200   26.6950 N.3    84  ILE84      -0.1245
     95  CA        15.8520   22.7250   26.0410 C.3    84  ILE84       0.1561
     96  C         14.5000   22.4420   26.6580 C.2    84  ILE84       0.2260
     97  O         14.1140   21.2900   26.8980 O.2    84  ILE84      -0.2867
     98  CB        15.8350   22.4870   24.5070 C.3    84  ILE84       0.0252
     99  CG1       15.7180   21.0560   24.1120 C.3    84  ILE84       0.0019
    100  CG2       17.0540   23.1370   23.8480 C.3    84  ILE84       0.0019
    101  CD1       15.5250   20.8260   22.6060 C.3    84  ILE84       0.0001
@<TRIPOS>BOND
     1    68    67    2
     2    70    72    1
     3    70    69    1
     4    67    66    1
     5    66    69    1
     6    66    65    1
     7    64    63    2
     8    69    71    1
     9    63    65   am
    10    63    62    1
    11    58    59    1
    12    58    57    1
    13    60    59    2
    14    59    61   am
    15    61    62    1
    16    57    51   am
    17    51    52    2
    18    51    50    1
    19    20    19    2
    20    50    49    1
    21    50    53    1
    22    33    31   ar
    23    18    19    1
    24    18    17    1
    25    32    31   ar
    26    19    21   am
    27    31    30    1
    28    53    54    1
    29    53    55    1
    30    21    22    1
    31    54    56    1
    32    30    27    1
    33    22    23    1
    34    22    25    1
    35    26    23   am
    36    26    27    1
    37    15    14   ar
    38    23    24    2
    39    27    28    1
    40    85    86    1
    41    85    84    1
    42    41    39   ar
    43    86    80    1
    44    16    14   ar
    45    14    13    1
    46    84    81    1
    47    28    34   am
    48    28    29    2
    49    39    40   ar
    50    39    38    1
    51    12    11    2
    52    11    10    1
    53    34    35    1
    54    80    81    1
    55    80    75   am
    56   101    99    1
    57    81    82    1
    58    13    10    1
    59    10     9    1
    60    74    75    1
    61    74    77    1
    62    74    73    1
    63    38    35    1
    64    78    77    1
    65     8     6    1
    66    75    76    2
    67    35    36    1
    68    77    79    1
    69    48    46    1
    70    37    36    2
    71   100    98    1
    72    82    87   am
    73    82    83    2
    74    99    98    1
    75    92    91    1
    76    87    88    1
    77    98    95    1
    78     6     7    1
    79     6     5    1
    80    47    46    1
    81    46    43    1
    82    90    89    2
    83    91    88    1
    84    91    93    1
    85    88    89    1
    86     5     2    1
    87    95    96    1
    88    95    94    1
    89    43    42    1
    90    43    44    1
    91     4     3    2
    92    96    97    2
    93     3     2    1
    94    45    44    2
    95     2     1    1
