@<TRIPOS>MOLECULE
tmp/5uq0B00.pdb
 104 96 0 0 0
SMALL
GASTEIGER

@<TRIPOS>ATOM
      1  N         40.2680   26.8190   -8.6500 N.3    22  LEU22      -0.1231
      2  CA        40.6710   27.5030   -7.4180 C.3    22  LEU22       0.1696
      3  C         41.2060   26.5730   -6.3570 C.2    22  LEU22       0.2631
      4  O         41.8890   27.0460   -5.4800 O.2    22  LEU22      -0.2714
      5  CB        39.5160   28.2750   -6.8220 C.3    22  LEU22       0.0284
      6  CG        38.9420   29.3630   -7.7050 C.3    22  LEU22       0.0019
      7  CD1       37.6490   29.8600   -7.0830 C.3    22  LEU22       0.0001
      8  CD2       39.9290   30.4980   -7.8910 C.3    22  LEU22       0.0001
      9  N         40.9040   25.2740   -6.4140 N.am   23  GLY23      -0.1732
     10  CA        41.4610   24.3330   -5.4450 C.2    23  GLY23       0.1340
     11  C         40.9780   22.9000   -5.5760 C.2    23  GLY23       0.2521
     12  O         40.0040   22.6300   -6.2730 O.2    23  GLY23      -0.2816
     13  N         37.1740   22.7250   -6.9270 N.3    27  VAL27      -0.1245
     14  CA        36.4530   23.9660   -6.8970 C.3    27  VAL27       0.1561
     15  C         36.8750   24.8670   -8.0250 C.2    27  VAL27       0.2260
     16  O         38.0720   25.0430   -8.2450 O.2    27  VAL27      -0.2867
     17  CB        36.7720   24.6990   -5.5940 C.3    27  VAL27       0.0252
     18  CG1       35.8900   25.9360   -5.4370 C.3    27  VAL27       0.0019
     19  CG2       36.5970   23.7510   -4.4160 C.3    27  VAL27       0.0019
     20  N         32.0470   30.6730   -6.6060 N.3    41  ALA41      -0.1245
     21  CA        32.8730   29.5010   -6.5450 C.3    41  ALA41       0.1562
     22  C         32.0310   28.2350   -6.6000 C.2    41  ALA41       0.2260
     23  O         31.0670   28.0580   -5.8510 O.2    41  ALA41      -0.2867
     24  CB        33.6630   29.5230   -5.2610 C.3    41  ALA41       0.0290
     25  N         31.6910   24.1820   -6.2490 N.3    43  LYS43      -0.1245
     26  CA        32.2480   22.9740   -5.6930 C.3    43  LYS43       0.1561
     27  C         31.6350   21.7850   -6.3720 C.2    43  LYS43       0.2260
     28  O         30.4140   21.7410   -6.5560 O.2    43  LYS43      -0.2867
     29  CB        31.9370   22.9060   -4.2060 C.3    43  LYS43       0.0271
     30  CG        32.6830   21.7900   -3.4870 C.3    43  LYS43       0.0035
     31  CD        32.6930   21.9740   -1.9660 C.3    43  LYS43       0.0206
     32  CE        33.7510   21.0740   -1.3420 C.3    43  LYS43       0.1093
     33  NZ        33.3800   20.7010    0.0420 N.3    43  LYS43      -0.1314
     34  N         26.8310   17.9720    2.8560 N.3    60  GLU60      -0.1245
     35  CA        27.3500   19.2990    3.0840 C.3    60  GLU60       0.1567
     36  C         26.4060   20.3540    2.5180 C.2    60  GLU60       0.2260
     37  O         26.2140   21.4110    3.1320 O.2    60  GLU60      -0.2867
     38  CB        28.7660   19.4700    2.5060 C.3    60  GLU60       0.0388
     39  CG        29.3020   20.8930    2.6710 C.3    60  GLU60       0.1160
     40  CD        30.5520   21.1670    1.8600 C.2    60  GLU60       0.3649
     41  OE1       31.1740   20.1710    1.3870 O.co2  60  GLU60      -0.2457
     42  OE2       30.8930   22.3840    1.7150 O.co2  60  GLU60      -0.2457
     43  N         30.8260   31.3120    4.6610 N.3    74  ILE74      -0.1245
     44  CA        30.7990   31.1030    3.2340 C.3    74  ILE74       0.1561
     45  C         29.4380   30.5020    2.9240 C.2    74  ILE74       0.2260
     46  O         29.2150   29.2910    3.1600 O.2    74  ILE74      -0.2867
     47  CB        31.9270   30.1550    2.7610 C.3    74  ILE74       0.0252
     48  CG1       33.2990   30.8250    2.8680 C.3    74  ILE74       0.0019
     49  CG2       31.7280   29.7480    1.3110 C.3    74  ILE74       0.0019
     50  CD1       33.6020   31.9120    1.8480 C.3    74  ILE74       0.0001
     51  N         28.8360   28.4810   -4.0430 N.3    90  VAL90      -0.1231
     52  CA        29.0600   29.2320   -2.8070 C.3    90  VAL90       0.1692
     53  C         29.8120   30.5500   -3.0540 C.2    90  VAL90       0.2592
     54  O         30.3390   30.7710   -4.1310 O.2    90  VAL90      -0.2718
     55  CB        29.8350   28.3710   -1.8230 C.3    90  VAL90       0.0266
     56  CG1       29.1090   27.0590   -1.5850 C.3    90  VAL90       0.0020
     57  CG2       31.2260   28.0760   -2.3520 C.3    90  VAL90       0.0020
     58  N         29.8640   31.4330   -2.0670 N.am   91  GLU91      -0.1966
     59  CA        30.4930   32.7600   -2.2810 C.3    91  GLU91       0.1733
     60  C         31.9710   32.6480   -2.5470 C.2    91  GLU91       0.2616
     61  O         32.6880   31.8670   -1.9200 O.2    91  GLU91      -0.2715
     62  CB        30.3130   33.7070   -1.0980 C.3    91  GLU91       0.0429
     63  CG        28.8720   34.0240   -0.7530 C.3    91  GLU91       0.1163
     64  CD        28.7090   34.5920    0.6460 C.2    91  GLU91       0.3649
     65  OE1       29.0450   33.8880    1.6280 O.co2  91  GLU91      -0.2457
     66  OE2       28.2170   35.7320    0.7560 O.co2  91  GLU91      -0.2457
     67  N         32.4200   33.4770   -3.4700 N.am   92  TYR92      -0.1960
     68  CA        33.7900   33.5030   -3.8840 C.3    92  TYR92       0.1771
     69  C         34.5740   34.4120   -2.9670 C.2    92  TYR92       0.2619
     70  O         34.1370   35.5420   -2.7170 O.2    92  TYR92      -0.2715
     71  CB        33.8510   34.0540   -5.2890 C.3    92  TYR92       0.0574
     72  CG        35.2450   34.2350   -5.8180 C.ar   92  TYR92      -0.0198
     73  CD1       36.1300   33.1590   -5.8870 C.ar   92  TYR92      -0.0009
     74  CD2       35.6770   35.4780   -6.2680 C.ar   92  TYR92      -0.0009
     75  CE1       37.4170   33.3220   -6.3760 C.ar   92  TYR92       0.0417
     76  CE2       36.9550   35.6450   -6.7630 C.ar   92  TYR92       0.0417
     77  CZ        37.8120   34.5630   -6.8260 C.ar   92  TYR92       0.1957
     78  OH        39.0720   34.7510   -7.3280 O.3    92  TYR92      -0.2866
     79  N         35.7370   33.9280   -2.5000 N.am   93  ALA93      -0.1977
     80  CA        36.6440   34.7070   -1.6650 C.3    93  ALA93       0.1597
     81  C         37.8800   35.1110   -2.4520 C.2    93  ALA93       0.2287
     82  O         38.8240   34.3170   -2.5710 O.2    93  ALA93      -0.2864
     83  CB        37.0460   33.8970   -0.4430 C.3    93  ALA93       0.0319
     84  N         38.2880   32.4080    4.9200 N.3   143  LEU143     -0.1245
     85  CA        38.6550   32.9800    3.6330 C.3   143  LEU143      0.1561
     86  C         38.2630   34.4470    3.6690 C.2   143  LEU143      0.2260
     87  O         37.4090   34.8430    4.4670 O.2   143  LEU143     -0.2867
     88  CB        37.9720   32.2480    2.4740 C.3   143  LEU143      0.0270
     89  CG        38.0920   30.7110    2.4660 C.3   143  LEU143      0.0019
     90  CD1       37.3140   30.1110    1.3040 C.3   143  LEU143      0.0001
     91  CD2       39.5470   30.2480    2.4240 C.3   143  LEU143      0.0001
     92  N         34.7120   28.9080    6.6030 N.3   153  ALA153     -0.1231
     93  CA        34.5240   27.9970    5.5270 C.3   153  ALA153      0.1694
     94  C         34.6900   26.5960    6.0440 C.2   153  ALA153      0.2592
     95  O         35.2720   26.3830    7.0980 O.2   153  ALA153     -0.2718
     96  CB        35.5590   28.2680    4.4800 C.3   153  ALA153      0.0304
     97  N         34.1800   25.6450    5.2620 N.am  154  ASP154     -0.1974
     98  CA        34.2160   24.2220    5.5850 C.3   154  ASP154      0.1709
     99  C         33.5490   23.8810    6.9160 C.2   154  ASP154      0.2293
    100  O         33.8780   22.8590    7.5390 O.2   154  ASP154     -0.2864
    101  CB        35.6350   23.6550    5.4820 C.3   154  ASP154      0.1436
    102  CG        36.1290   23.5710    4.0410 C.2   154  ASP154      0.3671
    103  OD1       35.3860   23.9530    3.1360 O.co2 154  ASP154     -0.2456
    104  OD2       37.2750   23.1520    3.7970 O.co2 154  ASP154     -0.2456
@<TRIPOS>BOND
     1     1     2    1
     2    16    15    2
     3    15    14    1
     4     8     6    1
     5     6     7    1
     6     6     5    1
     7     2     5    1
     8     2     3    1
     9    78    77    1
    10    13    14    1
    11    14    17    1
    12    77    76   ar
    13    77    75   ar
    14    76    74   ar
    15    20    21    1
    16    22    21    1
    17    22    23    2
    18    28    27    2
    19    21    24    1
    20     9     3    1
    21     9    10    2
    22    75    73   ar
    23    27    26    1
    24     3     4    2
    25    12    11    2
    26    74    72   ar
    27    25    26    1
    28    73    72   ar
    29    72    71    1
    30    26    29    1
    31    17    18    1
    32    17    19    1
    33    11    10    1
    34    71    68    1
    35    29    30    1
    36    54    53    2
    37    51    52    1
    38    68    67    1
    39    68    69    1
    40    30    31    1
    41    67    60   am
    42    53    52    1
    43    53    58   am
    44    69    70    2
    45    69    79   am
    46    52    55    1
    47    82    81    2
    48    60    59    1
    49    60    61    2
    50    79    80    1
    51    81    80    1
    52    57    55    1
    53    59    58    1
    54    59    62    1
    55    31    32    1
    56    55    56    1
    57    80    83    1
    58    32    33    1
    59    62    63    1
    60    63    64    1
    61    64    66   ar
    62    64    65   ar
    63    90    89    1
    64    49    47    1
    65    41    40   ar
    66    42    40   ar
    67    50    48    1
    68    40    39    1
    69    91    89    1
    70    89    88    1
    71    88    85    1
    72    38    39    1
    73    38    35    1
    74    36    35    1
    75    36    37    2
    76    47    48    1
    77    47    44    1
    78    34    35    1
    79    45    46    2
    80    45    44    1
    81   103   102   ar
    82    44    43    1
    83    85    86    1
    84    85    84    1
    85    86    87    2
    86   104   102   ar
    87   102   101    1
    88    96    93    1
    89    97    98    1
    90    97    94   am
    91   101    98    1
    92    93    94    1
    93    93    92    1
    94    98    99    1
    95    94    95    2
    96    99   100    2
