@<TRIPOS>MOLECULE
tmp/5uq9E00.pdb
 130 123 0 0 0
SMALL
GASTEIGER

@<TRIPOS>ATOM
      1  N        188.1690   -3.3500  218.7180 N.3    13  MET13      -0.1245
      2  CA       188.3850   -2.7450  220.0270 C.3    13  MET13       0.1570
      3  C        189.1040   -1.4080  219.9090 C.2    13  MET13       0.2261
      4  O        188.7540   -0.4480  220.6050 O.2    13  MET13      -0.2867
      5  CB       189.1720   -3.7000  220.9230 C.3    13  MET13       0.0387
      6  CG       189.3700   -3.1940  222.3400 C.3    13  MET13       0.0595
      7  SD       189.5780   -4.5480  223.5070 S.3    13  MET13      -0.1393
      8  CE       188.0780   -5.4780  223.1970 C.3    13  MET13       0.0692
      9  N        197.0240   -7.2480  226.4780 N.3   102  ASN102     -0.1240
     10  CA       197.2550   -8.2020  227.5610 C.3   102  ASN102      0.1653
     11  C        198.7160   -8.6600  227.5750 C.2   102  ASN102      0.2266
     12  O        199.0420   -9.8310  227.3840 O.2   102  ASN102     -0.2867
     13  CB       196.3040   -9.3850  227.4320 C.3   102  ASN102      0.1155
     14  CG       194.8710   -9.0210  227.7640 C.2   102  ASN102      0.2627
     15  OD1      194.4050   -9.2490  228.8810 O.2   102  ASN102     -0.2716
     16  ND2      194.1640   -8.4520  226.7950 N.am  102  ASN102     -0.0877
     17  N        189.6340   -3.6660  230.1640 N.3   128  SER128     -0.1202
     18  CA       188.6110   -4.6960  230.2560 C.3   128  SER128      0.2020
     19  C        187.2530   -4.0950  229.9290 C.2   128  SER128      0.2619
     20  O        186.9750   -2.9350  230.2450 O.2   128  SER128     -0.2717
     21  CB       188.5740   -5.3370  231.6490 C.3   128  SER128      0.2103
     22  OG       187.4690   -6.2150  231.7680 O.3   128  SER128     -0.2182
     23  N        186.4070   -4.8980  229.2910 N.am  129  GLY129     -0.1942
     24  CA       185.0750   -4.4520  228.9360 C.3   129  GLY129      0.2014
     25  C        184.5920   -4.9870  227.6070 C.2   129  GLY129      0.2639
     26  O        183.4370   -4.7750  227.2260 O.2   129  GLY129     -0.2714
     27  N        185.4680   -5.6870  226.8920 N.am  130  GLY130     -0.1954
     28  CA       185.0820   -6.2170  225.5970 C.3   130  GLY130      0.1869
     29  C        184.8370   -5.1010  224.6050 C.2   130  GLY130      0.2309
     30  O        185.4910   -4.0530  224.6330 O.2   130  GLY130     -0.2863
     31  N        195.3660   -6.4740  235.6090 N.3   183  LYS183     -0.1245
     32  CA       194.5540   -7.0210  234.5280 C.3   183  LYS183      0.1561
     33  C        194.6830   -8.5360  234.4490 C.2   183  LYS183      0.2260
     34  O        193.7150   -9.2260  234.1060 O.2   183  LYS183     -0.2867
     35  CB       194.9500   -6.3820  233.1960 C.3   183  LYS183      0.0271
     36  CG       194.1750   -6.9120  232.0000 C.3   183  LYS183      0.0035
     37  CD       192.6940   -6.6100  232.1310 C.3   183  LYS183      0.0206
     38  CE       191.8640   -7.5330  231.2560 C.3   183  LYS183      0.1093
     39  NZ       192.3420   -7.5560  229.8470 N.3   183  LYS183     -0.1314
     40  N        192.6200   -9.9430  237.1410 N.3   186  HIS186     -0.1226
     41  CA       191.2330   -9.7060  236.7540 C.3   186  HIS186      0.1752
     42  C        190.7020  -10.8410  235.8870 C.2   186  HIS186      0.2596
     43  O        189.6130  -11.3710  236.1370 O.2   186  HIS186     -0.2718
     44  CB       191.1160   -8.3690  236.0200 C.3   186  HIS186      0.0759
     45  CG       189.8580   -8.2280  235.2210 C.ar  186  HIS186      0.0818
     46  ND1      189.7420   -8.6910  233.9280 N.ar  186  HIS186     -0.2268
     47  CD2      188.6610   -7.6780  235.5320 C.ar  186  HIS186      0.1154
     48  CE1      188.5280   -8.4340  233.4780 C.ar  186  HIS186      0.1986
     49  NE2      187.8520   -7.8180  234.4310 N.ar  186  HIS186     -0.2212
     50  N        191.4580  -11.2240  234.8550 N.am  187  ASN187     -0.1974
     51  CA       191.0290  -12.3290  234.0040 C.3   187  ASN187      0.1688
     52  C        191.0300  -13.6460  234.7700 C.2   187  ASN187      0.2292
     53  O        190.1470  -14.4860  234.5660 O.2   187  ASN187     -0.2864
     54  CB       191.9210  -12.4260  232.7680 C.3   187  ASN187      0.1181
     55  CG       191.7030  -11.2790  231.8000 C.2   187  ASN187      0.2629
     56  OD1      192.6530  -10.6420  231.3500 O.2   187  ASN187     -0.2716
     57  ND2      190.4440  -11.0100  231.4760 N.am  187  ASN187     -0.0877
     58  N        188.0320  -13.6790  236.4330 N.3   190  GLU190     -0.1231
     59  CA       187.0060  -13.9290  235.4250 C.3   190  GLU190      0.1699
     60  C        186.9080  -15.4140  235.0950 C.2   190  GLU190      0.2592
     61  O        185.8070  -15.9430  234.9040 O.2   190  GLU190     -0.2718
     62  CB       187.3020  -13.1100  234.1680 C.3   190  GLU190      0.0402
     63  CG       186.3710  -13.3850  233.0000 C.3   190  GLU190      0.1161
     64  CD       186.7400  -12.5840  231.7670 C.2   190  GLU190      0.3649
     65  OE1      187.4470  -11.5640  231.9090 O.co2 190  GLU190     -0.2457
     66  OE2      186.3270  -12.9760  230.6560 O.co2 190  GLU190     -0.2457
     67  N        188.0510  -16.1030  235.0250 N.am  191  TYR191     -0.1976
     68  CA       188.0350  -17.5480  234.8150 C.3   191  TYR191      0.1639
     69  C        187.2770  -18.2580  235.9300 C.2   191  TYR191      0.2290
     70  O        186.5510  -19.2270  235.6790 O.2   191  TYR191     -0.2864
     71  CB       189.4650  -18.0830  234.7230 C.3   191  TYR191      0.0560
     72  CG       190.0850  -18.0100  233.3440 C.ar  191  TYR191     -0.0198
     73  CD1      190.1650  -16.8070  232.6570 C.ar  191  TYR191     -0.0009
     74  CD2      190.6130  -19.1440  232.7390 C.ar  191  TYR191     -0.0009
     75  CE1      190.7380  -16.7350  231.4010 C.ar  191  TYR191      0.0417
     76  CE2      191.1890  -19.0820  231.4830 C.ar  191  TYR191      0.0417
     77  CZ       191.2490  -17.8750  230.8190 C.ar  191  TYR191      0.1957
     78  OH       191.8210  -17.8070  229.5700 O.3   191  TYR191     -0.2866
     79  N        188.1680  -22.4160  225.2570 N.3   258  GLY258     -0.1210
     80  CA       189.3910  -21.9080  224.6800 C.3   258  GLY258      0.1956
     81  C        190.1540  -21.0040  225.6380 C.2   258  GLY258      0.2612
     82  O        189.6600  -20.5910  226.6830 O.2   258  GLY258     -0.2717
     83  N        191.3900  -20.6980  225.2490 N.am  259  GLN259     -0.1965
     84  CA       192.2800  -19.8820  226.0620 C.3   259  GLN259      0.1733
     85  C        193.1350  -19.0070  225.1580 C.2   259  GLN259      0.2616
     86  O        193.6840  -19.4870  224.1620 O.2   259  GLN259     -0.2715
     87  CB       193.1660  -20.7610  226.9590 C.3   259  GLN259      0.0408
     88  CG       194.5980  -20.2670  227.1410 C.3   259  GLN259      0.0908
     89  CD       195.5530  -20.8570  226.1180 C.2   259  GLN259      0.2608
     90  OE1      195.2770  -21.8990  225.5230 O.2   259  GLN259     -0.2717
     91  NE2      196.6800  -20.1870  225.9030 N.am  259  GLN259     -0.0878
     92  N        193.2290  -17.7230  225.5020 N.am  260  LYS260     -0.1963
     93  CA       194.1580  -16.8140  224.8470 C.3   260  LYS260      0.1728
     94  C        195.4450  -16.6270  225.6380 C.2   260  LYS260      0.2617
     95  O        196.4550  -16.2020  225.0650 O.2   260  LYS260     -0.2715
     96  CB       193.4900  -15.4510  224.6120 C.3   260  LYS260      0.0311
     97  CG       194.2780  -14.4960  223.7230 C.3   260  LYS260      0.0038
     98  CD       194.6810  -15.1540  222.4120 C.3   260  LYS260      0.0206
     99  CE       195.4660  -14.1940  221.5290 C.3   260  LYS260      0.1093
    100  NZ       196.6950  -13.6910  222.2040 N.3   260  LYS260     -0.1314
    101  N        195.4360  -16.9480  226.9300 N.am  261  GLY261     -0.1940
    102  CA       196.6370  -16.8780  227.7370 C.3   261  GLY261      0.2014
    103  C        196.6290  -15.7460  228.7410 C.2   261  GLY261      0.2639
    104  O        197.3350  -14.7490  228.5660 O.2   261  GLY261     -0.2714
    105  N        195.8260  -15.8800  229.7960 N.am  262  THR262     -0.1950
    106  CA       195.8270  -14.8940  230.8690 C.3   262  THR262      0.1897
    107  C        195.5400  -15.5670  232.2050 C.2   262  THR262      0.2313
    108  O        196.2500  -15.3300  233.1880 O.2   262  THR262     -0.2863
    109  CB       194.8040  -13.7860  230.6060 C.3   262  THR262      0.1794
    110  OG1      194.7610  -13.4870  229.2050 O.3   262  THR262     -0.2208
    111  CG2      195.2030  -12.5310  231.3640 C.3   262  THR262      0.0378
    112  N        189.1690  -25.5750  232.0020 N.3   287  ARG287     -0.1245
    113  CA       189.1120  -25.2970  230.5710 C.3   287  ARG287      0.1563
    114  C        189.9770  -26.2740  229.7880 C.2   287  ARG287      0.2260
    115  O        189.5850  -26.7330  228.7080 O.2   287  ARG287     -0.2867
    116  CB       189.5480  -23.8580  230.2930 C.3   287  ARG287      0.0307
    117  CG       188.6060  -22.7990  230.8370 C.3   287  ARG287      0.0489
    118  CD       188.8730  -21.4520  230.1860 C.3   287  ARG287      0.2205
    119  NE       187.9470  -20.4220  230.6450 N.pl3 287  ARG287     -0.0865
    120  CZ       187.9190  -19.1800  230.1710 C.cat 287  ARG287      0.5346
    121  NH1      188.7670  -18.8140  229.2200 N.pl3 287  ARG287      0.1354
    122  NH2      187.0430  -18.3060  230.6460 N.pl3 287  ARG287      0.1354
    123  N        184.1600   -7.1970  233.0520 N.3   366  ILE366     -0.1245
    124  CA       183.2260   -8.3010  232.8670 C.3   366  ILE366      0.1561
    125  C        182.8160   -8.8810  234.2140 C.2   366  ILE366      0.2260
    126  O        181.7140   -9.4280  234.3520 O.2   366  ILE366     -0.2867
    127  CB       183.8520   -9.3680  231.9530 C.3   366  ILE366      0.0252
    128  CG1      184.2850   -8.7360  230.6300 C.3   366  ILE366      0.0019
    129  CG2      182.8800  -10.5090  231.6940 C.3   366  ILE366      0.0019
    130  CD1      183.1520   -8.0710  229.8800 C.3   366  ILE366      0.0001
@<TRIPOS>BOND
     1     1     2    1
     2     3     2    1
     3     3     4    2
     4     2     5    1
     5     5     6    1
     6    99   100    1
     7    99    98    1
     8     6     7    1
     9    98    97    1
    10     8     7    1
    11    97    96    1
    12    86    85    2
    13    29    30    2
    14    29    28    1
    15    96    93    1
    16    80    79    1
    17    80    81    1
    18    93    92    1
    19    93    94    1
    20    95    94    2
    21    85    92   am
    22    85    84    1
    23    83    81   am
    24    83    84    1
    25    90    89    2
    26    28    27    1
    27    81    82    2
    28    94   101   am
    29    91    89   am
    30    84    87    1
    31    89    88    1
    32     9    10    1
    33    16    14   am
    34    27    25   am
    35   101   102    1
    36    87    88    1
    37    26    25    2
    38    12    11    2
    39    13    10    1
    40    13    14    1
    41    10    11    1
    42    25    24    1
    43   102   103    1
    44    14    15    2
    45   104   103    2
    46   115   114    2
    47   103   105   am
    48    24    23    1
    49   110   109    1
    50   121   120    1
    51    23    19   am
    52    78    77    1
    53   114   113    1
    54   105   106    1
    55    39    38    1
    56   130   128    1
    57    19    20    2
    58    19    18    1
    59    17    18    1
    60   120   119    2
    61   120   122    1
    62   118   119    1
    63   118   117    1
    64    18    21    1
    65   116   113    1
    66   116   117    1
    67   113   112    1
    68   109   106    1
    69   109   111    1
    70   128   127    1
    71    66    64   ar
    72    77    75   ar
    73    77    76   ar
    74   106   107    1
    75    38    37    1
    76    56    55    2
    77    75    73   ar
    78    57    55   am
    79    76    74   ar
    80    21    22    1
    81   129   127    1
    82    64    65   ar
    83    64    63    1
    84    55    54    1
    85   127   124    1
    86    36    37    1
    87    36    35    1
    88   107   108    2
    89    73    72   ar
    90    74    72   ar
    91    54    51    1
    92   124   123    1
    93   124   125    1
    94    63    62    1
    95    35    32    1
    96    72    71    1
    97    48    46   ar
    98    48    49   ar
    99    46    45   ar
   100    51    52    1
   101    51    50    1
   102    34    33    2
   103    62    59    1
   104   125   126    2
   105    49    47   ar
   106    33    32    1
   107    32    31    1
   108    53    52    2
   109    71    68    1
   110    68    67    1
   111    68    69    1
   112    50    42   am
   113    61    60    2
   114    67    60   am
   115    60    59    1
   116    45    47   ar
   117    45    44    1
   118    59    58    1
   119    70    69    2
   120    42    43    2
   121    42    41    1
   122    44    41    1
   123    41    40    1
