@<TRIPOS>MOLECULE
tmp/5uqdA00.pdb
 130 122 0 0 0
SMALL
GASTEIGER

@<TRIPOS>ATOM
      1  N         59.0740   32.5850   42.8800 N.3   189  TRP189     -0.1241
      2  CA        58.1630   33.7180   42.9120 C.3   189  TRP189      0.1605
      3  C         56.7180   33.2470   42.8730 C.2   189  TRP189      0.2264
      4  O         56.4310   32.0600   42.6860 O.2   189  TRP189     -0.2867
      5  CB        58.4660   34.6940   41.7890 C.3   189  TRP189      0.0550
      6  CG        58.0870   34.2710   40.4160 C.ar  189  TRP189      0.0003
      7  CD1       56.9610   34.6380   39.7230 C.ar  189  TRP189      0.0946
      8  CD2       58.8480   33.4350   39.5520 C.ar  189  TRP189      0.0152
      9  NE1       56.9830   34.0800   38.4400 N.ar  189  TRP189     -0.2442
     10  CE2       58.1380   33.3500   38.3100 C.ar  189  TRP189      0.0810
     11  CE3       60.0780   32.7780   39.6810 C.ar  189  TRP189      0.0012
     12  CZ2       58.6110   32.6130   37.2120 C.ar  189  TRP189      0.0191
     13  CZ3       60.5620   32.0300   38.5500 C.ar  189  TRP189      0.0001
     14  CH2       59.8170   31.9630   37.3470 C.ar  189  TRP189      0.0015
     15  N         52.6920   34.5190   41.5130 N.3   191  ARG191     -0.1245
     16  CA        51.8380   35.3970   40.7290 C.3   191  ARG191      0.1563
     17  C         50.3790   35.1750   41.1220 C.2   191  ARG191      0.2260
     18  O         49.9660   34.0300   41.3120 O.2   191  ARG191     -0.2867
     19  CB        52.0100   35.1070   39.2270 C.3   191  ARG191      0.0307
     20  CG        53.4440   35.3090   38.6820 C.3   191  ARG191      0.0489
     21  CD        54.0280   36.6690   39.0190 C.3   191  ARG191      0.2205
     22  NE        53.3240   37.7440   38.3230 N.pl3 191  ARG191     -0.0865
     23  CZ        53.8060   38.9790   38.1190 C.cat 191  ARG191      0.5346
     24  NH1       54.9880   39.3370   38.6150 N.pl3 191  ARG191      0.1354
     25  NH2       53.0800   39.8900   37.4550 N.pl3 191  ARG191      0.1354
     26  N         54.5680   38.2090   31.4340 N.3   206  THR206     -0.1218
     27  CA        55.9970   38.3530   31.1770 C.3   206  THR206      0.1862
     28  C         56.1380   38.5000   29.6640 C.2   206  THR206      0.2287
     29  O         55.7670   37.5730   28.9390 O.2   206  THR206     -0.2866
     30  CB        56.7780   37.1020   31.6120 C.3   206  THR206      0.1770
     31  OG1       56.5680   36.8140   33.0060 O.3   206  THR206     -0.2211
     32  CG2       58.2430   37.3140   31.3830 C.3   206  THR206      0.0375
     33  N         60.8110   36.9440   25.6410 N.3   209  HIS209     -0.1241
     34  CA        62.2420   37.0400   25.8540 C.3   209  HIS209      0.1621
     35  C         62.9010   35.7050   25.5100 C.2   209  HIS209      0.2264
     36  O         62.2410   34.6480   25.4270 O.2   209  HIS209     -0.2867
     37  CB        62.5330   37.4170   27.3240 C.3   209  HIS209      0.0745
     38  CG        61.9880   36.4250   28.2940 C.ar  209  HIS209      0.0817
     39  ND1       60.6330   36.2670   28.5200 N.ar  209  HIS209     -0.2268
     40  CD2       62.6100   35.4920   29.0420 C.ar  209  HIS209      0.1154
     41  CE1       60.4450   35.2960   29.3940 C.ar  209  HIS209      0.1986
     42  NE2       61.6280   34.8070   29.7230 N.ar  209  HIS209     -0.2212
     43  N         65.9680   33.4470   27.3730 N.3   211  ASP211     -0.1239
     44  CA        66.7600   33.3640   28.5990 C.3   211  ASP211      0.1674
     45  C         68.2430   33.2880   28.2980 C.2   211  ASP211      0.2266
     46  O         68.6560   32.6400   27.3390 O.2   211  ASP211     -0.2867
     47  CB        66.3510   32.1560   29.4220 C.3   211  ASP211      0.1410
     48  CG        65.1610   32.4700   30.2970 C.2   211  ASP211      0.3668
     49  OD1       64.0960   32.5580   29.7370 O.co2 211  ASP211     -0.2456
     50  OD2       65.2780   32.7120   31.5210 O.co2 211  ASP211     -0.2456
     51  N         66.1810   26.8930   30.2220 N.3   220  ALA220     -0.1231
     52  CA        65.4680   27.2250   31.4550 C.3   220  ALA220      0.1694
     53  C         64.5840   26.0530   31.8510 C.2   220  ALA220      0.2591
     54  O         64.0660   25.3250   30.9980 O.2   220  ALA220     -0.2718
     55  CB        64.5960   28.5010   31.2960 C.3   220  ALA220      0.0304
     56  N         64.4150   25.8570   33.1610 N.am  221  VAL221     -0.1980
     57  CA        63.6410   24.7380   33.6930 C.3   221  VAL221      0.1595
     58  C         62.7590   25.3420   34.7640 C.2   221  VAL221      0.2287
     59  O         63.2510   26.1760   35.5240 O.2   221  VAL221     -0.2864
     60  CB        64.5370   23.6400   34.3160 C.3   221  VAL221      0.0276
     61  CG1       63.6940   22.4820   34.7690 C.3   221  VAL221      0.0022
     62  CG2       65.5650   23.0900   33.2480 C.3   221  VAL221      0.0022
     63  N         49.4650   28.7850   33.5790 N.3   240  LYS240     -0.1245
     64  CA        50.1110   29.6770   32.6020 C.3   240  LYS240      0.1561
     65  C         49.5590   29.3850   31.2280 C.2   240  LYS240      0.2260
     66  O         49.2860   28.2280   30.9020 O.2   240  LYS240     -0.2867
     67  CB        51.6230   29.4850   32.5220 C.3   240  LYS240      0.0271
     68  CG        52.3420   29.5570   33.8760 C.3   240  LYS240      0.0035
     69  CD        52.5030   31.0160   34.3690 C.3   240  LYS240      0.0206
     70  CE        53.3770   30.9630   35.6320 C.3   240  LYS240      0.1093
     71  NZ        53.5340   32.3210   36.2350 N.3   240  LYS240     -0.1314
     72  N         58.4450   22.0620   33.4510 N.3   299  TYR299     -0.1241
     73  CA        58.6500   22.3470   32.0150 C.3   299  TYR299      0.1605
     74  C         60.1120   22.7130   31.8120 C.2   299  TYR299      0.2264
     75  O         60.8090   23.0930   32.7570 O.2   299  TYR299     -0.2867
     76  CB        57.7330   23.4950   31.5170 C.3   299  TYR299      0.0534
     77  CG        58.0230   24.8410   32.1760 C.ar  299  TYR299     -0.0201
     78  CD1       57.3760   25.2250   33.3580 C.ar  299  TYR299     -0.0009
     79  CD2       58.8880   25.7690   31.5930 C.ar  299  TYR299     -0.0009
     80  CE1       57.6440   26.4420   33.9790 C.ar  299  TYR299      0.0417
     81  CE2       59.1870   26.9820   32.2300 C.ar  299  TYR299      0.0417
     82  CZ        58.5340   27.3140   33.4040 C.ar  299  TYR299      0.1957
     83  OH        58.8030   28.5180   34.0130 O.3   299  TYR299     -0.2866
     84  N         62.6430   24.8380   28.6360 N.3   301  LEU301     -0.1245
     85  CA        62.6730   25.6640   27.4250 C.3   301  LEU301      0.1561
     86  C         64.0890   25.5710   26.8870 C.2   301  LEU301      0.2260
     87  O         65.0170   26.1110   27.5220 O.2   301  LEU301     -0.2867
     88  CB        62.3200   27.1190   27.7780 C.3   301  LEU301      0.0270
     89  CG        60.8800   27.3080   28.2360 C.3   301  LEU301      0.0019
     90  CD1       60.6820   28.5620   29.0760 C.3   301  LEU301      0.0001
     91  CD2       59.9750   27.3000   26.9740 C.3   301  LEU301      0.0001
     92  N         60.1270   33.0810   24.3530 N.3   307  HIS307     -0.1241
     93  CA        58.8570   32.6360   24.9180 C.3   307  HIS307      0.1621
     94  C         58.2000   33.7550   25.7300 C.2   307  HIS307      0.2264
     95  O         58.8380   34.7150   26.1690 O.2   307  HIS307     -0.2867
     96  CB        59.0280   31.3890   25.7980 C.3   307  HIS307      0.0745
     97  CG        60.0970   31.5640   26.8330 C.ar  307  HIS307      0.0817
     98  ND1       61.4390   31.4870   26.5200 N.ar  307  HIS307     -0.2268
     99  CD2       60.0280   31.9170   28.1380 C.ar  307  HIS307      0.1154
    100  CE1       62.1530   31.7180   27.6120 C.ar  307  HIS307      0.1986
    101  NE2       61.3210   32.0150   28.5830 N.ar  307  HIS307     -0.2212
    102  N         54.9720   34.2740   28.7500 N.3   309  PHE309     -0.1241
    103  CA        54.1010   33.5920   29.7020 C.3   309  PHE309      0.1605
    104  C         53.0160   34.5460   30.2080 C.2   309  PHE309      0.2264
    105  O         53.2790   35.7160   30.4840 O.2   309  PHE309     -0.2867
    106  CB        54.9250   33.0970   30.9420 C.3   309  PHE309      0.0534
    107  CG        55.6330   31.7730   30.7580 C.ar  309  PHE309     -0.0203
    108  CD1       56.4390   31.5050   29.6450 C.ar  309  PHE309     -0.0042
    109  CD2       55.4890   30.7750   31.7180 C.ar  309  PHE309     -0.0042
    110  CE1       57.0760   30.2810   29.5190 C.ar  309  PHE309     -0.0003
    111  CE2       56.1400   29.5290   31.5930 C.ar  309  PHE309     -0.0003
    112  CZ        56.9220   29.2740   30.5110 C.ar  309  PHE309     -0.0000
    113  N         49.9700   34.5600   33.3250 N.3   311  THR311     -0.1218
    114  CA        49.4670   33.7910   34.4730 C.3   311  THR311      0.1862
    115  C         47.9540   33.8510   34.5600 C.2   311  THR311      0.2287
    116  O         47.3880   34.9050   34.8530 O.2   311  THR311     -0.2866
    117  CB        50.0830   34.3420   35.7570 C.3   311  THR311      0.1770
    118  OG1       51.4910   34.1100   35.6850 O.3   311  THR311     -0.2211
    119  CG2       49.5570   33.5080   36.9310 C.3   311  THR311      0.0375
    120  N         56.1640   29.6940   41.1030 N.3   317  SER317     -0.1217
    121  CA        57.1170   29.1020   40.1710 C.3   317  SER317      0.1889
    122  C         58.4630   28.9990   40.8560 C.2   317  SER317      0.2288
    123  O         58.8690   29.9010   41.5940 O.2   317  SER317     -0.2866
    124  CB        57.3180   29.9420   38.8780 C.3   317  SER317      0.2089
    125  OG        56.1390   30.1240   38.1200 O.3   317  SER317     -0.2183
    126  N         62.2900   28.4490   39.2120 N.3   319  ALA319     -0.1245
    127  CA        62.8870   28.2910   37.8850 C.3   319  ALA319      0.1562
    128  C         64.3740   28.6200   37.9290 C.2   319  ALA319      0.2260
    129  O         64.8400   29.3510   38.8010 O.2   319  ALA319     -0.2867
    130  CB        62.1920   29.1880   36.8440 C.3   319  ALA319      0.0290
@<TRIPOS>BOND
     1    92    93    1
     2    93    94    1
     3    93    96    1
     4    36    35    2
     5    35    34    1
     6    33    34    1
     7    94    95    2
     8    96    97    1
     9    34    37    1
    10    98    97   ar
    11    98   100   ar
    12    97    99   ar
    13    86    85    1
    14    86    87    2
    15    91    89    1
    16    37    38    1
    17    46    45    2
    18    43    44    1
    19    85    88    1
    20    85    84    1
    21   100   101   ar
    22    88    89    1
    23    99   101   ar
    24    89    90    1
    25    38    39   ar
    26    38    40   ar
    27    45    44    1
    28    39    41   ar
    29    44    47    1
    30   102   103    1
    31    29    28    2
    32    40    42   ar
    33    41    42   ar
    34    47    48    1
    35   110   108   ar
    36   110   112   ar
    37   108   107   ar
    38    28    27    1
    39   103   104    1
    40   103   106    1
    41    49    48   ar
    42   104   105    2
    43    51    52    1
    44    48    50   ar
    45   112   111   ar
    46   107   106    1
    47   107   109   ar
    48    66    65    2
    49    54    53    2
    50    27    26    1
    51    27    30    1
    52    65    64    1
    53    55    52    1
    54    32    30    1
    55    52    53    1
    56    76    73    1
    57    76    77    1
    58   111   109   ar
    59    79    77   ar
    60    79    81   ar
    61    30    31    1
    62    74    73    1
    63    74    75    2
    64    53    56   am
    65    73    72    1
    66    77    78   ar
    67    81    82   ar
    68    67    64    1
    69    67    68    1
    70    64    63    1
    71    56    57    1
    72    62    60    1
    73   113   114    1
    74    78    80   ar
    75    82    80   ar
    76    82    83    1
    77    57    60    1
    78    57    58    1
    79    68    69    1
    80    60    61    1
    81    69    70    1
    82   114   115    1
    83   114   117    1
    84   115   116    2
    85    58    59    2
    86    70    71    1
    87   118   117    1
    88   117   119    1
    89   130   127    1
    90    12    14   ar
    91    12    10   ar
    92    14    13   ar
    93    25    23    1
    94   127   128    1
    95   127   126    1
    96   128   129    2
    97    23    22    2
    98    23    24    1
    99   125   124    1
   100    10     9   ar
   101    10     8   ar
   102    22    21    1
   103     9     7   ar
   104    13    11   ar
   105    20    21    1
   106    20    19    1
   107   124   121    1
   108    19    16    1
   109     8    11   ar
   110     8     6   ar
   111     7     6   ar
   112   121   122    1
   113   121   120    1
   114     6     5    1
   115    16    17    1
   116    16    15    1
   117   122   123    2
   118    17    18    2
   119     5     2    1
   120     4     3    2
   121     3     2    1
   122     1     2    1
