@<TRIPOS>MOLECULE
tmp/5uqdA01.pdb
 90 89 0 0 0
SMALL
GASTEIGER

@<TRIPOS>ATOM
      1  N         73.9220   33.2870   39.4700 N.3   183  ASP183     -0.1225
      2  CA        72.9630   33.9390   38.5970 C.3   183  ASP183      0.1805
      3  C         71.9840   32.9550   37.9830 C.2   183  ASP183      0.2597
      4  O         70.8900   33.3680   37.5950 O.2   183  ASP183     -0.2718
      5  CB        73.6960   34.7100   37.5090 C.3   183  ASP183      0.1424
      6  CG        73.6280   36.1940   37.7350 C.2   183  ASP183      0.3668
      7  OD1       72.4880   36.6900   37.9250 O.co2 183  ASP183     -0.2456
      8  OD2       74.7040   36.8460   37.7590 O.co2 183  ASP183     -0.2456
      9  N         72.3300   31.6640   37.9360 N.am  184  ASP184     -0.1974
     10  CA        71.4380   30.6490   37.3700 C.3   184  ASP184      0.1709
     11  C         70.2180   30.3550   38.2330 C.2   184  ASP184      0.2293
     12  O         69.2920   29.7230   37.7440 O.2   184  ASP184     -0.2864
     13  CB        72.1990   29.3340   37.1400 C.3   184  ASP184      0.1436
     14  CG        73.2500   29.4340   36.0490 C.2   184  ASP184      0.3671
     15  OD1       73.2660   30.4310   35.2980 O.co2 184  ASP184     -0.2456
     16  OD2       74.0700   28.5010   35.9430 O.co2 184  ASP184     -0.2456
     17  N         65.3340   30.4980   41.4540 N.3   187  ILE187     -0.1245
     18  CA        64.5960   31.5990   42.0530 C.3   187  ILE187      0.1561
     19  C         63.1450   31.1890   42.2390 C.2   187  ILE187      0.2260
     20  O         62.6110   30.3520   41.5100 O.2   187  ILE187     -0.2867
     21  CB        64.7010   32.8770   41.2160 C.3   187  ILE187      0.0252
     22  CG1       64.1260   32.6480   39.7910 C.3   187  ILE187      0.0019
     23  CG2       66.1660   33.3090   41.1230 C.3   187  ILE187      0.0019
     24  CD1       64.1670   33.9020   38.9610 C.3   187  ILE187      0.0001
     25  N         59.0740   32.5850   42.8800 N.3   189  TRP189     -0.1241
     26  CA        58.1630   33.7180   42.9120 C.3   189  TRP189      0.1605
     27  C         56.7180   33.2470   42.8730 C.2   189  TRP189      0.2264
     28  O         56.4310   32.0600   42.6860 O.2   189  TRP189     -0.2867
     29  CB        58.4660   34.6940   41.7890 C.3   189  TRP189      0.0550
     30  CG        58.0870   34.2710   40.4160 C.ar  189  TRP189      0.0003
     31  CD1       56.9610   34.6380   39.7230 C.ar  189  TRP189      0.0946
     32  CD2       58.8480   33.4350   39.5520 C.ar  189  TRP189      0.0152
     33  NE1       56.9830   34.0800   38.4400 N.ar  189  TRP189     -0.2442
     34  CE2       58.1380   33.3500   38.3100 C.ar  189  TRP189      0.0810
     35  CE3       60.0780   32.7780   39.6810 C.ar  189  TRP189      0.0012
     36  CZ2       58.6110   32.6130   37.2120 C.ar  189  TRP189      0.0191
     37  CZ3       60.5620   32.0300   38.5500 C.ar  189  TRP189      0.0001
     38  CH2       59.8170   31.9630   37.3470 C.ar  189  TRP189      0.0015
     39  N         60.8110   36.9440   25.6410 N.3   209  HIS209     -0.1241
     40  CA        62.2420   37.0400   25.8540 C.3   209  HIS209      0.1621
     41  C         62.9010   35.7050   25.5100 C.2   209  HIS209      0.2264
     42  O         62.2410   34.6480   25.4270 O.2   209  HIS209     -0.2867
     43  CB        62.5330   37.4170   27.3240 C.3   209  HIS209      0.0745
     44  CG        61.9880   36.4250   28.2940 C.ar  209  HIS209      0.0817
     45  ND1       60.6330   36.2670   28.5200 N.ar  209  HIS209     -0.2268
     46  CD2       62.6100   35.4920   29.0420 C.ar  209  HIS209      0.1154
     47  CE1       60.4450   35.2960   29.3940 C.ar  209  HIS209      0.1986
     48  NE2       61.6280   34.8070   29.7230 N.ar  209  HIS209     -0.2212
     49  N         65.9680   33.4470   27.3730 N.3   211  ASP211     -0.1239
     50  CA        66.7600   33.3640   28.5990 C.3   211  ASP211      0.1674
     51  C         68.2430   33.2880   28.2980 C.2   211  ASP211      0.2266
     52  O         68.6560   32.6400   27.3390 O.2   211  ASP211     -0.2867
     53  CB        66.3510   32.1560   29.4220 C.3   211  ASP211      0.1410
     54  CG        65.1610   32.4700   30.2970 C.2   211  ASP211      0.3668
     55  OD1       64.0960   32.5580   29.7370 O.co2 211  ASP211     -0.2456
     56  OD2       65.2780   32.7120   31.5210 O.co2 211  ASP211     -0.2456
     57  N         66.1810   26.8930   30.2220 N.3   220  ALA220     -0.1245
     58  CA        65.4680   27.2250   31.4550 C.3   220  ALA220      0.1562
     59  C         64.5840   26.0530   31.8510 C.2   220  ALA220      0.2260
     60  O         64.0660   25.3250   30.9980 O.2   220  ALA220     -0.2867
     61  CB        64.5960   28.5010   31.2960 C.3   220  ALA220      0.0290
     62  N         62.2900   28.4490   39.2120 N.3   319  ALA319     -0.1231
     63  CA        62.8870   28.2910   37.8850 C.3   319  ALA319      0.1694
     64  C         64.3740   28.6200   37.9290 C.2   319  ALA319      0.2592
     65  O         64.8400   29.3510   38.8010 O.2   319  ALA319     -0.2718
     66  CB        62.1920   29.1880   36.8440 C.3   319  ALA319      0.0304
     67  N         65.1120   28.0930   36.9410 N.am  320  TRP320     -0.1962
     68  CA        66.5600   28.2890   36.9130 C.3   320  TRP320      0.1771
     69  C         67.0630   28.1100   35.4890 C.2   320  TRP320      0.2619
     70  O         66.3410   27.6680   34.5900 O.2   320  TRP320     -0.2715
     71  CB        67.3180   27.3330   37.8580 C.3   320  TRP320      0.0590
     72  CG        67.0740   25.8770   37.5840 C.ar  320  TRP320      0.0006
     73  CD1       67.8380   25.0270   36.8400 C.ar  320  TRP320      0.0946
     74  CD2       65.9790   25.1030   38.0910 C.ar  320  TRP320      0.0152
     75  NE1       67.2690   23.7610   36.8300 N.ar  320  TRP320     -0.2442
     76  CE2       66.1300   23.7830   37.5900 C.ar  320  TRP320      0.0810
     77  CE3       64.8760   25.4050   38.8900 C.ar  320  TRP320      0.0012
     78  CZ2       65.2220   22.7690   37.8790 C.ar  320  TRP320      0.0191
     79  CZ3       63.9680   24.3820   39.1910 C.ar  320  TRP320      0.0001
     80  CH2       64.1640   23.0790   38.7010 C.ar  320  TRP320      0.0015
     81  N         68.3180   28.4670   35.3050 N.am  321  HIS321     -0.1973
     82  CA        68.9720   28.2420   34.0230 C.3   321  HIS321      0.1656
     83  C         69.9060   27.0570   34.1750 C.2   321  HIS321      0.2291
     84  O         70.5010   26.8470   35.2460 O.2   321  HIS321     -0.2864
     85  CB        69.7980   29.4590   33.6240 C.3   321  HIS321      0.0771
     86  CG        68.9640   30.6480   33.3170 C.ar  321  HIS321      0.0820
     87  ND1       69.4310   31.9380   33.4420 N.ar  321  HIS321     -0.2267
     88  CD2       67.6830   30.7410   32.8940 C.ar  321  HIS321      0.1154
     89  CE1       68.4740   32.7750   33.0720 C.ar  321  HIS321      0.1986
     90  NE2       67.4040   32.0750   32.7510 N.ar  321  HIS321     -0.2212
@<TRIPOS>BOND
     1    42    41    2
     2    41    40    1
     3    39    40    1
     4    40    43    1
     5    43    44    1
     6    52    51    2
     7    49    50    1
     8    44    45   ar
     9    44    46   ar
    10    51    50    1
    11    45    47   ar
    12    50    53    1
    13    46    48   ar
    14    47    48   ar
    15    53    54    1
    16    55    54   ar
    17    57    58    1
    18    54    56   ar
    19    60    59    2
    20    61    58    1
    21    58    59    1
    22    90    88   ar
    23    90    89   ar
    24    88    86   ar
    25    89    87   ar
    26    86    87   ar
    27    86    85    1
    28    85    82    1
    29    82    83    1
    30    82    81    1
    31    83    84    2
    32    70    69    2
    33    15    14   ar
    34    81    69   am
    35    69    68    1
    36    16    14   ar
    37    14    13    1
    38    75    73   ar
    39    75    76   ar
    40    73    72   ar
    41    66    63    1
    42    68    67    1
    43    68    71    1
    44    67    64   am
    45    13    10    1
    46    36    38   ar
    47    36    34   ar
    48    38    37   ar
    49    10     9    1
    50    10    11    1
    51     5     6    1
    52     5     2    1
    53    72    71    1
    54    72    74   ar
    55    76    78   ar
    56    76    74   ar
    57     4     3    2
    58     6     8   ar
    59     6     7   ar
    60    12    11    2
    61    78    80   ar
    62    63    64    1
    63    63    62    1
    64    64    65    2
    65     9     3   am
    66     3     2    1
    67    74    77   ar
    68    34    33   ar
    69    34    32   ar
    70    33    31   ar
    71    37    35   ar
    72     2     1    1
    73    80    79   ar
    74    77    79   ar
    75    24    22    1
    76    32    35   ar
    77    32    30   ar
    78    31    30   ar
    79    22    21    1
    80    30    29    1
    81    23    21    1
    82    21    18    1
    83    17    18    1
    84    20    19    2
    85    29    26    1
    86    18    19    1
    87    28    27    2
    88    27    26    1
    89    25    26    1
