@<TRIPOS>MOLECULE
tmp/5uqeD00.pdb
 93 90 0 0 0
SMALL
GASTEIGER

@<TRIPOS>ATOM
      1  N        -37.8320   -1.2510 -107.3600 N.3   184  LYS184     -0.1231
      2  CA       -37.5610   -0.1090 -106.4930 C.3   184  LYS184      0.1693
      3  C        -36.0760    0.2340 -106.4690 C.2   184  LYS184      0.2592
      4  O        -35.7080    1.4120 -106.3830 O.2   184  LYS184     -0.2718
      5  CB       -38.0530   -0.4020 -105.0750 C.3   184  LYS184      0.0285
      6  CG       -39.5510   -0.2200 -104.8530 C.3   184  LYS184      0.0035
      7  CD       -40.3850   -0.9960 -105.8600 C.3   184  LYS184      0.0206
      8  CE       -41.8580   -0.9920 -105.4790 C.3   184  LYS184      0.1093
      9  NZ       -42.7250   -1.5080 -106.5740 N.3   184  LYS184     -0.1314
     10  N        -35.2120   -0.7740 -106.5490 N.am  185  LEU185     -0.1966
     11  CA       -33.7970   -0.5690 -106.2710 C.3   185  LEU185      0.1728
     12  C        -33.1650    0.3810 -107.2790 C.2   185  LEU185      0.2616
     13  O        -33.5950    0.4890 -108.4310 O.2   185  LEU185     -0.2715
     14  CB       -33.0450   -1.8990 -106.2900 C.3   185  LEU185      0.0311
     15  CG       -33.4180   -2.9580 -105.2520 C.3   185  LEU185      0.0022
     16  CD1      -32.1520   -3.6420 -104.7570 C.3   185  LEU185      0.0001
     17  CD2      -34.2140   -2.3860 -104.0840 C.3   185  LEU185      0.0001
     18  N        -32.1180    1.0700 -106.8250 N.am  186  PHE186     -0.1960
     19  CA       -31.3510    1.9440 -107.7030 C.3   186  PHE186      0.1771
     20  C        -30.3600    1.1440 -108.5400 C.2   186  PHE186      0.2619
     21  O        -30.3240    1.2770 -109.7680 O.2   186  PHE186     -0.2715
     22  CB       -30.6060    3.0010 -106.8810 C.3   186  PHE186      0.0574
     23  CG       -31.4980    3.8710 -106.0340 C.ar  186  PHE186     -0.0200
     24  CD1      -32.8140    4.1210 -106.3980 C.ar  186  PHE186     -0.0042
     25  CD2      -31.0100    4.4480 -104.8710 C.ar  186  PHE186     -0.0042
     26  CE1      -33.6230    4.9240 -105.6150 C.ar  186  PHE186     -0.0003
     27  CE2      -31.8130    5.2490 -104.0860 C.ar  186  PHE186     -0.0003
     28  CZ       -33.1220    5.4880 -104.4580 C.ar  186  PHE186     -0.0000
     29  N        -29.5560    0.3070 -107.8920 N.am  187  LEU187     -0.1963
     30  CA       -28.4380   -0.3690 -108.5320 C.3   187  LEU187      0.1728
     31  C        -28.6680   -1.8740 -108.5870 C.2   187  LEU187      0.2616
     32  O        -29.6550   -2.4080 -108.0730 O.2   187  LEU187     -0.2715
     33  CB       -27.1330   -0.0650 -107.7930 C.3   187  LEU187      0.0311
     34  CG       -26.7370    1.4030 -107.6560 C.3   187  LEU187      0.0022
     35  CD1      -25.3340    1.5020 -107.0790 C.3   187  LEU187      0.0001
     36  CD2      -26.8210    2.1250 -108.9880 C.3   187  LEU187      0.0001
     37  N        -27.7210   -2.5520 -109.2260 N.am  188  ASN188     -0.1958
     38  CA       -27.6600   -4.0000 -109.3120 C.3   188  ASN188      0.1819
     39  C        -26.4690   -4.4920 -108.4970 C.2   188  ASN188      0.2621
     40  O        -25.6270   -3.7050 -108.0540 O.2   188  ASN188     -0.2715
     41  CB       -27.5530   -4.4390 -110.7790 C.3   188  ASN188      0.1195
     42  CG       -27.6610   -5.9390 -110.9560 C.2   188  ASN188      0.2630
     43  OD1      -28.2860   -6.6290 -110.1510 O.2   188  ASN188     -0.2716
     44  ND2      -27.0470   -6.4530 -112.0150 N.am  188  ASN188     -0.0877
     45  N        -26.4080   -5.8120 -108.2940 N.am  189  GLU189     -0.1977
     46  CA       -25.3650   -6.3950 -107.4520 C.3   189  GLU189      0.1602
     47  C        -23.9830   -5.8650 -107.8170 C.2   189  GLU189      0.2287
     48  O        -23.1260   -5.6860 -106.9430 O.2   189  GLU189     -0.2864
     49  CB       -25.3900   -7.9200 -107.5680 C.3   189  GLU189      0.0415
     50  CG       -24.4920   -8.6260 -106.5540 C.3   189  GLU189      0.1163
     51  CD       -23.4990   -9.5850 -107.1870 C.2   189  GLU189      0.3649
     52  OE1      -23.1800   -9.4240 -108.3840 O.co2 189  GLU189     -0.2457
     53  OE2      -23.0330  -10.5040 -106.4810 O.co2 189  GLU189     -0.2457
     54  N        -23.1520   -3.0000 -108.4170 N.3   191  ASP191     -0.1239
     55  CA       -23.0060   -1.6110 -107.9780 C.3   191  ASP191      0.1674
     56  C        -23.0740   -0.6450 -109.1610 C.2   191  ASP191      0.2266
     57  O        -22.2600    0.2720 -109.2960 O.2   191  ASP191     -0.2867
     58  CB       -21.7100   -1.4170 -107.1840 C.3   191  ASP191      0.1410
     59  CG       -21.7330   -2.1340 -105.8480 C.2   191  ASP191      0.3668
     60  OD1      -22.7810   -2.7200 -105.5070 O.co2 191  ASP191     -0.2456
     61  OD2      -20.7050   -2.1100 -105.1370 O.co2 191  ASP191     -0.2456
     62  N        -36.8010   12.3640 -106.1050 N.3   251  ARG251     -0.1245
     63  CA       -35.8910   11.2560 -105.8220 C.3   251  ARG251      0.1563
     64  C        -34.5790   11.4020 -106.5770 C.2   251  ARG251      0.2260
     65  O        -33.5040   11.1640 -106.0160 O.2   251  ARG251     -0.2867
     66  CB       -36.5520    9.9220 -106.1720 C.3   251  ARG251      0.0307
     67  CG       -37.0430    9.8210 -107.6070 C.3   251  ARG251      0.0489
     68  CD       -37.8470    8.5490 -107.8230 C.3   251  ARG251      0.2205
     69  NE       -37.0800    7.3490 -107.4970 N.pl3 251  ARG251     -0.0865
     70  CZ       -37.5980    6.1280 -107.4130 C.cat 251  ARG251      0.5346
     71  NH1      -36.8200    5.0980 -107.1100 N.pl3 251  ARG251      0.1354
     72  NH2      -38.8920    5.9330 -107.6270 N.pl3 251  ARG251      0.1354
     73  N        -26.6380    8.9810 -103.8010 N.3   258  TYR258     -0.1241
     74  CA       -26.2620    7.5920 -103.5640 C.3   258  TYR258      0.1605
     75  C        -25.2780    7.1180 -104.6230 C.2   258  TYR258      0.2264
     76  O        -24.2380    6.5290 -104.3040 O.2   258  TYR258     -0.2867
     77  CB       -27.4950    6.6890 -103.5400 C.3   258  TYR258      0.0534
     78  CG       -27.1450    5.2780 -103.1370 C.ar  258  TYR258     -0.0201
     79  CD1      -27.0710    4.9190 -101.7990 C.ar  258  TYR258     -0.0009
     80  CD2      -26.8520    4.3150 -104.0900 C.ar  258  TYR258     -0.0009
     81  CE1      -26.7340    3.6360 -101.4220 C.ar  258  TYR258      0.0417
     82  CE2      -26.5130    3.0290 -103.7230 C.ar  258  TYR258      0.0417
     83  CZ       -26.4520    2.6970 -102.3860 C.ar  258  TYR258      0.1957
     84  OH       -26.1200    1.4170 -102.0100 O.3   258  TYR258     -0.2866
     85  N        -21.0360    5.6600 -104.3470 N.3   262  LYS262     -0.1245
     86  CA       -20.5960    4.3570 -104.8330 C.3   262  LYS262      0.1561
     87  C        -19.8320    4.4340 -106.1530 C.2   262  LYS262      0.2260
     88  O        -19.8780    3.4830 -106.9450 O.2   262  LYS262     -0.2867
     89  CB       -21.8000    3.4220 -104.9650 C.3   262  LYS262      0.0271
     90  CG       -22.3520    2.9300 -103.6350 C.3   262  LYS262      0.0035
     91  CD       -21.4510    1.8690 -103.0140 C.3   262  LYS262      0.0206
     92  CE       -21.9670    1.4180 -101.6570 C.3   262  LYS262      0.1093
     93  NZ       -23.3170    0.7980 -101.7430 N.3   262  LYS262     -0.1314
@<TRIPOS>BOND
     1    44    42   am
     2    42    41    1
     3    42    43    2
     4    41    38    1
     5    21    20    2
     6    38    37    1
     7    38    39    1
     8    57    56    2
     9    37    31   am
    10    56    55    1
    11    36    34    1
    12    31    30    1
    13    31    32    2
    14    20    29   am
    15    20    19    1
    16    30    29    1
    17    30    33    1
    18    39    45   am
    19    39    40    2
    20    13    12    2
    21    54    55    1
    22    52    51   ar
    23    45    46    1
    24    55    58    1
    25    68    67    1
    26    68    69    1
    27    47    46    1
    28    47    48    2
    29    33    34    1
    30    19    22    1
    31    19    18    1
    32    34    35    1
    33    72    70    1
    34    67    66    1
    35    49    46    1
    36    49    50    1
    37    69    70    2
    38    70    71    1
    39     1     2    1
    40    12    18   am
    41    12    11    1
    42    51    50    1
    43    51    53   ar
    44    58    59    1
    45    88    87    2
    46    22    23    1
    47    64    65    2
    48    64    63    1
    49     9     8    1
    50    10     3   am
    51    10    11    1
    52     2     3    1
    53     2     5    1
    54     3     4    2
    55    24    23   ar
    56    24    26   ar
    57    14    11    1
    58    14    15    1
    59    66    63    1
    60    87    86    1
    61    62    63    1
    62    23    25   ar
    63     7     8    1
    64     7     6    1
    65    59    60   ar
    66    59    61   ar
    67    26    28   ar
    68    15    16    1
    69    15    17    1
    70     5     6    1
    71    89    86    1
    72    89    90    1
    73    25    27   ar
    74    86    85    1
    75    75    76    2
    76    75    74    1
    77    28    27   ar
    78    80    82   ar
    79    80    78   ar
    80    73    74    1
    81    82    83   ar
    82    90    91    1
    83    74    77    1
    84    77    78    1
    85    78    79   ar
    86    91    92    1
    87    83    84    1
    88    83    81   ar
    89    79    81   ar
    90    93    92    1
