@<TRIPOS>MOLECULE
tmp/5uqfA01.pdb
 96 89 0 0 0
SMALL
GASTEIGER

@<TRIPOS>ATOM
      1  N          2.7650   39.6770   25.6780 N.3   111  VAL111     -0.1245
      2  CA         3.4730   40.4600   26.6780 C.3   111  VAL111      0.1561
      3  C          3.9750   41.7660   26.0610 C.2   111  VAL111      0.2260
      4  O          4.3570   41.8030   24.8840 O.2   111  VAL111     -0.2867
      5  CB         4.6070   39.6000   27.2710 C.3   111  VAL111      0.0252
      6  CG1        5.7330   40.4440   27.7950 C.3   111  VAL111      0.0019
      7  CG2        4.0410   38.7150   28.3820 C.3   111  VAL111      0.0019
      8  N          0.6770   33.1510   26.3430 N.3   132  SER132     -0.1202
      9  CA         2.0990   32.8560   26.2690 C.3   132  SER132      0.2020
     10  C          2.2710   31.3500   26.1340 C.2   132  SER132      0.2619
     11  O          1.3510   30.5640   26.3900 O.2   132  SER132     -0.2717
     12  CB         2.8760   33.3470   27.5010 C.3   132  SER132      0.2103
     13  OG         4.2880   33.1640   27.3660 O.3   132  SER132     -0.2182
     14  N          3.4690   30.9540   25.7060 N.am  133  ALA133     -0.1965
     15  CA         3.8490   29.5520   25.8010 C.3   133  ALA133      0.1728
     16  C          3.9440   29.1150   27.2590 C.2   133  ALA133      0.2616
     17  O          3.5960   27.9780   27.6000 O.2   133  ALA133     -0.2715
     18  CB         5.1740   29.3290   25.0800 C.3   133  ALA133      0.0334
     19  N          4.4020   30.0100   28.1350 N.am  134  HIS134     -0.1973
     20  CA         4.6120   29.7200   29.5540 C.3   134  HIS134      0.1656
     21  C          3.9280   30.8140   30.3720 C.2   134  HIS134      0.2291
     22  O          4.5180   31.8750   30.6110 O.2   134  HIS134     -0.2864
     23  CB         6.1020   29.6370   29.8880 C.3   134  HIS134      0.0771
     24  CG         6.3910   29.0730   31.2480 C.ar  134  HIS134      0.0820
     25  ND1        5.4480   28.3840   31.9850 N.ar  134  HIS134     -0.2267
     26  CD2        7.5220   29.0800   31.9950 C.ar  134  HIS134      0.1154
     27  CE1        5.9820   28.0050   33.1330 C.ar  134  HIS134      0.1986
     28  NE2        7.2410   28.4120   33.1630 N.ar  134  HIS134     -0.2212
     29  N          5.0970   32.7360   34.6290 N.3   137  SER137     -0.1217
     30  CA         6.3660   33.4180   34.4220 C.3   137  SER137      0.1889
     31  C          6.2530   34.8730   34.8550 C.2   137  SER137      0.2288
     32  O          5.1620   35.4460   34.8900 O.2   137  SER137     -0.2866
     33  CB         6.7830   33.3500   32.9590 C.3   137  SER137      0.2089
     34  OG         5.8980   34.1470   32.1980 O.3   137  SER137     -0.2183
     35  N          0.5310   20.8010   18.2570 N.3   188  CYS188     -0.1235
     36  CA         1.5610   21.2390   19.1930 C.3   188  CYS188      0.1677
     37  C          2.6870   20.2180   19.2730 C.2   188  CYS188      0.2270
     38  O          2.4370   19.0120   19.2540 O.2   188  CYS188     -0.2867
     39  CB         0.9420   21.4380   20.5710 C.3   188  CYS188      0.0956
     40  SG         2.1260   21.8980   21.7960 S.3   188  CYS188     -0.0801
     41  N          5.4130   21.0430   21.6220 N.3   190  THR190     -0.1218
     42  CA         6.1390   21.4550   22.8190 C.3   190  THR190      0.1862
     43  C          6.5890   20.2770   23.6780 C.2   190  THR190      0.2287
     44  O          7.7380   20.2390   24.1380 O.2   190  THR190     -0.2866
     45  CB         5.2550   22.3870   23.6310 C.3   190  THR190      0.1770
     46  OG1        5.1610   23.6330   22.9300 O.3   190  THR190     -0.2211
     47  CG2        5.8430   22.6130   25.0170 C.3   190  THR190      0.0375
     48  N         10.6040   20.1350   23.8980 N.3   194  SER194     -0.1217
     49  CA        11.2090   20.5690   25.1520 C.3   194  SER194      0.1889
     50  C         11.0470   19.5860   26.3170 C.2   194  SER194      0.2288
     51  O         11.6590   19.7980   27.3690 O.2   194  SER194     -0.2866
     52  CB        10.6270   21.9240   25.5710 C.3   194  SER194      0.2089
     53  OG         9.2920   21.7520   26.0330 O.3   194  SER194     -0.2183
     54  N          0.4450   28.1640   15.9820 N.3   271  MET271     -0.1230
     55  CA         0.9170   29.5340   16.0500 C.3   271  MET271      0.1702
     56  C          2.4130   29.6040   16.3240 C.2   271  MET271      0.2592
     57  O          3.0120   30.6680   16.1370 O.2   271  MET271     -0.2718
     58  CB         0.1250   30.2990   17.1040 C.3   271  MET271      0.0401
     59  CG        -1.3050   30.6130   16.6470 C.3   271  MET271      0.0596
     60  SD        -1.3690   31.4280   15.0340 S.3   271  MET271     -0.1393
     61  CE        -1.1040   33.1260   15.5020 C.3   271  MET271      0.0692
     62  N          3.0310   28.4930   16.7270 N.am  272  GLY272     -0.1957
     63  CA         4.4680   28.4440   16.9160 C.3   272  GLY272      0.1869
     64  C          5.1780   27.6290   15.8530 C.2   272  GLY272      0.2309
     65  O          6.2980   27.1460   16.0660 O.2   272  GLY272     -0.2863
     66  N          5.0930   31.9710   12.0320 N.3   277  MET277     -0.1245
     67  CA         6.0010   32.9790   12.5440 C.3   277  MET277      0.1570
     68  C          6.6310   33.8210   11.4410 C.2   277  MET277      0.2261
     69  O          7.2010   34.8750   11.7460 O.2   277  MET277     -0.2867
     70  CB         7.0620   32.3120   13.4150 C.3   277  MET277      0.0387
     71  CG         6.4380   31.6250   14.6250 C.3   277  MET277      0.0595
     72  SD         7.6130   31.0190   15.8540 S.3   277  MET277     -0.1393
     73  CE         8.5230   29.8010   14.9030 C.3   277  MET277      0.0692
     74  N         13.2480   28.0380   16.3870 N.3   281  VAL281     -0.1231
     75  CA        13.0090   26.6870   16.8950 C.3   281  VAL281      0.1678
     76  C         11.5240   26.5330   17.1930 C.2   281  VAL281      0.2434
     77  O         11.0590   26.9380   18.2670 O.2   281  VAL281     -0.2733
     78  CB        13.8590   26.3920   18.1370 C.3   281  VAL281      0.0265
     79  CG1       13.4860   25.0350   18.7140 C.3   281  VAL281      0.0020
     80  CG2       15.3620   26.4360   17.7970 C.3   281  VAL281      0.0020
     81  N         10.7470   25.9500   16.2890 N.am  282  PRO282     -0.2718
     82  CA         9.2900   25.9450   16.4540 C.3   282  PRO282      0.1535
     83  C          8.8220   24.9620   17.5120 C.2   282  PRO282      0.2598
     84  O          9.5450   24.0670   17.9490 O.2   282  PRO282     -0.2715
     85  CB         8.7830   25.5200   15.0760 C.3   282  PRO282      0.0310
     86  CG         9.8820   24.6150   14.5760 C.3   282  PRO282      0.0237
     87  CD        11.1720   25.2050   15.0880 C.3   282  PRO282      0.0939
     88  N          7.5740   25.1580   17.9210 N.am  283  GLU283     -0.1978
     89  CA         6.8720   24.2190   18.7810 C.3   283  GLU283      0.1602
     90  C          5.4960   23.9040   18.1980 C.2   283  GLU283      0.2287
     91  O          4.5820   23.5140   18.9320 O.2   283  GLU283     -0.2864
     92  CB         6.7880   24.7600   20.2140 C.3   283  GLU283      0.0415
     93  CG         8.1340   24.6580   20.9810 C.3   283  GLU283      0.1163
     94  CD         8.2410   25.5470   22.2380 C.2   283  GLU283      0.3649
     95  OE1        7.3530   25.4830   23.1240 O.co2 283  GLU283     -0.2457
     96  OE2        9.2340   26.3060   22.3390 O.co2 283  GLU283     -0.2457
@<TRIPOS>BOND
     1    68    69    2
     2    68    67    1
     3    66    67    1
     4    67    70    1
     5    70    71    1
     6    86    85    1
     7    86    87    1
     8    71    72    1
     9    73    72    1
    10    60    61    1
    11    60    59    1
    12    85    82    1
    13    87    81    1
    14    64    65    2
    15    64    63    1
    16    54    55    1
    17    55    56    1
    18    55    58    1
    19    57    56    2
    20    81    82    1
    21    81    76   am
    22    56    62   am
    23    74    75    1
    24    82    83    1
    25    59    58    1
    26    62    63    1
    27    75    76    1
    28    75    78    1
    29    76    77    2
    30    83    88   am
    31    83    84    2
    32    80    78    1
    33    88    89    1
    34    78    79    1
    35    90    89    1
    36    90    91    2
    37    35    36    1
    38    89    92    1
    39    36    37    1
    40    36    39    1
    41    38    37    2
    42    92    93    1
    43    39    40    1
    44    93    94    1
    45    41    42    1
    46    94    96   ar
    47    94    95   ar
    48    42    45    1
    49    42    43    1
    50    46    45    1
    51    45    47    1
    52    43    44    2
    53    48    49    1
    54     4     3    2
    55    18    15    1
    56    49    52    1
    57    49    50    1
    58    52    53    1
    59     1     2    1
    60    14    15    1
    61    14    10   am
    62    15    16    1
    63     3     2    1
    64    10     9    1
    65    10    11    2
    66     9     8    1
    67     9    12    1
    68    50    51    2
    69     2     5    1
    70    16    17    2
    71    16    19   am
    72     5     6    1
    73     5     7    1
    74    13    12    1
    75    19    20    1
    76    20    23    1
    77    20    21    1
    78    23    24    1
    79    21    22    2
    80    24    25   ar
    81    24    26   ar
    82    25    27   ar
    83    26    28   ar
    84    34    33    1
    85    33    30    1
    86    27    28   ar
    87    30    29    1
    88    30    31    1
    89    31    32    2
