@<TRIPOS>MOLECULE
tmp/5uqgC01.pdb
 84 77 0 0 0
SMALL
GASTEIGER

@<TRIPOS>ATOM
      1  N       -115.9650  -16.4540    6.5570 N.3   134  ASP134     -0.1225
      2  CA      -114.7090  -16.7990    7.2120 C.3   134  ASP134      0.1805
      3  C       -114.8510  -18.0820    8.0120 C.2   134  ASP134      0.2598
      4  O       -115.8260  -18.2610    8.7500 O.2   134  ASP134     -0.2718
      5  CB      -114.2540  -15.7040    8.1920 C.3   134  ASP134      0.1424
      6  CG      -113.7350  -14.4710    7.5020 C.2   134  ASP134      0.3668
      7  OD1     -113.4120  -14.5700    6.2990 O.co2 134  ASP134     -0.2456
      8  OD2     -113.6470  -13.4030    8.1700 O.co2 134  ASP134     -0.2456
      9  N       -113.8520  -18.9510    7.8860 N.am  135  SER135     -0.1938
     10  CA      -113.6720  -20.0960    8.7600 C.3   135  SER135      0.2055
     11  C       -112.1830  -20.3360    8.9160 C.2   135  SER135      0.2643
     12  O       -111.3840  -20.0080    8.0250 O.2   135  SER135     -0.2714
     13  CB      -114.3290  -21.3700    8.2170 C.3   135  SER135      0.2130
     14  OG      -113.9830  -22.5040    9.0070 O.3   135  SER135     -0.2179
     15  N       -111.8180  -20.9000   10.0650 N.am  136  ALA136     -0.1963
     16  CA      -110.4720  -21.4210   10.2050 C.3   136  ALA136      0.1728
     17  C       -110.1350  -22.3370    9.0350 C.2   136  ALA136      0.2616
     18  O       -108.9960  -22.3620    8.5590 O.2   136  ALA136     -0.2715
     19  CB      -110.3340  -22.1690   11.5280 C.3   136  ALA136      0.0334
     20  N       -111.1240  -23.0660    8.5310 N.am  137  HIS137     -0.1973
     21  CA      -110.8850  -24.0790    7.5080 C.3   137  HIS137      0.1656
     22  C       -111.9410  -23.9440    6.4170 C.2   137  HIS137      0.2291
     23  O       -113.0360  -24.5090    6.5240 O.2   137  HIS137     -0.2864
     24  CB      -110.8610  -25.4660    8.1450 C.3   137  HIS137      0.0771
     25  CG      -110.5600  -26.5680    7.1860 C.ar  137  HIS137      0.0820
     26  ND1     -109.6940  -26.4060    6.1260 N.ar  137  HIS137     -0.2267
     27  CD2     -110.8710  -27.8860    7.2200 C.ar  137  HIS137      0.1154
     28  CE1     -109.5610  -27.5570    5.4900 C.ar  137  HIS137      0.1986
     29  NE2     -110.2550  -28.4760    6.1400 N.ar  137  HIS137     -0.2212
     30  N       -114.1220  -27.0670    3.6270 N.3   140  SER140     -0.1217
     31  CA      -114.9190  -27.9230    4.4960 C.3   140  SER140      0.1889
     32  C       -116.3660  -27.9470    4.0290 C.2   140  SER140      0.2288
     33  O       -116.8460  -27.0070    3.3850 O.2   140  SER140     -0.2866
     34  CB      -114.8640  -27.4580    5.9550 C.3   140  SER140      0.2089
     35  OG      -115.4530  -26.1830    6.0820 O.3   140  SER140     -0.2183
     36  N       -101.2580  -15.3870   14.5290 N.3   191  CYS191     -0.1235
     37  CA      -101.8030  -16.7180   14.3120 C.3   191  CYS191      0.1677
     38  C       -100.8750  -17.7760   14.8830 C.2   191  CYS191      0.2270
     39  O        -99.6610  -17.7280   14.6600 O.2   191  CYS191     -0.2867
     40  CB      -102.0040  -16.9600   12.8190 C.3   191  CYS191      0.0956
     41  SG      -102.5580  -18.6210   12.4600 S.3   191  CYS191     -0.0801
     42  N       -102.0470  -21.1840   14.5070 N.3   193  THR193     -0.1218
     43  CA      -102.6000  -22.4190   13.9340 C.3   193  THR193      0.1862
     44  C       -101.5150  -23.4290   13.5820 C.2   193  THR193      0.2287
     45  O       -101.6340  -24.6230   13.8890 O.2   193  THR193     -0.2866
     46  CB      -103.4120  -22.1010   12.6730 C.3   193  THR193      0.1770
     47  OG1     -104.5060  -21.2390   13.0100 O.3   193  THR193     -0.2211
     48  CG2     -103.9650  -23.3960   12.0330 C.3   193  THR193      0.0375
     49  N       -108.5760  -13.2240   16.2650 N.3   274  MET274     -0.1230
     50  CA      -109.9730  -13.5700   16.4680 C.3   274  MET274      0.1702
     51  C       -110.1370  -14.9950   16.9960 C.2   274  MET274      0.2592
     52  O       -111.2230  -15.3490   17.4690 O.2   274  MET274     -0.2718
     53  CB      -110.7130  -13.3820   15.1490 C.3   274  MET274      0.0401
     54  CG      -110.6340  -11.9340   14.6750 C.3   274  MET274      0.0596
     55  SD      -111.5180  -10.8380   15.7980 S.3   274  MET274     -0.1393
     56  CE      -113.1840  -11.2900   15.3650 C.3   274  MET274      0.0692
     57  N       -109.0860  -15.8150   16.9310 N.am  275  GLY275     -0.1957
     58  CA      -109.0970  -17.0940   17.6140 C.3   275  GLY275      0.1869
     59  C       -108.3280  -17.0820   18.9230 C.2   275  GLY275      0.2309
     60  O       -107.9510  -18.1460   19.4300 O.2   275  GLY275     -0.2863
     61  N       -112.5310  -14.6750   21.7670 N.3   280  MET280     -0.1245
     62  CA      -113.5950  -15.6740   21.8840 C.3   280  MET280      0.1570
     63  C       -114.4060  -15.5230   23.1670 C.2   280  MET280      0.2261
     64  O       -115.5250  -16.0410   23.2400 O.2   280  MET280     -0.2867
     65  CB      -113.0170  -17.0930   21.8280 C.3   280  MET280      0.0387
     66  CG      -112.3390  -17.4680   20.5150 C.3   280  MET280      0.0595
     67  SD      -111.7940  -19.1980   20.4790 S.3   280  MET280     -0.1393
     68  CE      -110.4890  -19.2390   21.7080 C.3   280  MET280      0.0692
     69  N       -109.6720  -23.9530   23.0610 N.3   284  VAL284     -0.1245
     70  CA      -108.3160  -24.1910   22.5680 C.3   284  VAL284      0.1561
     71  C       -108.0080  -23.1300   21.5200 C.2   284  VAL284      0.2260
     72  O       -108.3860  -23.2720   20.3490 O.2   284  VAL284     -0.2867
     73  CB      -108.1810  -25.6240   22.0250 C.3   284  VAL284      0.0252
     74  CG1     -106.8150  -25.8290   21.3780 C.3   284  VAL284      0.0019
     75  CG2     -108.3680  -26.6420   23.1470 C.3   284  VAL284      0.0019
     76  N       -106.3270  -20.4780   18.7310 N.3   286  GLU286     -0.1245
     77  CA      -105.4070  -20.5050   17.5900 C.3   286  GLU286      0.1567
     78  C       -104.8450  -19.1220   17.2920 C.2   286  GLU286      0.2260
     79  O       -104.3810  -18.8680   16.1810 O.2   286  GLU286     -0.2867
     80  CB      -106.1200  -21.1120   16.3800 C.3   286  GLU286      0.0388
     81  CG      -106.2490  -22.6410   16.4670 C.3   286  GLU286      0.1160
     82  CD      -107.0220  -23.2730   15.3140 C.2   286  GLU286      0.3649
     83  OE1     -106.7970  -22.8820   14.1440 O.co2 286  GLU286     -0.2457
     84  OE2     -107.8000  -24.2170   15.5800 O.co2 286  GLU286     -0.2457
@<TRIPOS>BOND
     1    33    32    2
     2    30    31    1
     3    32    31    1
     4    31    34    1
     5    28    26   ar
     6    28    29   ar
     7    34    35    1
     8    26    25   ar
     9    29    27   ar
    10     7     6   ar
    11    22    23    2
    12    22    21    1
    13     1     2    1
    14    25    27   ar
    15    25    24    1
    16     2     3    1
    17     2     5    1
    18     6     8   ar
    19     6     5    1
    20    21    24    1
    21    21    20    1
    22     9     3   am
    23     9    10    1
    24     3     4    2
    25    12    11    2
    26    13    10    1
    27    13    14    1
    28    20    17   am
    29    18    17    2
    30    10    11    1
    31    11    15   am
    32    17    16    1
    33    15    16    1
    34    16    19    1
    35    48    46    1
    36    41    40    1
    37    46    47    1
    38    46    43    1
    39    40    37    1
    40    44    45    2
    41    44    43    1
    42    43    42    1
    43    83    82   ar
    44    37    36    1
    45    37    38    1
    46    39    38    2
    47    54    53    1
    48    54    55    1
    49    53    50    1
    50    82    84   ar
    51    82    81    1
    52    56    55    1
    53    79    78    2
    54    49    50    1
    55    80    81    1
    56    80    77    1
    57    50    51    1
    58    57    51   am
    59    57    58    1
    60    51    52    2
    61    78    77    1
    62    77    76    1
    63    58    59    1
    64    59    60    2
    65    72    71    2
    66    67    66    1
    67    67    68    1
    68    66    65    1
    69    74    73    1
    70    71    70    1
    71    61    62    1
    72    65    62    1
    73    62    63    1
    74    73    70    1
    75    73    75    1
    76    70    69    1
    77    63    64    2
