@<TRIPOS>MOLECULE
tmp/5uqhD02.pdb
 96 86 0 0 0
SMALL
GASTEIGER

@<TRIPOS>ATOM
      1  N         23.2560   -4.8020   -4.1580 N.3    72  LYS72      -0.1245
      2  CA        22.4510   -3.8350   -4.8910 C.3    72  LYS72       0.1561
      3  C         21.4200   -3.1330   -4.0150 C.2    72  LYS72       0.2260
      4  O         20.5770   -2.3970   -4.5400 O.2    72  LYS72      -0.2867
      5  CB        21.7540   -4.5250   -6.0650 C.3    72  LYS72       0.0271
      6  CG        20.7690   -5.5900   -5.6220 C.3    72  LYS72       0.0035
      7  CD        19.9870   -6.1750   -6.7830 C.3    72  LYS72       0.0206
      8  CE        19.0330   -7.2520   -6.2860 C.3    72  LYS72       0.1093
      9  NZ        18.3340   -7.9620   -7.3920 N.3    72  LYS72      -0.1314
     10  N         16.6330   -7.0150  -12.3220 N.3   113  VAL113     -0.1245
     11  CA        16.0010   -6.9850  -13.6360 C.3   113  VAL113      0.1561
     12  C         15.6250   -5.5550  -14.0010 C.2   113  VAL113      0.2260
     13  O         15.1290   -4.7870  -13.1650 O.2   113  VAL113     -0.2867
     14  CB        14.7680   -7.9060  -13.6600 C.3   113  VAL113      0.0252
     15  CG1       13.7540   -7.4340  -14.6900 C.3   113  VAL113      0.0019
     16  CG2       15.1820   -9.3230  -13.9650 C.3   113  VAL113      0.0019
     17  N         18.4800  -12.9030   -9.1440 N.3   134  SER134     -0.1202
     18  CA        17.0520  -12.9030   -8.8810 C.3   134  SER134      0.2020
     19  C         16.7330  -14.1630   -8.0940 C.2   134  SER134      0.2619
     20  O         17.4990  -15.1310   -8.1050 O.2   134  SER134     -0.2717
     21  CB        16.2370  -12.8490  -10.1790 C.3   134  SER134      0.2103
     22  OG        14.8850  -13.2200   -9.9650 O.3   134  SER134     -0.2182
     23  N         15.5990  -14.1380   -7.3940 N.am  135  ALA135     -0.1965
     24  CA        15.1470  -15.3460   -6.7120 C.3   135  ALA135      0.1728
     25  C         14.9030  -16.4750   -7.7020 C.2   135  ALA135      0.2616
     26  O         15.1040  -17.6490   -7.3700 O.2   135  ALA135     -0.2715
     27  CB        13.8790  -15.0560   -5.9070 C.3   135  ALA135      0.0334
     28  N         14.4950  -16.1400   -8.9250 N.am  136  HIS136     -0.1973
     29  CA        14.1870  -17.1190   -9.9640 C.3   136  HIS136      0.1656
     30  C         14.9320  -16.7200  -11.2350 C.2   136  HIS136      0.2291
     31  O         14.4550  -15.8790  -12.0040 O.2   136  HIS136     -0.2864
     32  CB        12.6840  -17.1980  -10.2050 C.3   136  HIS136      0.0771
     33  CG        12.2720  -18.3430  -11.0760 C.ar  136  HIS136      0.0820
     34  ND1       13.0440  -19.4740  -11.2300 N.ar  136  HIS136     -0.2267
     35  CD2       11.1710  -18.5310  -11.8400 C.ar  136  HIS136      0.1154
     36  CE1       12.4350  -20.3110  -12.0520 C.ar  136  HIS136      0.1986
     37  NE2       11.2960  -19.7620  -12.4360 N.ar  136  HIS136     -0.2212
     38  N         13.6640  -17.3040  -15.6830 N.3   139  SER139     -0.1217
     39  CA        12.4760  -16.4970  -15.9170 C.3   139  SER139      0.1889
     40  C         12.6890  -15.6110  -17.1350 C.2   139  SER139      0.2288
     41  O         13.8200  -15.2870  -17.5030 O.2   139  SER139     -0.2866
     42  CB        12.1330  -15.6360  -14.6950 C.3   139  SER139      0.2089
     43  OG        13.1640  -14.6990  -14.4330 O.3   139  SER139     -0.2183
     44  N         12.0710  -12.4450  -17.5350 N.3   141  GLY141     -0.1225
     45  CA        12.6950  -11.1680  -17.2280 C.3   141  GLY141      0.1811
     46  C         14.2080  -11.2520  -17.1670 C.2   141  GLY141      0.2280
     47  O         14.9080  -10.3750  -17.6770 O.2   141  GLY141     -0.2866
     48  N         17.7910  -18.4990    4.2120 N.3   190  CYS190     -0.1235
     49  CA        16.7890  -18.6130    3.1610 C.3   190  CYS190      0.1677
     50  C         15.6170  -19.4630    3.6320 C.2   190  CYS190      0.2270
     51  O         15.8160  -20.5350    4.2100 O.2   190  CYS190     -0.2867
     52  CB        17.4130  -19.2340    1.9110 C.3   190  CYS190      0.0956
     53  SG        16.2150  -19.8220    0.6890 S.3   190  CYS190     -0.0801
     54  N         12.9910  -19.9680    1.2460 N.3   192  THR192     -0.1218
     55  CA        12.2500  -20.1710    0.0030 C.3   192  THR192      0.1862
     56  C         11.6110  -21.5520   -0.0580 C.2   192  THR192      0.2287
     57  O         10.4460  -21.6900   -0.4520 O.2   192  THR192     -0.2866
     58  CB        13.1760  -19.9630   -1.1980 C.3   192  THR192      0.1770
     59  OG1       13.5730  -18.5890   -1.2630 O.3   192  THR192     -0.2211
     60  CG2       12.4700  -20.3430   -2.4930 C.3   192  THR192      0.0375
     61  N         18.5460  -11.0790    1.9270 N.3   273  MET273     -0.1230
     62  CA        18.0890   -9.9430    1.1380 C.3   273  MET273      0.1702
     63  C         16.5980  -10.0060    0.8430 C.2   273  MET273      0.2592
     64  O         16.0220   -8.9950    0.4310 O.2   273  MET273     -0.2718
     65  CB        18.8870   -9.8570   -0.1620 C.3   273  MET273      0.0401
     66  CG        20.3760   -9.6620    0.0670 C.3   273  MET273      0.0596
     67  SD        20.7370   -8.0600    0.8120 S.3   273  MET273     -0.1393
     68  CE        20.7600   -7.0260   -0.6460 C.3   273  MET273      0.0692
     69  N         15.9640  -11.1590    1.0520 N.am  274  GLY274     -0.1957
     70  CA        14.5290  -11.2860    0.9080 C.3   274  GLY274      0.1869
     71  C         13.8080  -11.2590    2.2400 C.2   274  GLY274      0.2309
     72  O         12.6800  -11.7480    2.3510 O.2   274  GLY274     -0.2863
     73  N         14.2740   -5.5970    2.7050 N.3   279  MET279     -0.1245
     74  CA        13.4070   -4.9740    1.7140 C.3   279  MET279      0.1570
     75  C         12.8120   -3.6530    2.1840 C.2   279  MET279      0.2261
     76  O         12.0180   -3.0570    1.4500 O.2   279  MET279     -0.2867
     77  CB        12.2860   -5.9360    1.3160 C.3   279  MET279      0.0387
     78  CG        12.7810   -7.2630    0.7660 C.3   279  MET279      0.0595
     79  SD        11.4310   -8.3380    0.2400 S.3   279  MET279     -0.1393
     80  CE        10.7030   -8.7590    1.8200 C.3   279  MET279      0.0692
     81  N          5.7350  -10.5290    1.6410 N.3   283  VAL283     -0.1245
     82  CA         5.8580  -11.9530    1.9480 C.3   283  VAL283      0.1561
     83  C          7.3270  -12.3380    1.8190 C.2   283  VAL283      0.2260
     84  O          7.7980  -12.6300    0.7100 O.2   283  VAL283     -0.2867
     85  CB         4.9630  -12.8070    1.0370 C.3   283  VAL283      0.0252
     86  CG1        5.0780  -14.2770    1.4110 C.3   283  VAL283      0.0019
     87  CG2        3.5140  -12.3440    1.1360 C.3   283  VAL283      0.0019
     88  N         11.0910  -14.1320    1.8900 N.3   285  GLU285     -0.1245
     89  CA        11.6920  -15.4380    1.6480 C.3   285  GLU285      0.1567
     90  C         13.0620  -15.5470    2.3110 C.2   285  GLU285      0.2260
     91  O         13.9010  -16.3490    1.8850 O.2   285  GLU285     -0.2867
     92  CB        11.7760  -15.7200    0.1460 C.3   285  GLU285      0.0388
     93  CG        10.4300  -16.1300   -0.4530 C.3   285  GLU285      0.1160
     94  CD        10.5190  -16.5390   -1.9120 C.2   285  GLU285      0.3649
     95  OE1       11.5060  -17.2020   -2.2930 O.co2 285  GLU285     -0.2457
     96  OE2        9.5900  -16.2070   -2.6770 O.co2 285  GLU285     -0.2457
@<TRIPOS>BOND
     1    47    46    2
     2    44    45    1
     3    41    40    2
     4    45    46    1
     5    40    39    1
     6    39    38    1
     7    39    42    1
     8    42    43    1
     9    15    14    1
    10    12    11    1
    11    12    13    2
    12    16    14    1
    13    14    11    1
    14    11    10    1
    15    37    36   ar
    16    37    35   ar
    17    36    34   ar
    18    31    30    2
    19    35    33   ar
    20    30    29    1
    21    34    33   ar
    22    33    32    1
    23    32    29    1
    24    21    22    1
    25    21    18    1
    26    29    28    1
    27    17    18    1
    28    28    25   am
    29    18    19    1
    30    20    19    2
    31    19    23   am
    32    25    26    2
    33    25    24    1
    34    23    24    1
    35     9     8    1
    36     7     8    1
    37     7     6    1
    38    24    27    1
    39     5     6    1
    40     5     2    1
    41     2     1    1
    42     2     3    1
    43     4     3    2
    44    96    94   ar
    45    60    58    1
    46    95    94   ar
    47    94    93    1
    48    59    58    1
    49    58    55    1
    50    68    67    1
    51    93    92    1
    52    57    56    2
    53    65    66    1
    54    65    62    1
    55    56    55    1
    56    55    54    1
    57    66    67    1
    58    92    89    1
    59    79    78    1
    60    79    80    1
    61    64    63    2
    62    53    52    1
    63    84    83    2
    64    78    77    1
    65    63    69   am
    66    63    62    1
    67    70    69    1
    68    70    71    1
    69    85    87    1
    70    85    86    1
    71    85    82    1
    72    62    61    1
    73    77    74    1
    74    76    75    2
    75    81    82    1
    76    89    88    1
    77    89    90    1
    78    74    75    1
    79    74    73    1
    80    83    82    1
    81    91    90    2
    82    52    49    1
    83    71    72    2
    84    49    50    1
    85    49    48    1
    86    50    51    2
