@<TRIPOS>MOLECULE
tmp/5uqiA00.pdb
 84 79 0 0 0
SMALL
GASTEIGER

@<TRIPOS>ATOM
      1  N          6.6810   -2.7890   10.1250 N.3    51  VAL51      -0.1231
      2  CA         5.9720   -1.4870   10.1300 C.3    51  VAL51       0.1692
      3  C          6.9990   -0.3870    9.9330 C.2    51  VAL51       0.2593
      4  O          8.2200   -0.6460   10.0080 O.2    51  VAL51      -0.2718
      5  CB         5.1980   -1.2140   11.4590 C.3    51  VAL51       0.0266
      6  CG1        4.0970   -2.3070   11.7060 C.3    51  VAL51       0.0020
      7  CG2        6.1350   -1.0270   12.6450 C.3    51  VAL51       0.0020
      8  N          6.5380    0.8310    9.6350 N.am   52  GLY52      -0.1942
      9  CA         7.5450    1.9130    9.4300 C.3    52  GLY52       0.2014
     10  C          8.4820    1.6390    8.2600 C.2    52  GLY52       0.2639
     11  O          8.1080    0.9980    7.3080 O.2    52  GLY52      -0.2714
     12  N          9.7110    2.1600    8.3780 N.am   53  LYS53      -0.1963
     13  CA        10.6460    2.0010    7.2440 C.3    53  LYS53       0.1728
     14  C         11.0480    0.5460    7.0820 C.2    53  LYS53       0.2616
     15  O         11.1900    0.0700    5.9550 O.2    53  LYS53      -0.2715
     16  CB        11.8930    2.8510    7.4200 C.3    53  LYS53       0.0311
     17  CG        11.6400    4.3060    7.7310 C.3    53  LYS53       0.0038
     18  CD        10.7630    5.0590    6.7620 C.3    53  LYS53       0.0206
     19  CE        10.6960    6.5540    7.1800 C.3    53  LYS53       0.1093
     20  NZ         9.8660    6.6400    8.4430 N.3    53  LYS53      -0.1314
     21  N         11.1050   -0.2100    8.1900 N.am   54  SER54      -0.1950
     22  CA        11.3390   -1.6720    8.0900 C.3    54  SER54       0.1924
     23  C         10.2670   -2.3400    7.2640 C.2    54  SER54       0.2314
     24  O         10.5830   -3.2680    6.4850 O.2    54  SER54      -0.2863
     25  CB        11.2770   -2.3420    9.4960 C.3    54  SER54       0.2116
     26  OG        12.4360   -2.1020   10.1150 O.3    54  SER54      -0.2180
     27  N         10.5960   -8.2140   10.5150 N.3    97  ILE97      -0.1231
     28  CA        11.7110   -7.2730   10.4170 C.3    97  ILE97       0.1692
     29  C         11.4930   -6.1280   11.3500 C.2    97  ILE97       0.2593
     30  O         10.4550   -5.4550   11.3000 O.2    97  ILE97      -0.2718
     31  CB        11.8760   -6.7400    8.9410 C.3    97  ILE97       0.0266
     32  CG1       12.1360   -7.9010    7.9930 C.3    97  ILE97       0.0019
     33  CG2       13.0390   -5.7160    8.9460 C.3    97  ILE97       0.0020
     34  CD1       12.3870   -7.4030    6.5400 C.3    97  ILE97       0.0001
     35  N         12.4320   -5.9450   12.2670 N.am   98  SER98      -0.1938
     36  CA        12.3870   -4.8060   13.1810 C.3    98  SER98       0.2055
     37  C         13.8210   -4.4790   13.6000 C.2    98  SER98       0.2643
     38  O         14.5040   -5.3300   14.1790 O.2    98  SER98      -0.2714
     39  CB        11.5860   -5.1780   14.4470 C.3    98  SER98       0.2130
     40  OG        11.7100   -4.1880   15.4800 O.3    98  SER98      -0.2179
     41  N         14.2860   -3.2730   13.3000 N.am   99  ASN99      -0.1957
     42  CA        15.6930   -2.9870   13.5880 C.3    99  ASN99       0.1819
     43  C         15.9580   -3.1210   15.1050 C.2    99  ASN99       0.2622
     44  O         16.9010   -3.8300   15.5330 O.2    99  ASN99      -0.2715
     45  CB        16.0920   -1.6240   13.0290 C.3    99  ASN99       0.1195
     46  CG        17.5430   -1.2600   13.3860 C.2    99  ASN99       0.2630
     47  OD1       17.7670   -0.2640   14.0640 O.2    99  ASN99      -0.2716
     48  ND2       18.5010   -2.0970   13.0060 N.am   99  ASN99      -0.0877
     49  N         15.1310   -2.4700   15.9070 N.am  100  SER100     -0.1950
     50  CA        15.3290   -2.5870   17.3600 C.3   100  SER100      0.1924
     51  C         14.9560   -3.9670   17.8840 C.2   100  SER100      0.2314
     52  O         15.5130   -4.4210   18.9130 O.2   100  SER100     -0.2863
     53  CB        14.4580   -1.5810   18.0940 C.3   100  SER100      0.2116
     54  OG        13.0520   -1.8490   17.9430 O.3   100  SER100     -0.2180
     55  N          9.8140   -3.1210   18.6220 N.3   103  THR103     -0.1218
     56  CA         8.6790   -2.3000   18.1650 C.3   103  THR103      0.1862
     57  C          7.4010   -2.9090   18.6560 C.2   103  THR103      0.2287
     58  O          7.1490   -4.0520   18.3640 O.2   103  THR103     -0.2866
     59  CB         8.7220   -2.3310   16.6100 C.3   103  THR103      0.1770
     60  OG1       10.0120   -1.8870   16.2320 O.3   103  THR103     -0.2211
     61  CG2        7.6160   -1.4280   15.9980 C.3   103  THR103      0.0375
     62  N          5.1080   -4.9300   16.2980 N.3   106  ILE106     -0.1245
     63  CA         5.5680   -6.1960   15.8270 C.3   106  ILE106      0.1561
     64  C          5.4830   -7.2210   16.9510 C.2   106  ILE106      0.2260
     65  O          5.0690   -8.3300   16.7010 O.2   106  ILE106     -0.2867
     66  CB         7.0260   -6.1030   15.2820 C.3   106  ILE106      0.0252
     67  CG1        7.1280   -5.0530   14.1820 C.3   106  ILE106      0.0019
     68  CG2        7.5330   -7.4530   14.8100 C.3   106  ILE106      0.0019
     69  CD1        6.2730   -5.4540   12.9520 C.3   106  ILE106      0.0001
     70  N         18.9960    8.9480   14.2700 N.3   152  LEU152     -0.1245
     71  CA        17.5860    8.6110   14.4880 C.3   152  LEU152      0.1561
     72  C         16.8720    8.1010   13.2400 C.2   152  LEU152      0.2260
     73  O         15.9290    7.3310   13.3730 O.2   152  LEU152     -0.2867
     74  CB        16.8510    9.8560   14.9660 C.3   152  LEU152      0.0270
     75  CG        17.1620   10.3660   16.3800 C.3   152  LEU152      0.0019
     76  CD1       16.4050   11.6720   16.6000 C.3   152  LEU152      0.0001
     77  CD2       16.8470    9.3290   17.4550 C.3   152  LEU152      0.0001
     78  N         16.0500    5.8940   10.0160 N.3   154  PRO154     -0.2116
     79  CA        16.4680    4.6650    9.3090 C.3   154  PRO154      0.1372
     80  C         17.0490    4.9650    7.9380 C.2   154  PRO154      0.2244
     81  O         16.3770    5.5630    7.0350 O.2   154  PRO154     -0.2868
     82  CB        15.1500    3.8630    9.1770 C.3   154  PRO154      0.0268
     83  CG        14.4110    4.2530   10.4110 C.3   154  PRO154      0.0207
     84  CD        14.7180    5.7160   10.6440 C.3   154  PRO154      0.0892
@<TRIPOS>BOND
     1    15    14    2
     2    24    23    2
     3    34    32    1
     4    18    19    1
     5    18    17    1
     6    81    80    2
     7    14    13    1
     8    14    21   am
     9    19    20    1
    10    13    16    1
    11    13    12    1
    12    23    22    1
    13    11    10    2
    14    16    17    1
    15    80    79    1
    16    32    31    1
    17    22    21    1
    18    22    25    1
    19    10    12   am
    20    10     9    1
    21    31    33    1
    22    31    28    1
    23    82    79    1
    24    82    83    1
    25    79    78    1
    26     9     8    1
    27    25    26    1
    28     8     3   am
    29     3     4    2
    30     3     2    1
    31    78    84    1
    32     1     2    1
    33     2     5    1
    34    83    84    1
    35    28    27    1
    36    28    29    1
    37    30    29    2
    38    29    35   am
    39     5     6    1
    40     5     7    1
    41    35    36    1
    42    69    67    1
    43    48    46   am
    44    45    46    1
    45    45    42    1
    46    36    37    1
    47    36    39    1
    48    72    73    2
    49    72    71    1
    50    41    42    1
    51    41    37   am
    52    46    47    2
    53    42    43    1
    54    37    38    2
    55    67    66    1
    56    70    71    1
    57    39    40    1
    58    71    74    1
    59    68    66    1
    60    74    75    1
    61    43    44    2
    62    43    49   am
    63    66    63    1
    64    63    62    1
    65    63    64    1
    66    49    50    1
    67    61    59    1
    68    60    59    1
    69    75    76    1
    70    75    77    1
    71    59    56    1
    72    65    64    2
    73    50    51    1
    74    50    53    1
    75    51    52    2
    76    54    53    1
    77    56    55    1
    78    56    57    1
    79    58    57    2
