@<TRIPOS>MOLECULE
tmp/5uqlA00.pdb
 223 216 0 0 0
SMALL
GASTEIGER

@<TRIPOS>ATOM
      1  N        -36.0530  -35.0920    1.0040 N.3   100  VAL100     -0.1231
      2  CA       -35.7120  -35.9150    2.1580 C.3   100  VAL100      0.1692
      3  C        -34.2160  -36.1690    2.1390 C.2   100  VAL100      0.2592
      4  O        -33.6800  -36.6660    1.1430 O.2   100  VAL100     -0.2718
      5  CB       -36.4720  -37.2560    2.1560 C.3   100  VAL100      0.0266
      6  CG1      -36.0070  -38.1550    3.3200 C.3   100  VAL100      0.0020
      7  CG2      -37.9650  -37.0280    2.2410 C.3   100  VAL100      0.0020
      8  N        -33.5430  -35.8430    3.2370 N.am  101  TRP101     -0.1962
      9  CA       -32.1910  -36.3350    3.4660 C.3   101  TRP101      0.1771
     10  C        -32.0770  -36.8260    4.9020 C.2   101  TRP101      0.2619
     11  O        -32.1310  -36.0290    5.8450 O.2   101  TRP101     -0.2715
     12  CB       -31.1250  -35.2850    3.1810 C.3   101  TRP101      0.0590
     13  CG       -29.8290  -35.9710    3.1680 C.ar  101  TRP101      0.0006
     14  CD1      -28.9020  -36.0070    4.1670 C.ar  101  TRP101      0.0946
     15  CD2      -29.3370  -36.8150    2.1270 C.ar  101  TRP101      0.0152
     16  NE1      -27.8470  -36.8050    3.7980 N.ar  101  TRP101     -0.2442
     17  CE2      -28.0880  -37.3100    2.5460 C.ar  101  TRP101      0.0810
     18  CE3      -29.8270  -37.1890    0.8740 C.ar  101  TRP101      0.0012
     19  CZ2      -27.3190  -38.1590    1.7530 C.ar  101  TRP101      0.0191
     20  CZ3      -29.0620  -38.0290    0.0860 C.ar  101  TRP101      0.0001
     21  CH2      -27.8250  -38.5050    0.5290 C.ar  101  TRP101      0.0015
     22  N        -31.8920  -38.1330    5.0540 N.am  102  ILE102     -0.1977
     23  CA       -31.8170  -38.7840    6.3530 C.3   102  ILE102      0.1596
     24  C        -30.4930  -39.5250    6.4540 C.2   102  ILE102      0.2287
     25  O        -29.9580  -40.0180    5.4550 O.2   102  ILE102     -0.2864
     26  CB       -33.0050  -39.7520    6.5520 C.3   102  ILE102      0.0276
     27  CG1      -34.3200  -38.9690    6.5270 C.3   102  ILE102      0.0022
     28  CG2      -32.8650  -40.5410    7.8530 C.3   102  ILE102      0.0022
     29  CD1      -35.5560  -39.8400    6.5080 C.3   102  ILE102      0.0001
     30  N        -25.3940  -43.2060    8.5640 N.3   138  ASN138     -0.1240
     31  CA       -24.4930  -43.4360    7.4350 C.3   138  ASN138      0.1653
     32  C        -23.0750  -43.7080    7.9150 C.2   138  ASN138      0.2266
     33  O        -22.3660  -44.5470    7.3420 O.2   138  ASN138     -0.2867
     34  CB       -24.5230  -42.2440    6.4770 C.3   138  ASN138      0.1155
     35  CG       -25.6930  -42.3070    5.5100 C.2   138  ASN138      0.2627
     36  OD1      -26.0680  -43.3860    5.0500 O.2   138  ASN138     -0.2716
     37  ND2      -26.2780  -41.1530    5.2010 N.am  138  ASN138     -0.0877
     38  N        -31.2640  -46.0320    3.7010 N.3   264  LEU264     -0.1231
     39  CA       -31.8220  -44.6910    3.8200 C.3   264  LEU264      0.1693
     40  C        -32.7930  -44.3760    2.6910 C.2   264  LEU264      0.2591
     41  O        -33.7130  -43.5700    2.8770 O.2   264  LEU264     -0.2718
     42  CB       -30.6890  -43.6600    3.8600 C.3   264  LEU264      0.0284
     43  CG       -29.8200  -43.6190    5.1320 C.3   264  LEU264      0.0019
     44  CD1      -30.6600  -43.5280    6.3970 C.3   264  LEU264      0.0001
     45  CD2      -28.8680  -44.8030    5.2090 C.3   264  LEU264      0.0001
     46  N        -32.6130  -44.9940    1.5230 N.am  265  ALA265     -0.1980
     47  CA       -33.5740  -44.8020    0.4430 C.3   265  ALA265      0.1597
     48  C        -34.9210  -45.4080    0.8110 C.2   265  ALA265      0.2287
     49  O        -35.9680  -44.7870    0.5970 O.2   265  ALA265     -0.2864
     50  CB       -33.0450  -45.4080   -0.8590 C.3   265  ALA265      0.0319
     51  N        -36.4490  -43.1970    3.2690 N.3   268  SER268     -0.1202
     52  CA       -36.9710  -42.0370    2.5540 C.3   268  SER268      0.2020
     53  C        -38.2420  -42.3780    1.7840 C.2   268  SER268      0.2618
     54  O        -39.1310  -41.5270    1.6600 O.2   268  SER268     -0.2717
     55  CB       -35.8930  -41.4920    1.6120 C.3   268  SER268      0.2103
     56  OG       -36.3820  -40.4500    0.7810 O.3   268  SER268     -0.2182
     57  N        -38.3410  -43.6070    1.2620 N.am  269  ASP269     -0.1973
     58  CA       -39.5690  -44.0600    0.6120 C.3   269  ASP269      0.1709
     59  C        -40.7620  -43.9340    1.5430 C.2   269  ASP269      0.2293
     60  O        -41.8720  -43.6140    1.1050 O.2   269  ASP269     -0.2864
     61  CB       -39.4450  -45.5220    0.1650 C.3   269  ASP269      0.1436
     62  CG       -38.6770  -45.6920   -1.1300 C.2   269  ASP269      0.3671
     63  OD1      -38.4260  -44.6890   -1.8260 O.co2 269  ASP269     -0.2456
     64  OD2      -38.3160  -46.8510   -1.4420 O.co2 269  ASP269     -0.2456
     65  N        -41.5200  -39.8820    2.4290 N.3   272  ARG272     -0.1245
     66  CA       -42.1160  -39.0610    1.3780 C.3   272  ARG272      0.1563
     67  C        -43.6120  -39.3230    1.2550 C.2   272  ARG272      0.2260
     68  O        -44.3860  -38.3950    0.9960 O.2   272  ARG272     -0.2867
     69  CB       -41.4060  -39.3000    0.0420 C.3   272  ARG272      0.0307
     70  CG       -41.6720  -40.6550   -0.5970 C.3   272  ARG272      0.0489
     71  CD       -40.7380  -40.9000   -1.7810 C.3   272  ARG272      0.2205
     72  NE       -39.3530  -41.0580   -1.3610 N.pl3 272  ARG272     -0.0865
     73  CZ       -38.3460  -41.3730   -2.1680 C.cat 272  ARG272      0.5346
     74  NH1      -38.5520  -41.5750   -3.4660 N.pl3 272  ARG272      0.1354
     75  NH2      -37.1260  -41.4900   -1.6660 N.pl3 272  ARG272      0.1354
     76  N        -43.0030  -34.1180   -4.2750 N.3   283  TYR283     -0.1241
     77  CA       -41.8030  -34.7250   -3.7180 C.3   283  TYR283      0.1605
     78  C        -40.7590  -34.9040   -4.8120 C.2   283  TYR283      0.2264
     79  O        -41.0750  -35.3420   -5.9210 O.2   283  TYR283     -0.2867
     80  CB       -42.0710  -36.0820   -3.0650 C.3   283  TYR283      0.0534
     81  CG       -40.7530  -36.7250   -2.7170 C.ar  283  TYR283     -0.0201
     82  CD1      -40.0750  -36.3670   -1.5610 C.ar  283  TYR283     -0.0009
     83  CD2      -40.1410  -37.6200   -3.5860 C.ar  283  TYR283     -0.0009
     84  CE1      -38.8450  -36.9120   -1.2600 C.ar  283  TYR283      0.0417
     85  CE2      -38.9090  -38.1690   -3.2930 C.ar  283  TYR283      0.0417
     86  CZ       -38.2670  -37.8120   -2.1320 C.ar  283  TYR283      0.1957
     87  OH       -37.0410  -38.3590   -1.8380 O.3   283  TYR283     -0.2866
     88  N        -36.5500  -36.3480   -5.2410 N.3   285  ASP285     -0.1225
     89  CA       -35.2310  -36.7550   -4.7810 C.3   285  ASP285      0.1805
     90  C        -34.2460  -35.6100   -4.9900 C.2   285  ASP285      0.2598
     91  O        -34.3990  -34.7940   -5.9050 O.2   285  ASP285     -0.2718
     92  CB       -34.7480  -37.9900   -5.5420 C.3   285  ASP285      0.1424
     93  CG       -35.3240  -39.2840   -5.0000 C.2   285  ASP285      0.3668
     94  OD1      -36.0040  -39.2640   -3.9530 O.co2 285  ASP285     -0.2456
     95  OD2      -35.0890  -40.3340   -5.6250 O.co2 285  ASP285     -0.2456
     96  N        -33.2130  -35.5590   -4.1440 N.am  286  VAL286     -0.1966
     97  CA       -32.2740  -34.4410   -4.2010 C.3   286  VAL286      0.1727
     98  C        -31.4050  -34.4460   -5.4540 C.2   286  VAL286      0.2616
     99  O        -30.6670  -33.4810   -5.6880 O.2   286  VAL286     -0.2715
    100  CB       -31.3560  -34.3990   -2.9580 C.3   286  VAL286      0.0290
    101  CG1      -32.1600  -34.0470   -1.7120 C.3   286  VAL286      0.0023
    102  CG2      -30.5970  -35.7090   -2.7730 C.3   286  VAL286      0.0023
    103  N        -31.4520  -35.5000   -6.2650 N.am  287  ASP287     -0.1971
    104  CA       -30.7010  -35.5320   -7.5150 C.3   287  ASP287      0.1709
    105  C        -31.5580  -35.1640   -8.7280 C.2   287  ASP287      0.2293
    106  O        -31.1160  -35.3530   -9.8690 O.2   287  ASP287     -0.2864
    107  CB       -30.0480  -36.9070   -7.7100 C.3   287  ASP287      0.1436
    108  CG       -31.0490  -38.0480   -7.7340 C.2   287  ASP287      0.3671
    109  OD1      -32.2690  -37.7920   -7.7150 O.co2 287  ASP287     -0.2456
    110  OD2      -30.5970  -39.2150   -7.7690 O.co2 287  ASP287     -0.2456
    111  N        -41.1330  -44.5060  -11.4930 N.3   382  ILE382     -0.1231
    112  CA       -40.0310  -44.3250  -10.5540 C.3   382  ILE382      0.1692
    113  C        -40.4040  -43.1850   -9.6170 C.2   382  ILE382      0.2592
    114  O        -40.7530  -42.0890  -10.0690 O.2   382  ILE382     -0.2718
    115  CB       -38.6880  -44.0590  -11.2720 C.3   382  ILE382      0.0266
    116  CG1      -37.5560  -43.8760  -10.2540 C.3   382  ILE382      0.0019
    117  CG2      -38.7900  -42.8650  -12.2220 C.3   382  ILE382      0.0020
    118  CD1      -36.1670  -44.0180  -10.8400 C.3   382  ILE382      0.0001
    119  N        -40.3570  -43.4520   -8.3090 N.am  383  ASN383     -0.1960
    120  CA       -40.9210  -42.5530   -7.3100 C.3   383  ASN383      0.1819
    121  C        -39.9440  -41.4660   -6.8730 C.2   383  ASN383      0.2621
    122  O        -40.0640  -40.9450   -5.7570 O.2   383  ASN383     -0.2715
    123  CB       -41.4140  -43.3520   -6.0940 C.3   383  ASN383      0.1195
    124  CG       -40.3070  -44.1350   -5.4070 C.2   383  ASN383      0.2630
    125  OD1      -39.3550  -44.5730   -6.0420 O.2   383  ASN383     -0.2716
    126  ND2      -40.4390  -44.3210   -4.0940 N.am  383  ASN383     -0.0877
    127  N        -38.9770  -41.1210   -7.7260 N.am  384  GLN384     -0.1977
    128  CA       -38.0560  -40.0210   -7.4720 C.3   384  GLN384      0.1601
    129  C        -38.6930  -38.6580   -7.7050 C.2   384  GLN384      0.2287
    130  O        -38.0620  -37.6360   -7.4140 O.2   384  GLN384     -0.2864
    131  CB       -36.8150  -40.1750   -8.3600 C.3   384  GLN384      0.0394
    132  CG       -37.1240  -40.0820   -9.8520 C.3   384  GLN384      0.0908
    133  CD       -35.9720  -40.5070  -10.7600 C.2   384  GLN384      0.2608
    134  OE1      -36.1370  -40.5520  -11.9770 O.2   384  GLN384     -0.2717
    135  NE2      -34.8130  -40.8140  -10.1820 N.am  384  GLN384     -0.0878
    136  N        -32.2410  -55.6560   -5.0260 N.3   462  ARG462     -0.1245
    137  CA       -33.1860  -54.6050   -5.3870 C.3   462  ARG462      0.1563
    138  C        -34.5460  -54.8190   -4.7340 C.2   462  ARG462      0.2260
    139  O        -35.5650  -54.3540   -5.2510 O.2   462  ARG462     -0.2867
    140  CB       -33.3570  -54.5290   -6.9040 C.3   462  ARG462      0.0307
    141  CG       -32.0650  -54.5750   -7.7180 C.3   462  ARG462      0.0489
    142  CD       -31.4170  -53.2140   -7.8650 C.3   462  ARG462      0.2205
    143  NE       -32.3440  -52.2130   -8.3860 N.pl3 462  ARG462     -0.0865
    144  CZ       -32.1020  -50.9060   -8.3930 C.cat 462  ARG462      0.5346
    145  NH1      -30.9610  -50.4330   -7.9100 N.pl3 462  ARG462      0.1354
    146  NH2      -33.0070  -50.0660   -8.8800 N.pl3 462  ARG462      0.1354
    147  N        -35.9800  -53.4510   -2.4150 N.3   464  THR464     -0.1203
    148  CA       -36.6530  -52.2130   -2.0390 C.3   464  THR464      0.1994
    149  C        -37.7150  -51.8060   -3.0500 C.2   464  THR464      0.2617
    150  O        -38.7420  -51.2310   -2.6720 O.2   464  THR464     -0.2717
    151  CB       -35.6200  -51.1000   -1.8970 C.3   464  THR464      0.1784
    152  OG1      -34.5560  -51.5540   -1.0510 O.3   464  THR464     -0.2211
    153  CG2      -36.2540  -49.8310   -1.3080 C.3   464  THR464      0.0376
    154  N        -37.4830  -52.0830   -4.3350 N.am  465  ILE465     -0.1979
    155  CA       -38.4270  -51.6740   -5.3730 C.3   465  ILE465      0.1595
    156  C        -39.8020  -52.2740   -5.1140 C.2   465  ILE465      0.2287
    157  O        -40.8310  -51.6220   -5.3360 O.2   465  ILE465     -0.2864
    158  CB       -37.8910  -52.0710   -6.7640 C.3   465  ILE465      0.0276
    159  CG1      -36.5440  -51.3900   -7.0520 C.3   465  ILE465      0.0022
    160  CG2      -38.9170  -51.7640   -7.8650 C.3   465  ILE465      0.0022
    161  CD1      -36.5050  -49.8760   -6.8130 C.3   465  ILE465      0.0001
    162  N        -40.8430  -49.0980   -2.7340 N.3   469  GLY469     -0.1210
    163  CA       -40.5010  -48.3540   -3.9210 C.3   469  GLY469      0.1940
    164  C        -41.5210  -48.4740   -5.0410 C.2   469  GLY469      0.2453
    165  O        -42.7040  -48.7410   -4.8140 O.2   469  GLY469     -0.2732
    166  N        -41.0630  -48.2710   -6.2910 N.am  470  PRO470     -0.2728
    167  CA       -41.9670  -48.2450   -7.4530 C.3   470  PRO470      0.1401
    168  C        -42.9980  -49.3590   -7.5190 C.2   470  PRO470      0.2269
    169  O        -44.1270  -49.1370   -7.9700 O.2   470  PRO470     -0.2865
    170  CB       -40.9910  -48.3510   -8.6320 C.3   470  PRO470      0.0296
    171  CG       -39.7720  -47.6470   -8.1510 C.3   470  PRO470      0.0237
    172  CD       -39.6800  -47.9280   -6.6630 C.3   470  PRO470      0.0939
    173  N        -28.0120  -38.2490  -10.6370 N.3   514  GLU514     -0.1245
    174  CA       -28.9340  -39.3740  -10.7530 C.3   514  GLU514      0.1567
    175  C        -28.2410  -40.6240  -11.2770 C.2   514  GLU514      0.2260
    176  O        -28.6980  -41.7400  -11.0090 O.2   514  GLU514     -0.2867
    177  CB       -30.1100  -38.9990  -11.6650 C.3   514  GLU514      0.0388
    178  CG       -30.9110  -40.1750  -12.2340 C.3   514  GLU514      0.1160
    179  CD       -31.5750  -41.0210  -11.1650 C.2   514  GLU514      0.3649
    180  OE1      -31.3110  -40.8030   -9.9630 O.co2 514  GLU514     -0.2457
    181  OE2      -32.3590  -41.9180  -11.5200 O.co2 514  GLU514     -0.2457
    182  N        -25.8450  -42.3420  -10.4490 N.3   516  ASN516     -0.1225
    183  CA       -25.3770  -43.2950   -9.4500 C.3   516  ASN516      0.1785
    184  C        -26.3690  -43.4050   -8.2970 C.2   516  ASN516      0.2598
    185  O        -26.9040  -42.3950   -7.8280 O.2   516  ASN516     -0.2718
    186  CB       -24.0050  -42.8780   -8.9210 C.3   516  ASN516      0.1169
    187  CG       -23.1080  -42.3250  -10.0120 C.2   516  ASN516      0.2627
    188  OD1      -22.4900  -43.0800  -10.7630 O.2   516  ASN516     -0.2716
    189  ND2      -23.0380  -41.0000  -10.1090 N.am  516  ASN516     -0.0877
    190  N        -26.5990  -44.6340   -7.8360 N.am  517  SER517     -0.1938
    191  CA       -27.5420  -44.9210   -6.7610 C.3   517  SER517      0.2055
    192  C        -26.8110  -45.0170   -5.4260 C.2   517  SER517      0.2643
    193  O        -25.7080  -45.5650   -5.3510 O.2   517  SER517     -0.2714
    194  CB       -28.2910  -46.2280   -7.0380 C.3   517  SER517      0.2130
    195  OG       -29.2480  -46.5120   -6.0280 O.3   517  SER517     -0.2179
    196  N        -27.4420  -44.4970   -4.3690 N.am  518  LEU518     -0.1963
    197  CA       -26.8330  -44.4670   -3.0430 C.3   518  LEU518      0.1728
    198  C        -27.2650  -45.6190   -2.1430 C.2   518  LEU518      0.2616
    199  O        -26.7260  -45.7480   -1.0390 O.2   518  LEU518     -0.2715
    200  CB       -27.1510  -43.1360   -2.3470 C.3   518  LEU518      0.0311
    201  CG       -26.5650  -41.8890   -3.0200 C.3   518  LEU518      0.0022
    202  CD1      -27.1680  -40.6080   -2.4500 C.3   518  LEU518      0.0001
    203  CD2      -25.0470  -41.8680   -2.8820 C.3   518  LEU518      0.0001
    204  N        -28.2130  -46.4530   -2.5760 N.am  519  TRP519     -0.1960
    205  CA       -28.6240  -47.6250   -1.8120 C.3   519  TRP519      0.1771
    206  C        -28.3680  -48.9350   -2.5430 C.2   519  TRP519      0.2620
    207  O        -28.6550  -49.9990   -1.9830 O.2   519  TRP519     -0.2715
    208  CB       -30.1170  -47.5430   -1.4590 C.3   519  TRP519      0.0590
    209  CG       -30.9890  -47.6650   -2.6710 C.ar  519  TRP519      0.0006
    210  CD1      -31.2800  -46.6830   -3.5680 C.ar  519  TRP519      0.0946
    211  CD2      -31.6620  -48.8430   -3.1340 C.ar  519  TRP519      0.0152
    212  NE1      -32.0970  -47.1720   -4.5580 N.ar  519  TRP519     -0.2442
    213  CE2      -32.3470  -48.4960   -4.3150 C.ar  519  TRP519      0.0810
    214  CE3      -31.7530  -50.1580   -2.6640 C.ar  519  TRP519      0.0012
    215  CZ2      -33.1130  -49.4120   -5.0320 C.ar  519  TRP519      0.0191
    216  CZ3      -32.5180  -51.0690   -3.3800 C.ar  519  TRP519      0.0001
    217  CH2      -33.1850  -50.6890   -4.5510 C.ar  519  TRP519      0.0015
    218  N        -27.8480  -48.8940   -3.7690 N.am  520  SER520     -0.1950
    219  CA       -27.6660  -50.1010   -4.5630 C.3   520  SER520      0.1924
    220  C        -26.5300  -49.8830   -5.5510 C.2   520  SER520      0.2314
    221  O        -26.0780  -48.7570   -5.7700 O.2   520  SER520     -0.2863
    222  CB       -28.9460  -50.4700   -5.3160 C.3   520  SER520      0.2116
    223  OG       -29.1590  -49.5890   -6.4080 O.3   520  SER520     -0.2180
@<TRIPOS>BOND
     1   178   177    1
     2   178   179    1
     3   117   115    1
     4   134   133    2
     5   177   174    1
     6   181   179   ar
     7   111   112    1
     8   175   176    2
     9   175   174    1
    10   115   112    1
    11   115   116    1
    12   179   180   ar
    13   118   116    1
    14   188   187    2
    15   133   135   am
    16   133   132    1
    17   174   173    1
    18   112   113    1
    19   182   183    1
    20   189   187   am
    21   114   113    2
    22   187   186    1
    23   106   105    2
    24   132   131    1
    25   113   119   am
    26   183   186    1
    27   183   184    1
    28   146   144    1
    29   105   104    1
    30   170   171    1
    31   170   167    1
    32   144   143    2
    33   144   145    1
    34   143   142    1
    35   131   128    1
    36   119   120    1
    37   184   190   am
    38   184   185    2
    39   171   172    1
    40   169   168    2
    41   142   141    1
    42   160   158    1
    43   190   191    1
    44   110   108   ar
    45   108   109   ar
    46   108   107    1
    47   127   128    1
    48   127   121   am
    49   141   140    1
    50   107   104    1
    51   129   128    1
    52   129   130    2
    53   168   167    1
    54   104   103    1
    55   167   166    1
    56   120   121    1
    57   120   123    1
    58   159   161    1
    59   159   158    1
    60   194   191    1
    61   194   195    1
    62   140   137    1
    63   121   122    2
    64   158   155    1
    65   191   192    1
    66   172   166    1
    67   223   222    1
    68   166   164   am
    69   103    98   am
    70   123   124    1
    71   125   124    2
    72    79    78    2
    73    91    90    2
    74   221   220    2
    75    99    98    2
    76    95    93   ar
    77   220   219    1
    78    92    93    1
    79    92    89    1
    80    98    97    1
    81   192   193    2
    82   192   196   am
    83   124   126   am
    84   137   136    1
    85   137   138    1
    86   155   156    1
    87   155   154    1
    88   157   156    2
    89   222   219    1
    90   139   138    2
    91    88    89    1
    92   164   165    2
    93   164   163    1
    94   215   217   ar
    95   215   213   ar
    96    93    94   ar
    97    90    89    1
    98    90    96   am
    99    78    77    1
   100   219   218    1
   101   212   213   ar
   102   212   210   ar
   103   217   216   ar
   104   196   197    1
   105   154   149   am
   106   213   211   ar
   107    76    77    1
   108    97    96    1
   109    97   100    1
   110   163   162    1
   111   218   206   am
   112    77    80    1
   113    83    85   ar
   114    83    81   ar
   115   210   209   ar
   116    74    73    1
   117   216   214   ar
   118    85    86   ar
   119   211   209   ar
   120   211   214   ar
   121    80    81    1
   122   149   150    2
   123   149   148    1
   124   197   200    1
   125   197   198    1
   126   201   203    1
   127   201   202    1
   128   201   200    1
   129   100   102    1
   130   100   101    1
   131    81    82   ar
   132   209   208    1
   133   204   198   am
   134   204   205    1
   135   206   207    2
   136   206   205    1
   137   147   148    1
   138    73    75    1
   139    73    72    2
   140   198   199    2
   141    86    87    1
   142    86    84   ar
   143   148   151    1
   144   151   153    1
   145   151   152    1
   146    63    62   ar
   147   205   208    1
   148    71    72    1
   149    71    70    1
   150    82    84   ar
   151    64    62   ar
   152    62    61    1
   153    50    47    1
   154    70    69    1
   155    69    66    1
   156    20    21   ar
   157    20    18   ar
   158    61    58    1
   159    47    48    1
   160    47    46    1
   161    21    19   ar
   162    49    48    2
   163    58    57    1
   164    58    59    1
   165    56    55    1
   166    18    15   ar
   167    68    67    2
   168     1     2    1
   169    60    59    2
   170     4     3    2
   171    67    66    1
   172    57    53   am
   173    66    65    1
   174    46    40   am
   175    55    52    1
   176    54    53    2
   177    19    17   ar
   178    53    52    1
   179    15    17   ar
   180    15    13   ar
   181     3     2    1
   182     3     8   am
   183     5     2    1
   184     5     7    1
   185     5     6    1
   186    17    16   ar
   187    52    51    1
   188    40    41    2
   189    40    39    1
   190    13    12    1
   191    13    14   ar
   192    12     9    1
   193     8     9    1
   194     9    10    1
   195    38    39    1
   196    16    14   ar
   197    39    42    1
   198    42    43    1
   199    10    22   am
   200    10    11    2
   201    36    35    2
   202    22    23    1
   203    43    45    1
   204    43    44    1
   205    37    35   am
   206    25    24    2
   207    35    34    1
   208    23    24    1
   209    23    26    1
   210    34    31    1
   211    29    27    1
   212    27    26    1
   213    26    28    1
   214    33    32    2
   215    31    32    1
   216    31    30    1
