@<TRIPOS>MOLECULE
tmp/5uqnA00.pdb
 212 205 0 0 0
SMALL
GASTEIGER

@<TRIPOS>ATOM
      1  N         18.9550    0.8840  -19.2470 N.3   100  VAL100     -0.1231
      2  CA        18.6110   -0.5060  -18.9790 C.3   100  VAL100      0.1692
      3  C         19.1480   -1.3580  -20.1180 C.2   100  VAL100      0.2592
      4  O         18.9420   -1.0340  -21.2920 O.2   100  VAL100     -0.2718
      5  CB        17.0840   -0.6990  -18.8350 C.3   100  VAL100      0.0266
      6  CG1       16.6670   -2.1800  -18.9390 C.3   100  VAL100      0.0020
      7  CG2       16.5900   -0.1160  -17.5160 C.3   100  VAL100      0.0020
      8  N         19.8410   -2.4410  -19.7680 N.am  101  TRP101     -0.1962
      9  CA        20.1000   -3.5250  -20.7120 C.3   101  TRP101      0.1771
     10  C         20.0230   -4.8390  -19.9510 C.2   101  TRP101      0.2619
     11  O         20.8850   -5.1310  -19.1160 O.2   101  TRP101     -0.2715
     12  CB        21.4500   -3.3880  -21.4100 C.3   101  TRP101      0.0590
     13  CG        21.5550   -4.4110  -22.4780 C.ar  101  TRP101      0.0006
     14  CD1       22.2110   -5.6020  -22.4140 C.ar  101  TRP101      0.0946
     15  CD2       20.9270   -4.3660  -23.7600 C.ar  101  TRP101      0.0152
     16  NE1       22.0450   -6.2960  -23.5880 N.ar  101  TRP101     -0.2442
     17  CE2       21.2600   -5.5540  -24.4330 C.ar  101  TRP101      0.0810
     18  CE3       20.1190   -3.4250  -24.4070 C.ar  101  TRP101      0.0012
     19  CZ2       20.8210   -5.8270  -25.7250 C.ar  101  TRP101      0.0191
     20  CZ3       19.6840   -3.6940  -25.6890 C.ar  101  TRP101      0.0001
     21  CH2       20.0370   -4.8860  -26.3360 C.ar  101  TRP101      0.0015
     22  N         19.0050   -5.6350  -20.2680 N.am  102  ILE102     -0.1977
     23  CA        18.7280   -6.8900  -19.5820 C.3   102  ILE102      0.1596
     24  C         18.5720   -7.9900  -20.6230 C.2   102  ILE102      0.2287
     25  O         18.2350   -7.7410  -21.7830 O.2   102  ILE102     -0.2864
     26  CB        17.4630   -6.7990  -18.7020 C.3   102  ILE102      0.0276
     27  CG1       16.3180   -6.1680  -19.5030 C.3   102  ILE102      0.0022
     28  CG2       17.7490   -6.0020  -17.4320 C.3   102  ILE102      0.0022
     29  CD1       14.9870   -6.1150  -18.7820 C.3   102  ILE102      0.0001
     30  N         18.1260  -13.7940  -23.9150 N.3   138  ASN138     -0.1240
     31  CA        18.2440  -13.5390  -25.3500 C.3   138  ASN138      0.1653
     32  C         18.7620  -14.7700  -26.0820 C.2   138  ASN138      0.2266
     33  O         18.3000  -15.0860  -27.1860 O.2   138  ASN138     -0.2867
     34  CB        19.1530  -12.3370  -25.6040 C.3   138  ASN138      0.1155
     35  CG        18.5620  -11.0460  -25.0830 C.2   138  ASN138      0.2627
     36  OD1       17.3650  -10.9660  -24.8090 O.2   138  ASN138     -0.2716
     37  ND2       19.4000  -10.0250  -24.9440 N.am  138  ASN138     -0.0877
     38  N         12.1850   -8.1190  -23.5930 N.3   264  LEU264     -0.1231
     39  CA        13.0670   -7.3150  -22.7600 C.3   264  LEU264      0.1693
     40  C         12.6610   -5.8480  -22.7840 C.2   264  LEU264      0.2591
     41  O         12.9410   -5.1110  -21.8330 O.2   264  LEU264     -0.2718
     42  CB        14.5190   -7.4860  -23.2200 C.3   264  LEU264      0.0284
     43  CG        15.1770   -8.8640  -23.0370 C.3   264  LEU264      0.0019
     44  CD1       14.9870   -9.3840  -21.6170 C.3   264  LEU264      0.0001
     45  CD2       14.6810   -9.8930  -24.0580 C.3   264  LEU264      0.0001
     46  N         11.9920   -5.4110  -23.8540 N.am  265  ALA265     -0.1980
     47  CA        11.5020   -4.0410  -23.9030 C.3   265  ALA265      0.1597
     48  C         10.4040   -3.8170  -22.8710 C.2   265  ALA265      0.2287
     49  O         10.3790   -2.7790  -22.2030 O.2   265  ALA265     -0.2864
     50  CB        10.9960   -3.7130  -25.3070 C.3   265  ALA265      0.0319
     51  N         11.9620   -3.7740  -19.4550 N.3   268  SER268     -0.1202
     52  CA        12.5790   -2.4640  -19.2670 C.3   268  SER268      0.2020
     53  C         11.5300   -1.3910  -19.0140 C.2   268  SER268      0.2618
     54  O         11.7650   -0.4630  -18.2310 O.2   268  SER268     -0.2717
     55  CB        13.4270   -2.0840  -20.4840 C.3   268  SER268      0.2103
     56  OG        12.6580   -1.3920  -21.4590 O.3   268  SER268     -0.2182
     57  N         10.3700   -1.4980  -19.6650 N.am  269  ASP269     -0.1973
     58  CA         9.2680   -0.5860  -19.3850 C.3   269  ASP269      0.1709
     59  C          8.9110   -0.6270  -17.9060 C.2   269  ASP269      0.2293
     60  O          8.7000    0.4140  -17.2690 O.2   269  ASP269     -0.2864
     61  CB         8.0350   -0.9600  -20.2110 C.3   269  ASP269      0.1436
     62  CG         8.0710   -0.4290  -21.6190 C.2   269  ASP269      0.3671
     63  OD1        8.9750    0.3590  -21.9730 O.co2 269  ASP269     -0.2456
     64  OD2        7.1590   -0.8100  -22.3820 O.co2 269  ASP269     -0.2456
     65  N         11.9570    0.8340  -15.6560 N.3   272  ARG272     -0.1245
     66  CA        12.3510    2.2390  -15.7470 C.3   272  ARG272      0.1563
     67  C         11.4950    3.1200  -14.8420 C.2   272  ARG272      0.2260
     68  O         12.0150    4.0180  -14.1580 O.2   272  ARG272     -0.2867
     69  CB        12.2700    2.7170  -17.2000 C.3   272  ARG272      0.0307
     70  CG        10.8700    2.7460  -17.7860 C.3   272  ARG272      0.0489
     71  CD        10.9030    3.0890  -19.2750 C.3   272  ARG272      0.2205
     72  NE        11.5340    2.0340  -20.0600 N.pl3 272  ARG272     -0.0865
     73  CZ        11.6240    2.0240  -21.3880 C.cat 272  ARG272      0.5346
     74  NH1       11.1270    3.0240  -22.1100 N.pl3 272  ARG272      0.1354
     75  NH2       12.2210    1.0080  -21.9960 N.pl3 272  ARG272      0.1354
     76  N         15.5520    8.8440  -17.3850 N.3   283  TYR283     -0.1241
     77  CA        15.7000    7.5720  -18.0740 C.3   283  TYR283      0.1605
     78  C         15.9110    7.7990  -19.5640 C.2   283  TYR283      0.2264
     79  O         15.2780    8.6720  -20.1710 O.2   283  TYR283     -0.2867
     80  CB        14.4810    6.6670  -17.8900 C.3   283  TYR283      0.0534
     81  CG        14.5880    5.4340  -18.7670 C.ar  283  TYR283     -0.0201
     82  CD1       15.3490    4.3420  -18.3690 C.ar  283  TYR283     -0.0009
     83  CD2       13.9750    5.3840  -20.0130 C.ar  283  TYR283     -0.0009
     84  CE1       15.4760    3.2260  -19.1740 C.ar  283  TYR283      0.0417
     85  CE2       14.1000    4.2750  -20.8270 C.ar  283  TYR283      0.0417
     86  CZ        14.8520    3.1990  -20.4040 C.ar  283  TYR283      0.1957
     87  OH        14.9760    2.0890  -21.2000 O.3   283  TYR283     -0.2866
     88  N         16.5640    5.3170  -23.2280 N.3   285  ASP285     -0.1225
     89  CA        16.8900    4.1200  -23.9910 C.3   285  ASP285      0.1805
     90  C         18.3170    4.2280  -24.5210 C.2   285  ASP285      0.2598
     91  O         18.8260    5.3240  -24.7730 O.2   285  ASP285     -0.2718
     92  CB        15.9180    3.9370  -25.1570 C.3   285  ASP285      0.1424
     93  CG        14.5970    3.3150  -24.7370 C.2   285  ASP285      0.3668
     94  OD1       14.5470    2.6140  -23.7040 O.co2 285  ASP285     -0.2456
     95  OD2       13.6020    3.5230  -25.4590 O.co2 285  ASP285     -0.2456
     96  N         18.9650    3.0760  -24.7020 N.am  286  VAL286     -0.1966
     97  CA        20.3740    3.0730  -25.0830 C.3   286  VAL286      0.1727
     98  C         20.6120    3.5030  -26.5220 C.2   286  VAL286      0.2616
     99  O         21.7720    3.6730  -26.9140 O.2   286  VAL286     -0.2715
    100  CB        21.0080    1.6830  -24.8650 C.3   286  VAL286      0.0290
    101  CG1       21.0150    1.3300  -23.3860 C.3   286  VAL286      0.0023
    102  CG2       20.2860    0.6130  -25.6890 C.3   286  VAL286      0.0023
    103  N         19.5620    3.6780  -27.3260 N.am  287  ASP287     -0.1971
    104  CA        19.7140    4.1580  -28.6950 C.3   287  ASP287      0.1709
    105  C         19.4070    5.6480  -28.8290 C.2   287  ASP287      0.2293
    106  O         19.1770    6.1350  -29.9430 O.2   287  ASP287     -0.2864
    107  CB        18.8370    3.3410  -29.6500 C.3   287  ASP287      0.1436
    108  CG        17.3690    3.3650  -29.2760 C.2   287  ASP287      0.3671
    109  OD1       16.9540    4.2240  -28.4650 O.co2 287  ASP287     -0.2456
    110  OD2       16.6250    2.5080  -29.8040 O.co2 287  ASP287     -0.2456
    111  N          6.4270    9.3590  -26.2270 N.3   382  ILE382     -0.1231
    112  CA         7.1980    8.1280  -26.3280 C.3   382  ILE382      0.1692
    113  C          8.1530    8.0660  -25.1440 C.2   382  ILE382      0.2592
    114  O          8.8850    9.0230  -24.8730 O.2   382  ILE382     -0.2718
    115  CB         7.9290    8.0640  -27.6840 C.3   382  ILE382      0.0266
    116  CG1        8.6100    6.7050  -27.8910 C.3   382  ILE382      0.0019
    117  CG2        8.9210    9.2240  -27.8320 C.3   382  ILE382      0.0020
    118  CD1        7.6420    5.5320  -27.9710 C.3   382  ILE382      0.0001
    119  N          8.1450    6.9450  -24.4240 N.am  383  ASN383     -0.1960
    120  CA         8.8600    6.8360  -23.1600 C.3   383  ASN383      0.1819
    121  C         10.3080    6.4020  -23.3340 C.2   383  ASN383      0.2621
    122  O         10.9150    5.9030  -22.3800 O.2   383  ASN383     -0.2715
    123  CB         8.1230    5.8730  -22.2240 C.3   383  ASN383      0.1195
    124  CG         8.0550    4.4600  -22.7660 C.2   383  ASN383      0.2630
    125  OD1        8.1590    4.2340  -23.9690 O.2   383  ASN383     -0.2716
    126  ND2        7.8590    3.4990  -21.8720 N.am  383  ASN383     -0.0877
    127  N         10.8780    6.5890  -24.5290 N.am  384  GLN384     -0.1977
    128  CA        12.3070    6.3840  -24.7160 C.3   384  GLN384      0.1601
    129  C         13.1280    7.4190  -23.9590 C.2   384  GLN384      0.2287
    130  O         14.3420    7.2400  -23.8070 O.2   384  GLN384     -0.2864
    131  CB        12.6510    6.4310  -26.2110 C.3   384  GLN384      0.0394
    132  CG        12.2510    7.7420  -26.8830 C.3   384  GLN384      0.0908
    133  CD        12.3860    7.7470  -28.4040 C.2   384  GLN384      0.2608
    134  OE1       12.2010    8.7860  -29.0340 O.2   384  GLN384     -0.2717
    135  NE2       12.6940    6.5950  -28.9970 N.am  384  GLN384     -0.0878
    136  N          2.2170   -4.6210  -31.5140 N.3   462  LYS462     -0.1245
    137  CA         2.6740   -3.4830  -30.7260 C.3   462  LYS462      0.1561
    138  C          1.9710   -3.4010  -29.3720 C.2   462  LYS462      0.2260
    139  O          1.8230   -2.3160  -28.8090 O.2   462  LYS462     -0.2867
    140  CB         2.4570   -2.1930  -31.5150 C.3   462  LYS462      0.0271
    141  CG         3.2120   -2.1460  -32.8340 C.3   462  LYS462      0.0035
    142  CD         4.7110   -2.0640  -32.6070 C.3   462  LYS462      0.0206
    143  CE         5.3020   -0.7990  -33.1970 C.3   462  LYS462      0.1093
    144  NZ         6.6180   -0.4730  -32.5790 N.3   462  LYS462     -0.1314
    145  N          2.7950   -3.9910  -26.3840 N.3   464  THR464     -0.1203
    146  CA         3.5530   -3.3880  -25.2920 C.3   464  THR464      0.1994
    147  C          3.1860   -1.9190  -25.0990 C.2   464  THR464      0.2617
    148  O          3.0250   -1.4520  -23.9630 O.2   464  THR464     -0.2717
    149  CB         5.0500   -3.5380  -25.5750 C.3   464  THR464      0.1784
    150  OG1        5.3410   -4.9050  -25.8940 O.3   464  THR464     -0.2211
    151  CG2        5.8830   -3.1150  -24.3770 C.3   464  THR464      0.0376
    152  N          3.0260   -1.1840  -26.2030 N.am  465  ILE465     -0.1979
    153  CA         2.7110    0.2420  -26.1320 C.3   465  ILE465      0.1595
    154  C          1.5310    0.4820  -25.1990 C.2   465  ILE465      0.2287
    155  O          1.5470    1.4000  -24.3700 O.2   465  ILE465     -0.2864
    156  CB         2.4300    0.7920  -27.5460 C.3   465  ILE465      0.0276
    157  CG1        3.6760    0.6730  -28.4370 C.3   465  ILE465      0.0022
    158  CG2        1.9150    2.2400  -27.4990 C.3   465  ILE465      0.0022
    159  CD1        4.7870    1.6570  -28.1240 C.3   465  ILE465      0.0001
    160  N          3.7960    0.8650  -22.0630 N.3   469  GLY469     -0.1210
    161  CA         4.3990    1.9600  -22.7800 C.3   469  GLY469      0.1940
    162  C          3.5900    3.2430  -22.7120 C.2   469  GLY469      0.2453
    163  O          2.8630    3.5020  -21.7470 O.2   469  GLY469     -0.2732
    164  N          3.7010    4.0690  -23.7570 N.am  470  PRO470     -0.2728
    165  CA         3.1620    5.4400  -23.6860 C.3   470  PRO470      0.1401
    166  C          1.6940    5.5450  -23.3000 C.2   470  PRO470      0.2269
    167  O          1.3270    6.5080  -22.6120 O.2   470  PRO470     -0.2865
    168  CB         3.4060    5.9730  -25.1030 C.3   470  PRO470      0.0296
    169  CG         4.6030    5.2350  -25.5740 C.3   470  PRO470      0.0237
    170  CD         4.5380    3.8720  -24.9540 C.3   470  PRO470      0.0939
    171  N         17.7450    3.9330  -33.3370 N.3   514  GLU514     -0.1245
    172  CA        16.3000    4.0570  -33.1850 C.3   514  GLU514      0.1567
    173  C         15.5660    3.2940  -34.3010 C.2   514  GLU514      0.2260
    174  O         14.6930    2.4710  -34.0270 O.2   514  GLU514     -0.2867
    175  CB        15.8880    5.5300  -33.2020 C.3   514  GLU514      0.0388
    176  CG        14.3850    5.7510  -33.1780 C.3   514  GLU514      0.1160
    177  CD        13.7160    5.0800  -31.9940 C.2   514  GLU514      0.3649
    178  OE1       12.5020    5.2930  -31.7960 O.co2 514  GLU514     -0.2457
    179  OE2       14.4050    4.3390  -31.2620 O.co2 514  GLU514     -0.2457
    180  N         15.8480    0.6770  -35.9230 N.3   516  ALA516     -0.1231
    181  CA        15.6240   -0.7630  -35.8530 C.3   516  ALA516      0.1694
    182  C         15.1250   -1.1070  -34.4570 C.2   516  ALA516      0.2593
    183  O         15.8230   -0.8540  -33.4690 O.2   516  ALA516     -0.2718
    184  CB        16.9040   -1.5340  -36.1700 C.3   516  ALA516      0.0304
    185  N         13.9260   -1.6780  -34.3790 N.am  517  SER517     -0.1938
    186  CA        13.3100   -2.0100  -33.1030 C.3   517  SER517      0.2055
    187  C         13.7910   -3.3730  -32.6240 C.2   517  SER517      0.2643
    188  O         14.0180   -4.2850  -33.4260 O.2   517  SER517     -0.2714
    189  CB        11.7850   -2.0070  -33.2250 C.3   517  SER517      0.2130
    190  OG        11.1710   -2.3660  -31.9970 O.3   517  SER517     -0.2179
    191  N         13.9380   -3.5040  -31.3050 N.am  518  LEU518     -0.1963
    192  CA        14.4370   -4.7260  -30.6850 C.3   518  LEU518      0.1728
    193  C         13.3270   -5.6810  -30.2680 C.2   518  LEU518      0.2616
    194  O         13.5950   -6.8730  -30.0720 O.2   518  LEU518     -0.2715
    195  CB        15.2840   -4.3820  -29.4530 C.3   518  LEU518      0.0311
    196  CG        16.6170   -3.6830  -29.7280 C.3   518  LEU518      0.0022
    197  CD1       17.1940   -3.0600  -28.4720 C.3   518  LEU518      0.0001
    198  CD2       17.6160   -4.6670  -30.3060 C.3   518  LEU518      0.0001
    199  N         12.0960   -5.1860  -30.1230 N.am  519  TRP519     -0.1974
    200  CA        10.9650   -6.0040  -29.7130 C.3   519  TRP519      0.1640
    201  C          9.8740   -6.1070  -30.7700 C.2   519  TRP519      0.2290
    202  O          8.9030   -6.8450  -30.5590 O.2   519  TRP519     -0.2864
    203  CB        10.3420   -5.4440  -28.4230 C.3   519  TRP519      0.0576
    204  CG         9.7430   -4.0870  -28.6110 C.ar  519  TRP519      0.0006
    205  CD1       10.4110   -2.9030  -28.6840 C.ar  519  TRP519      0.0946
    206  CD2        8.3510   -3.7720  -28.7560 C.ar  519  TRP519      0.0152
    207  NE1        9.5280   -1.8690  -28.8680 N.ar  519  TRP519     -0.2442
    208  CE2        8.2560   -2.3750  -28.9180 C.ar  519  TRP519      0.0810
    209  CE3        7.1790   -4.5360  -28.7700 C.ar  519  TRP519      0.0012
    210  CZ2        7.0340   -1.7240  -29.0850 C.ar  519  TRP519      0.0191
    211  CZ3        5.9640   -3.8870  -28.9360 C.ar  519  TRP519      0.0001
    212  CH2        5.9040   -2.4960  -29.0940 C.ar  519  TRP519      0.0015
@<TRIPOS>BOND
     1   184   181    1
     2   180   181    1
     3   181   182    1
     4   182   185   am
     5   182   183    2
     6   185   186    1
     7   173   174    2
     8   173   172    1
     9   188   187    2
    10   171   172    1
    11   189   186    1
    12   189   190    1
    13   175   172    1
    14   175   176    1
    15   143   142    1
    16   143   144    1
    17   176   177    1
    18   186   187    1
    19   141   142    1
    20   141   140    1
    21   187   191   am
    22   177   178   ar
    23   177   179   ar
    24   140   137    1
    25   136   137    1
    26   191   192    1
    27   201   202    2
    28   201   200    1
    29   137   138    1
    30   192   193    1
    31   192   195    1
    32   198   196    1
    33   193   199   am
    34   193   194    2
    35   199   200    1
    36   106   105    2
    37   110   108   ar
    38   196   195    1
    39   196   197    1
    40   200   203    1
    41   107   108    1
    42   107   104    1
    43   138   139    2
    44   108   109   ar
    45   212   210   ar
    46   212   211   ar
    47   210   208   ar
    48   134   133    2
    49   135   133   am
    50   211   209   ar
    51   208   207   ar
    52   208   206   ar
    53   207   205   ar
    54   105   104    1
    55   209   206   ar
    56   206   204   ar
    57   104   103    1
    58   205   204   ar
    59   204   203    1
    60   157   159    1
    61   157   156    1
    62   133   132    1
    63   118   116    1
    64   116   115    1
    65   117   115    1
    66   115   112    1
    67   156   158    1
    68   156   153    1
    69   103    98   am
    70    33    32    2
    71    99    98    2
    72   132   131    1
    73    98    97    1
    74   145   146    1
    75    21    19   ar
    76    21    20   ar
    77   112   111    1
    78   112   113    1
    79   131   128    1
    80   152   153    1
    81   152   147   am
    82   153   154    1
    83    32    31    1
    84   150   149    1
    85    19    17   ar
    86    20    18   ar
    87   102   100    1
    88    34    31    1
    89    34    35    1
    90   149   146    1
    91   149   151    1
    92   169   168    1
    93   169   170    1
    94    95    93   ar
    95    31    30    1
    96    50    47    1
    97   146   147    1
    98   154   155    2
    99    92    93    1
   100    92    89    1
   101   113   114    2
   102   113   119   am
   103   168   165    1
   104   147   148    2
   105    97   100    1
   106    97    96    1
   107    35    37   am
   108    35    36    2
   109   170   164    1
   110   100   101    1
   111    91    90    2
   112    93    94   ar
   113   128   127    1
   114   128   129    1
   115    96    90   am
   116   127   121   am
   117    90    89    1
   118    17    15   ar
   119    17    16   ar
   120   119   120    1
   121    18    15   ar
   122    45    43    1
   123    89    88    1
   124   125   124    2
   125   129   130    2
   126    47    46    1
   127    47    48    1
   128    46    40   am
   129    15    13   ar
   130   164   165    1
   131   164   162   am
   132   165   166    1
   133    38    39    1
   134    16    14   ar
   135   121   120    1
   136   121   122    2
   137   166   167    2
   138    42    43    1
   139    42    39    1
   140   120   123    1
   141    43    44    1
   142    48    49    2
   143    40    39    1
   144    40    41    2
   145   161   162    1
   146   161   160    1
   147   124   123    1
   148   124   126   am
   149   162   163    2
   150    13    14   ar
   151    13    12    1
   152    64    62   ar
   153    74    73    1
   154    75    73    1
   155    63    62   ar
   156    25    24    2
   157    62    61    1
   158    56    55    1
   159    12     9    1
   160    73    72    2
   161     4     3    2
   162    87    86    1
   163    85    86   ar
   164    85    83   ar
   165     9    10    1
   166     9     8    1
   167    24    23    1
   168    55    52    1
   169    86    84   ar
   170    22    10   am
   171    22    23    1
   172    61    58    1
   173    79    78    2
   174     3     8   am
   175     3     2    1
   176    72    71    1
   177    83    81   ar
   178    10    11    2
   179    57    58    1
   180    57    53   am
   181    23    26    1
   182    78    77    1
   183    27    29    1
   184    27    26    1
   185    51    52    1
   186    58    59    1
   187    71    70    1
   188    52    53    1
   189     1     2    1
   190    84    82   ar
   191    53    54    2
   192     2     5    1
   193     6     5    1
   194     5     7    1
   195    81    82   ar
   196    81    80    1
   197    26    28    1
   198    77    80    1
   199    77    76    1
   200    59    60    2
   201    70    69    1
   202    69    66    1
   203    66    65    1
   204    66    67    1
   205    67    68    2
