@<TRIPOS>MOLECULE
tmp/5uqrB01.pdb
 233 227 0 0 0
SMALL
GASTEIGER

@<TRIPOS>ATOM
      1  N         29.4930  -43.1830  -25.4690 N.3    44  ARG44      -0.1245
      2  CA        30.3240  -43.8290  -26.4900 C.3    44  ARG44       0.1563
      3  C         30.0940  -45.3340  -26.4560 C.2    44  ARG44       0.2260
      4  O         30.1510  -45.9410  -25.4070 O.2    44  ARG44      -0.2867
      5  CB        31.7960  -43.5210  -26.2900 C.3    44  ARG44       0.0307
      6  CG        32.6360  -43.7290  -27.5460 C.3    44  ARG44       0.0489
      7  CD        32.4250  -42.6210  -28.5760 C.3    44  ARG44       0.2205
      8  NE        33.0030  -41.3410  -28.1190 N.pl3  44  ARG44      -0.0865
      9  CZ        32.3460  -40.3690  -27.4880 C.cat  44  ARG44       0.5346
     10  NH1       31.0380  -40.4520  -27.2620 N.pl3  44  ARG44       0.1354
     11  NH2       32.9930  -39.2930  -27.1000 N.pl3  44  ARG44       0.1354
     12  N         33.7660  -27.0370  -32.6730 N.3   273  PRO273     -0.2102
     13  CA        35.1300  -27.4230  -33.0610 C.3   273  PRO273      0.1504
     14  C         35.3770  -28.9260  -33.1600 C.2   273  PRO273      0.2576
     15  O         36.2050  -29.3650  -33.9880 O.2   273  PRO273     -0.2718
     16  CB        35.9870  -26.8170  -31.9570 C.3   273  PRO273      0.0282
     17  CG        35.2350  -25.6150  -31.5570 C.3   273  PRO273      0.0208
     18  CD        33.7830  -25.9550  -31.6830 C.3   273  PRO273      0.0893
     19  N         34.7390  -29.7240  -32.3010 N.am  274  LEU274     -0.1966
     20  CA        34.9410  -31.1700  -32.3560 C.3   274  LEU274      0.1728
     21  C         34.0290  -31.8800  -33.3440 C.2   274  LEU274      0.2616
     22  O         34.1590  -33.0970  -33.5330 O.2   274  LEU274     -0.2715
     23  CB        34.7720  -31.8010  -30.9730 C.3   274  LEU274      0.0311
     24  CG        35.6720  -31.2260  -29.8810 C.3   274  LEU274      0.0022
     25  CD1       35.4730  -32.0340  -28.6180 C.3   274  LEU274      0.0001
     26  CD2       37.1390  -31.2150  -30.2800 C.3   274  LEU274      0.0001
     27  N         33.1020  -31.1420  -33.9440 N.am  275  HIS275     -0.1973
     28  CA        32.2290  -31.7000  -34.9770 C.3   275  HIS275      0.1656
     29  C         32.5460  -31.0190  -36.3430 C.2   275  HIS275      0.2291
     30  O         33.7170  -31.0650  -36.7710 O.2   275  HIS275     -0.2864
     31  CB        30.7700  -31.6500  -34.5070 C.3   275  HIS275      0.0771
     32  CG        29.8210  -32.4000  -35.3850 C.ar  275  HIS275      0.0820
     33  ND1       30.2370  -33.3870  -36.2630 N.ar  275  HIS275     -0.2267
     34  CD2       28.4760  -32.3030  -35.5290 C.ar  275  HIS275      0.1154
     35  CE1       29.1790  -33.8710  -36.8940 C.ar  275  HIS275      0.1986
     36  NE2       28.0970  -33.2380  -36.4650 N.ar  275  HIS275     -0.2212
     37  N         35.5680  -28.7150  -37.3550 N.3   278  ALA278     -0.1245
     38  CA        36.8770  -29.2860  -37.6030 C.3   278  ALA278      0.1562
     39  C         37.3240  -29.0540  -39.0400 C.2   278  ALA278      0.2260
     40  O         38.5310  -28.8720  -39.2720 O.2   278  ALA278     -0.2867
     41  CB        36.9150  -30.7690  -37.2710 C.3   278  ALA278      0.0290
     42  N         49.7980  -30.8580  -29.7550 N.3   310  LEU310     -0.1245
     43  CA        49.3810  -31.7380  -28.6660 C.3   310  LEU310      0.1561
     44  C         49.8630  -31.2880  -27.2730 C.2   310  LEU310      0.2260
     45  O         49.0930  -31.2970  -26.3080 O.2   310  LEU310     -0.2867
     46  CB        49.8450  -33.1700  -28.9410 C.3   310  LEU310      0.0270
     47  CG        49.2200  -33.8350  -30.1570 C.3   310  LEU310      0.0019
     48  CD1       49.9120  -35.1680  -30.4480 C.3   310  LEU310      0.0001
     49  CD2       47.7330  -34.0410  -29.9510 C.3   310  LEU310      0.0001
     50  N         45.8150  -28.9000  -27.2740 N.3   314  ARG314     -0.1231
     51  CA        44.8960  -28.7490  -28.3960 C.3   314  ARG314      0.1694
     52  C         44.8020  -30.0350  -29.1960 C.2   314  ARG314      0.2592
     53  O         45.7270  -30.8540  -29.1440 O.2   314  ARG314     -0.2718
     54  CB        45.3780  -27.6130  -29.2840 C.3   314  ARG314      0.0321
     55  CG        45.2090  -26.2520  -28.5910 C.3   314  ARG314      0.0489
     56  CD        46.1100  -25.2160  -29.2270 C.3   314  ARG314      0.2205
     57  NE        45.9370  -25.1280  -30.6930 N.pl3 314  ARG314     -0.0865
     58  CZ        46.9340  -24.9020  -31.5650 C.cat 314  ARG314      0.5346
     59  NH1       48.1910  -24.7400  -31.1340 N.pl3 314  ARG314      0.1354
     60  NH2       46.6810  -24.8590  -32.8740 N.pl3 314  ARG314      0.1354
     61  N         43.6930  -30.2250  -29.9220 N.am  315  VAL315     -0.1966
     62  CA        43.5740  -31.4110  -30.7940 C.3   315  VAL315      0.1727
     63  C         44.2340  -31.1780  -32.1450 C.2   315  VAL315      0.2616
     64  O         44.3470  -30.0290  -32.5930 O.2   315  VAL315     -0.2715
     65  CB        42.1150  -31.8870  -31.0130 C.3   315  VAL315      0.0290
     66  CG1       41.4150  -32.1710  -29.6850 C.3   315  VAL315      0.0023
     67  CG2       41.3060  -30.9090  -31.8430 C.3   315  VAL315      0.0023
     68  N         44.6550  -32.2570  -32.8020 N.am  316  VAL316     -0.1964
     69  CA        45.0270  -32.1950  -34.1910 C.3   316  VAL316      0.1712
     70  C         43.7310  -32.3240  -34.9840 C.2   316  VAL316      0.2458
     71  O         43.1160  -33.4070  -35.0060 O.2   316  VAL316     -0.2730
     72  CB        46.0050  -33.3070  -34.5940 C.3   316  VAL316      0.0289
     73  CG1       46.2860  -33.2770  -36.0950 C.3   316  VAL316      0.0023
     74  CG2       47.3130  -33.1760  -33.8310 C.3   316  VAL316      0.0023
     75  N         43.3040  -31.2300  -35.6410 N.am  317  PRO317     -0.2716
     76  CA        42.0060  -31.3400  -36.3010 C.3   317  PRO317      0.1536
     77  C         42.0540  -32.2900  -37.5160 C.2   317  PRO317      0.2599
     78  O         43.0820  -32.4080  -38.1750 O.2   317  PRO317     -0.2715
     79  CB        41.6840  -29.9080  -36.7360 C.3   317  PRO317      0.0310
     80  CG        42.7370  -29.0430  -36.2110 C.3   317  PRO317      0.0237
     81  CD        43.9210  -29.9060  -35.8610 C.3   317  PRO317      0.0939
     82  N         40.9280  -32.9560  -37.7580 N.am  318  GLY318     -0.1941
     83  CA        40.7420  -33.8310  -38.9020 C.3   318  GLY318      0.2014
     84  C         41.2590  -35.2430  -38.7020 C.2   318  GLY318      0.2639
     85  O         41.3050  -36.0120  -39.6630 O.2   318  GLY318     -0.2714
     86  N         41.6720  -35.5710  -37.4750 N.am  319  TYR319     -0.1959
     87  CA        42.1640  -36.8990  -37.1200 C.3   319  TYR319      0.1771
     88  C         41.3200  -37.4790  -35.9950 C.2   319  TYR319      0.2620
     89  O         40.8640  -36.7440  -35.1170 O.2   319  TYR319     -0.2715
     90  CB        43.6830  -36.8660  -36.7670 C.3   319  TYR319      0.0574
     91  CG        44.4560  -36.7250  -38.0370 C.ar  319  TYR319     -0.0198
     92  CD1       44.5210  -35.4840  -38.6690 C.ar  319  TYR319     -0.0009
     93  CD2       44.9990  -37.8360  -38.6730 C.ar  319  TYR319     -0.0009
     94  CE1       45.1020  -35.3550  -39.9120 C.ar  319  TYR319      0.0417
     95  CE2       45.5930  -37.7140  -39.9010 C.ar  319  TYR319      0.0417
     96  CZ        45.6160  -36.4770  -40.5280 C.ar  319  TYR319      0.1957
     97  OH        46.2000  -36.3960  -41.7630 O.3   319  TYR319     -0.2866
     98  N         41.1330  -38.7940  -36.0180 N.am  320  GLY320     -0.1940
     99  CA        40.3100  -39.4670  -35.0230 C.3   320  GLY320      0.2014
    100  C         38.8260  -39.4630  -35.3430 C.2   320  GLY320      0.2639
    101  O         38.3630  -38.8160  -36.2920 O.2   320  GLY320     -0.2714
    102  N         38.1000  -40.2470  -34.5660 N.am  321  HIS321     -0.1959
    103  CA        36.6540  -40.3450  -34.7240 C.3   321  HIS321      0.1787
    104  C         36.0280  -41.0170  -33.5230 C.2   321  HIS321      0.2620
    105  O         36.6650  -41.8300  -32.8640 O.2   321  HIS321     -0.2715
    106  CB        36.3050  -41.1420  -35.9800 C.3   321  HIS321      0.0785
    107  CG        34.9570  -40.8160  -36.5320 C.ar  321  HIS321      0.0821
    108  ND1       33.8440  -41.5810  -36.2680 N.ar  321  HIS321     -0.2267
    109  CD2       34.5460  -39.7990  -37.3210 C.ar  321  HIS321      0.1154
    110  CE1       32.7920  -41.0280  -36.8400 C.ar  321  HIS321      0.1986
    111  NE2       33.1900  -39.9540  -37.4990 N.ar  321  HIS321     -0.2212
    112  N         34.7620  -40.7000  -33.2610 N.am  322  GLY322     -0.1954
    113  CA        34.0640  -41.3520  -32.1530 C.3   322  GLY322      0.1869
    114  C         33.7450  -42.8230  -32.3760 C.2   322  GLY322      0.2309
    115  O         33.6440  -43.6030  -31.4350 O.2   322  GLY322     -0.2863
    116  N         37.5570  -46.6420  -36.4220 N.3   325  ARG325     -0.1245
    117  CA        38.8350  -47.1160  -35.8980 C.3   325  ARG325      0.1563
    118  C         39.8460  -47.3730  -37.0150 C.2   325  ARG325      0.2260
    119  O         40.9810  -47.8430  -36.7600 O.2   325  ARG325     -0.2867
    120  CB        38.6200  -48.4100  -35.0950 C.3   325  ARG325      0.0307
    121  CG        37.7060  -48.2320  -33.8730 C.3   325  ARG325      0.0489
    122  CD        38.3570  -47.3340  -32.8250 C.3   325  ARG325      0.2205
    123  NE        37.5250  -46.9260  -31.6890 N.pl3 325  ARG325     -0.0865
    124  CZ        36.9800  -45.7140  -31.4700 C.cat 325  ARG325      0.5346
    125  NH1       37.0290  -44.6950  -32.3410 N.pl3 325  ARG325      0.1354
    126  NH2       36.3010  -45.5230  -30.3390 N.pl3 325  ARG325      0.1354
    127  N         35.2120  -41.8060  -46.6290 N.3   330  ARG330     -0.1245
    128  CA        34.8970  -40.4840  -47.1680 C.3   330  ARG330      0.1563
    129  C         36.1710  -39.7090  -47.4240 C.2   330  ARG330      0.2260
    130  O         36.2620  -38.9890  -48.4080 O.2   330  ARG330     -0.2867
    131  CB        34.0450  -39.6860  -46.1990 C.3   330  ARG330      0.0307
    132  CG        32.6810  -40.3320  -45.8830 C.3   330  ARG330      0.0489
    133  CD        31.9660  -39.5840  -44.7520 C.3   330  ARG330      0.2205
    134  NE        32.7860  -39.5380  -43.5390 N.pl3 330  ARG330     -0.0865
    135  CZ        32.4700  -38.9060  -42.4050 C.cat 330  ARG330      0.5346
    136  NH1       31.3390  -38.2410  -42.2750 N.pl3 330  ARG330      0.1354
    137  NH2       33.2970  -38.9210  -41.3780 N.pl3 330  ARG330      0.1354
    138  N         50.1240  -39.2880  -33.2810 N.3   364  LEU364     -0.1245
    139  CA        48.9640  -39.5340  -32.4280 C.3   364  LEU364      0.1561
    140  C         49.0700  -40.8610  -31.6710 C.2   364  LEU364      0.2260
    141  O         48.6360  -40.9730  -30.5290 O.2   364  LEU364     -0.2867
    142  CB        47.6670  -39.5010  -33.2180 C.3   364  LEU364      0.0270
    143  CG        47.2900  -38.0920  -33.6710 C.3   364  LEU364      0.0019
    144  CD1       46.3110  -38.1590  -34.8200 C.3   364  LEU364      0.0001
    145  CD2       46.7370  -37.2760  -32.5020 C.3   364  LEU364      0.0001
    146  N         51.5710  -40.3520  -28.8430 N.3   367  HIS367     -0.1241
    147  CA        50.9050  -39.5870  -27.7870 C.3   367  HIS367      0.1621
    148  C         49.9990  -40.4800  -26.9510 C.2   367  HIS367      0.2264
    149  O         49.9400  -40.3340  -25.7330 O.2   367  HIS367     -0.2867
    150  CB        50.1860  -38.3840  -28.4280 C.3   367  HIS367      0.0745
    151  CG        49.3840  -37.5330  -27.4930 C.ar  367  HIS367      0.0817
    152  ND1       48.0110  -37.4930  -27.5600 N.ar  367  HIS367     -0.2268
    153  CD2       49.7410  -36.6420  -26.5340 C.ar  367  HIS367      0.1154
    154  CE1       47.5530  -36.6080  -26.6910 C.ar  367  HIS367      0.1986
    155  NE2       48.5780  -36.0800  -26.0520 N.ar  367  HIS367     -0.2212
    156  N         46.6730  -41.2940  -26.6890 N.3   369  LYS369     -0.1231
    157  CA        45.3520  -40.9820  -26.1240 C.3   369  LYS369      0.1693
    158  C         44.2120  -41.3870  -27.0400 C.2   369  LYS369      0.2593
    159  O         43.1990  -41.9220  -26.5920 O.2   369  LYS369     -0.2718
    160  CB        45.2480  -39.4900  -25.8330 C.3   369  LYS369      0.0285
    161  CG        46.2950  -38.9960  -24.8330 C.3   369  LYS369      0.0035
    162  CD        46.2440  -39.6680  -23.4650 C.3   369  LYS369      0.0206
    163  CE        45.0110  -39.2230  -22.6830 C.3   369  LYS369      0.1093
    164  NZ        44.8790  -39.9280  -21.3780 N.3   369  LYS369     -0.1314
    165  N         44.3520  -41.0980  -28.3230 N.am  370  THR370     -0.1939
    166  CA        43.2510  -41.4030  -29.2610 C.3   370  THR370      0.2028
    167  C         43.0310  -42.9000  -29.4630 C.2   370  THR370      0.2642
    168  O         43.9670  -43.7120  -29.3810 O.2   370  THR370     -0.2714
    169  CB        43.4500  -40.7340  -30.6100 C.3   370  THR370      0.1808
    170  OG1       42.2500  -40.8680  -31.3840 O.3   370  THR370     -0.2208
    171  CG2       44.6130  -41.3700  -31.3670 C.3   370  THR370      0.0379
    172  N         41.7800  -43.2700  -29.7560 N.am  371  LYS371     -0.1963
    173  CA        41.4630  -44.6290  -30.1640 C.3   371  LYS371      0.1728
    174  C         41.5890  -44.8450  -31.6770 C.2   371  LYS371      0.2616
    175  O         41.6040  -45.9800  -32.1390 O.2   371  LYS371     -0.2715
    176  CB        40.0510  -45.0020  -29.7110 C.3   371  LYS371      0.0311
    177  CG        39.8780  -45.0260  -28.1900 C.3   371  LYS371      0.0038
    178  CD        40.7720  -46.0820  -27.5360 C.3   371  LYS371      0.0206
    179  CE        40.6220  -46.1170  -26.0190 C.3   371  LYS371      0.1093
    180  NZ        41.6880  -46.9510  -25.3770 N.3   371  LYS371     -0.1314
    181  N         41.7150  -43.7590  -32.4300 N.am  372  ASN372     -0.1972
    182  CA        41.8120  -43.8140  -33.8710 C.3   372  ASN372      0.1688
    183  C         42.7950  -42.7400  -34.3180 C.2   372  ASN372      0.2292
    184  O         42.5070  -41.5510  -34.2170 O.2   372  ASN372     -0.2864
    185  CB        40.4600  -43.5030  -34.4840 C.3   372  ASN372      0.1181
    186  CG        40.5140  -43.4250  -36.0140 C.2   372  ASN372      0.2629
    187  OD1       41.4770  -43.8890  -36.6520 O.2   372  ASN372     -0.2716
    188  ND2       39.4710  -42.8160  -36.6060 N.am  372  ASN372     -0.0877
    189  N         40.1160  -38.3390  -40.6590 N.3   376  ASN376     -0.1225
    190  CA        38.6920  -38.3920  -41.0060 C.3   376  ASN376      0.1785
    191  C         38.4990  -37.4510  -42.1990 C.2   376  ASN376      0.2597
    192  O         39.4610  -36.7890  -42.6400 O.2   376  ASN376     -0.2718
    193  CB        37.8150  -38.0660  -39.7880 C.3   376  ASN376      0.1169
    194  CG        37.9980  -36.6520  -39.2690 C.2   376  ASN376      0.2627
    195  OD1       37.8390  -35.6910  -40.0280 O.2   376  ASN376     -0.2716
    196  ND2       38.3260  -36.5210  -37.9570 N.am  376  ASN376     -0.0877
    197  N         37.2890  -37.3890  -42.7260 N.am  377  VAL377     -0.1966
    198  CA        37.0350  -36.6450  -43.9490 C.3   377  VAL377      0.1727
    199  C         37.4090  -35.1580  -43.8290 C.2   377  VAL377      0.2616
    200  O         37.8300  -34.5380  -44.8250 O.2   377  VAL377     -0.2715
    201  CB        35.5630  -36.8310  -44.4130 C.3   377  VAL377      0.0290
    202  CG1       34.5880  -36.1860  -43.4640 C.3   377  VAL377      0.0023
    203  CG2       35.3530  -36.2630  -45.8190 C.3   377  VAL377      0.0023
    204  N         37.2810  -34.5840  -42.6380 N.am  378  ASP378     -0.1971
    205  CA        37.6240  -33.1820  -42.4480 C.3   378  ASP378      0.1709
    206  C         39.0880  -32.8590  -42.7520 C.2   378  ASP378      0.2293
    207  O         39.4010  -31.6900  -43.0400 O.2   378  ASP378     -0.2864
    208  CB        37.2590  -32.7100  -41.0430 C.3   378  ASP378      0.1436
    209  CG        35.7500  -32.6180  -40.8130 C.2   378  ASP378      0.3671
    210  OD1       34.9260  -32.8110  -41.7200 O.co2 378  ASP378     -0.2456
    211  OD2       35.3600  -32.3120  -39.6900 O.co2 378  ASP378     -0.2456
    212  N         29.3550  -27.7700  -45.2890 N.3   400  PHE400     -0.1241
    213  CA        29.0130  -28.9840  -44.5190 C.3   400  PHE400      0.1605
    214  C         27.5510  -28.8490  -44.0660 C.2   400  PHE400      0.2264
    215  O         26.7640  -29.8020  -44.1730 O.2   400  PHE400     -0.2867
    216  CB        29.9810  -29.1360  -43.3490 C.3   400  PHE400      0.0534
    217  CG        30.0610  -30.5230  -42.7480 C.ar  400  PHE400     -0.0203
    218  CD1       29.0540  -31.4660  -42.8840 C.ar  400  PHE400     -0.0042
    219  CD2       31.1820  -30.8780  -41.9910 C.ar  400  PHE400     -0.0042
    220  CE1       29.1480  -32.7080  -42.3110 C.ar  400  PHE400     -0.0003
    221  CE2       31.2790  -32.1540  -41.4270 C.ar  400  PHE400     -0.0003
    222  CZ        30.2340  -33.0480  -41.5720 C.ar  400  PHE400     -0.0000
    223  N         24.7200  -31.6370  -44.7580 N.3   404  ARG404     -0.1245
    224  CA        24.2430  -32.4260  -43.6320 C.3   404  ARG404      0.1563
    225  C         22.7570  -32.1940  -43.3000 C.2   404  ARG404      0.2260
    226  O         22.2400  -32.7840  -42.3780 O.2   404  ARG404     -0.2867
    227  CB        25.1640  -32.2110  -42.4320 C.3   404  ARG404      0.0307
    228  CG        24.8610  -32.9770  -41.1410 C.3   404  ARG404      0.0489
    229  CD        24.7530  -34.4740  -41.3230 C.3   404  ARG404      0.2205
    230  NE        25.9860  -35.0800  -41.8200 N.pl3 404  ARG404     -0.0865
    231  CZ        27.0080  -35.5110  -41.0940 C.cat 404  ARG404      0.5346
    232  NH1       27.0190  -35.4330  -39.7760 N.pl3 404  ARG404      0.1354
    233  NH2       28.0470  -36.0570  -41.7060 N.pl3 404  ARG404      0.1354
@<TRIPOS>BOND
     1   130   129    2
     2   129   128    1
     3   128   127    1
     4   128   131    1
     5   131   132    1
     6   132   133    1
     7   203   201    1
     8   212   213    1
     9   200   199    2
    10   223   224    1
    11   133   134    1
    12   213   214    1
    13   213   216    1
    14   201   198    1
    15   201   202    1
    16   215   214    2
    17   198   199    1
    18   198   197    1
    19   199   204   am
    20   224   225    1
    21   224   227    1
    22   134   135    2
    23   216   217    1
    24   225   226    2
    25   207   206    2
    26   218   217   ar
    27   218   220   ar
    28   206   205    1
    29   217   219   ar
    30   197   191   am
    31   192   191    2
    32   204   205    1
    33   205   208    1
    34   227   228    1
    35   135   136    1
    36   135   137    1
    37   220   222   ar
    38   191   190    1
    39   219   221   ar
    40   230   229    1
    41   230   231    2
    42    97    96    1
    43   210   209   ar
    44   233   231    1
    45   222   221   ar
    46   229   228    1
    47   231   232    1
    48   208   209    1
    49   190   189    1
    50   190   193    1
    51   209   211   ar
    52    96    94   ar
    53    96    95   ar
    54   195   194    2
    55    94    92   ar
    56    95    93   ar
    57   193   194    1
    58    85    84    2
    59    40    39    2
    60   194   196   am
    61    39    38    1
    62    83    84    1
    63    83    82    1
    64    84    86   am
    65    93    91   ar
    66    92    91   ar
    67    78    77    2
    68    91    90    1
    69    82    77   am
    70    38    37    1
    71    38    41    1
    72    77    76    1
    73   111   109   ar
    74   111   110   ar
    75    86    87    1
    76   109   107   ar
    77    87    90    1
    78    87    88    1
    79   118   119    2
    80   118   117    1
    81    35    36   ar
    82    35    33   ar
    83   110   108   ar
    84    30    29    2
    85    79    76    1
    86    79    80    1
    87   187   186    2
    88   188   186   am
    89   107   108   ar
    90   107   106    1
    91    36    34   ar
    92   116   117    1
    93    29    28    1
    94    76    75    1
    95   101   100    2
    96    33    32   ar
    97    80    81    1
    98    73    72    1
    99    98    88   am
   100    98    99    1
   101   186   185    1
   102    88    89    2
   103   106   103    1
   104   117   120    1
   105    81    75    1
   106    75    70   am
   107    34    32   ar
   108    32    31    1
   109   100    99    1
   110   100   102   am
   111   120   121    1
   112    71    70    2
   113    70    69    1
   114    28    31    1
   115    28    27    1
   116   144   143    1
   117   103   102    1
   118   103   104    1
   119    72    69    1
   120    72    74    1
   121   185   182    1
   122   183   184    2
   123   183   182    1
   124    69    68    1
   125    15    14    2
   126    27    21   am
   127   121   122    1
   128   182   181    1
   129   143   142    1
   130   143   145    1
   131    22    21    2
   132   104   112   am
   133   104   105    2
   134    21    20    1
   135   138   139    1
   136   112   113    1
   137   142   139    1
   138    14    13    1
   139    14    19   am
   140    13    12    1
   141    13    16    1
   142    60    58    1
   143   122   123    1
   144    68    63   am
   145    12    18    1
   146    64    63    2
   147   181   174   am
   148   139   140    1
   149   114   113    1
   150   114   115    2
   151    20    19    1
   152    20    23    1
   153   125   124    1
   154    63    62    1
   155   175   174    2
   156    16    17    1
   157    67    65    1
   158   123   124    2
   159    18    17    1
   160   174   173    1
   161   140   141    2
   162    58    59    1
   163    58    57    2
   164   124   126    1
   165   170   169    1
   166   171   169    1
   167    65    62    1
   168    65    66    1
   169    23    24    1
   170    62    61    1
   171    57    56    1
   172   169   166    1
   173    48    47    1
   174    26    24    1
   175   173   172    1
   176   173   176    1
   177    47    49    1
   178    47    46    1
   179    61    52   am
   180    24    25    1
   181   172   167   am
   182    42    43    1
   183   176   177    1
   184   167   168    2
   185   167   166    1
   186    54    55    1
   187    54    51    1
   188   166   165    1
   189    56    55    1
   190    52    53    2
   191    52    51    1
   192    46    43    1
   193   146   147    1
   194    43    44    1
   195     7     8    1
   196     7     6    1
   197   150   147    1
   198   150   151    1
   199    51    50    1
   200   165   158   am
   201   177   178    1
   202     8     9    2
   203   147   148    1
   204   152   151   ar
   205   152   154   ar
   206     6     5    1
   207   178   179    1
   208   151   153   ar
   209     9    10    1
   210     9    11    1
   211    44    45    2
   212   158   159    2
   213   158   157    1
   214   148   149    2
   215   154   155   ar
   216   156   157    1
   217   153   155   ar
   218     2     3    1
   219     2     5    1
   220     2     1    1
   221     3     4    2
   222   157   160    1
   223   179   180    1
   224   160   161    1
   225   161   162    1
   226   162   163    1
   227   163   164    1
