@<TRIPOS>MOLECULE
tmp/5uqrA00.pdb
 113 108 0 0 0
SMALL
GASTEIGER

@<TRIPOS>ATOM
      1  N         16.1590  -36.3170  -10.8860 N.3    60  LEU60      -0.1245
      2  CA        14.7120  -36.4290  -10.8130 C.3    60  LEU60       0.1561
      3  C         14.3340  -37.8220  -10.3430 C.2    60  LEU60       0.2260
      4  O         14.5910  -38.8000  -11.0530 O.2    60  LEU60      -0.2867
      5  CB        14.1070  -36.1670  -12.1870 C.3    60  LEU60       0.0270
      6  CG        12.5680  -36.2740  -12.3010 C.3    60  LEU60       0.0019
      7  CD1       11.8590  -35.3780  -11.2770 C.3    60  LEU60       0.0001
      8  CD2       12.1240  -35.8300  -13.6910 C.3    60  LEU60       0.0001
      9  N         15.8300  -29.6240  -14.3600 N.3   243  HIS243     -0.1241
     10  CA        15.0030  -30.8230  -14.1240 C.3   243  HIS243      0.1621
     11  C         15.7690  -32.0140  -14.6050 C.2   243  HIS243      0.2264
     12  O         15.3380  -32.7280  -15.5080 O.2   243  HIS243     -0.2867
     13  CB        13.6220  -30.6920  -14.7840 C.3   243  HIS243      0.0745
     14  CG        12.5210  -31.3610  -14.0040 C.ar  243  HIS243      0.0817
     15  ND1       11.6380  -32.2520  -14.5700 N.ar  243  HIS243     -0.2268
     16  CD2       12.1540  -31.2480  -12.7030 C.ar  243  HIS243      0.1154
     17  CE1       10.7590  -32.6430  -13.6520 C.ar  243  HIS243      0.1986
     18  NE2       11.0420  -32.0370  -12.5140 N.ar  243  HIS243     -0.2212
     19  N         15.8860  -34.0740  -19.9020 N.3   247  ASN247     -0.1240
     20  CA        14.8160  -33.3280  -20.5650 C.3   247  ASN247      0.1653
     21  C         15.3870  -32.7100  -21.8270 C.2   247  ASN247      0.2266
     22  O         16.6020  -32.5190  -21.9150 O.2   247  ASN247     -0.2867
     23  CB        14.1720  -32.2950  -19.6440 C.3   247  ASN247      0.1155
     24  CG        15.0750  -31.1180  -19.3280 C.2   247  ASN247      0.2627
     25  OD1       15.2770  -30.2160  -20.1620 O.2   247  ASN247     -0.2716
     26  ND2       15.5750  -31.0840  -18.0800 N.am  247  ASN247     -0.0877
     27  N          7.5490  -30.2610  -25.5050 N.3   279  HIS279     -0.1241
     28  CA         8.4840  -29.8980  -24.4700 C.3   279  HIS279      0.1621
     29  C          8.1830  -28.5640  -23.8110 C.2   279  HIS279      0.2264
     30  O          8.0290  -28.5240  -22.5870 O.2   279  HIS279     -0.2867
     31  CB         9.9180  -29.9250  -24.9840 C.3   279  HIS279      0.0745
     32  CG        10.9370  -29.6810  -23.9200 C.ar  279  HIS279      0.0817
     33  ND1       10.8800  -30.3230  -22.7070 N.ar  279  HIS279     -0.2268
     34  CD2       12.0460  -28.9020  -23.8840 C.ar  279  HIS279      0.1154
     35  CE1       11.8740  -29.9030  -21.9470 C.ar  279  HIS279      0.1986
     36  NE2       12.5950  -29.0460  -22.6370 N.ar  279  HIS279     -0.2212
     37  N          3.7740  -37.1800  -17.1910 N.3   325  HIS325     -0.1226
     38  CA         5.1800  -36.7770  -17.3500 C.3   325  HIS325      0.1752
     39  C          5.9700  -37.9410  -17.9210 C.2   325  HIS325      0.2597
     40  O          5.5850  -39.0890  -17.7580 O.2   325  HIS325     -0.2718
     41  CB         5.7570  -36.3810  -15.9890 C.3   325  HIS325      0.0759
     42  CG         6.9800  -35.5280  -16.0690 C.ar  325  HIS325      0.0818
     43  ND1        8.2570  -36.0380  -15.9600 N.ar  325  HIS325     -0.2268
     44  CD2        7.1300  -34.1910  -16.2460 C.ar  325  HIS325      0.1154
     45  CE1        9.1410  -35.0620  -16.0740 C.ar  325  HIS325      0.1986
     46  NE2        8.4840  -33.9280  -16.2430 N.ar  325  HIS325     -0.2212
     47  N          7.0950  -37.6500  -18.5490 N.am  326  GLY326     -0.1942
     48  CA         7.9500  -38.7090  -19.0660 C.3   326  GLY326      0.2014
     49  C          8.6620  -39.5370  -18.0070 C.2   326  GLY326      0.2638
     50  O          8.9700  -40.7050  -18.2490 O.2   326  GLY326     -0.2714
     51  N          8.9190  -38.9320  -16.8470 N.am  327  VAL327     -0.1977
     52  CA         9.6750  -39.5650  -15.7550 C.3   327  VAL327      0.1596
     53  C          8.8710  -39.6230  -14.4530 C.2   327  VAL327      0.2287
     54  O          8.8120  -40.6790  -13.8110 O.2   327  VAL327     -0.2864
     55  CB        11.0120  -38.8260  -15.4990 C.3   327  VAL327      0.0276
     56  CG1       11.7950  -39.4410  -14.3200 C.3   327  VAL327      0.0022
     57  CG2       11.8600  -38.8700  -16.7620 C.3   327  VAL327      0.0022
     58  N          6.8890  -29.2200   -7.9060 N.3   334  ARG334     -0.1245
     59  CA         6.8620  -27.8980   -8.5160 C.3   334  ARG334      0.1563
     60  C          5.4390  -27.4220   -8.6850 C.2   334  ARG334      0.2260
     61  O          5.1680  -26.2440   -8.5090 O.2   334  ARG334     -0.2867
     62  CB         7.5410  -27.8920   -9.8800 C.3   334  ARG334      0.0307
     63  CG         9.0140  -28.2880   -9.8730 C.3   334  ARG334      0.0489
     64  CD         9.6110  -28.4510  -11.2590 C.3   334  ARG334      0.2205
     65  NE         8.8330  -29.3770  -12.0820 N.pl3 334  ARG334     -0.0865
     66  CZ         9.0400  -29.6450  -13.3650 C.cat 334  ARG334      0.5346
     67  NH1       10.0340  -29.0270  -14.0280 N.pl3 334  ARG334      0.1354
     68  NH2        8.2090  -30.4840  -14.0050 N.pl3 334  ARG334      0.1354
     69  N          1.4770  -31.9170  -13.5300 N.3   380  ASN380     -0.1225
     70  CA         2.8570  -31.4610  -13.5150 C.3   380  ASN380      0.1785
     71  C          2.8210  -29.9460  -13.4150 C.2   380  ASN380      0.2597
     72  O          1.7320  -29.3510  -13.3900 O.2   380  ASN380     -0.2718
     73  CB         3.6480  -32.0110  -14.7100 C.3   380  ASN380      0.1169
     74  CG         3.1630  -31.4730  -16.0460 C.2   380  ASN380      0.2627
     75  OD1        3.0490  -30.2670  -16.2300 O.2   380  ASN380     -0.2716
     76  ND2        2.8820  -32.3540  -16.9900 N.am  380  ASN380     -0.0877
     77  N          3.9880  -29.3130  -13.3090 N.am  381  VAL381     -0.1966
     78  CA         4.0630  -27.8800  -13.0560 C.3   381  VAL381      0.1727
     79  C          3.3090  -27.0430  -14.1160 C.2   381  VAL381      0.2616
     80  O          2.7750  -25.9830  -13.8140 O.2   381  VAL381     -0.2715
     81  CB         5.5490  -27.4350  -12.9480 C.3   381  VAL381      0.0290
     82  CG1        6.2770  -27.5100  -14.2770 C.3   381  VAL381      0.0023
     83  CG2        5.6610  -26.0390  -12.3770 C.3   381  VAL381      0.0023
     84  N          3.2660  -27.5230  -15.3510 N.am  382  ASP382     -0.1971
     85  CA         2.5950  -26.7950  -16.4150 C.3   382  ASP382      0.1709
     86  C          1.0850  -26.6500  -16.1750 C.2   382  ASP382      0.2293
     87  O          0.4570  -25.7720  -16.7790 O.2   382  ASP382     -0.2864
     88  CB         2.8100  -27.4800  -17.7840 C.3   382  ASP382      0.1436
     89  CG         4.2790  -27.6140  -18.1740 C.2   382  ASP382      0.3671
     90  OD1        5.0320  -26.6540  -17.9100 O.co2 382  ASP382     -0.2456
     91  OD2        4.6610  -28.6730  -18.7500 O.co2 382  ASP382     -0.2456
     92  N          9.7520  -19.4740  -19.7060 N.3   404  PHE404     -0.1241
     93  CA        10.3610  -20.7920  -19.4800 C.3   404  PHE404      0.1605
     94  C         11.8010  -20.7650  -20.0230 C.2   404  PHE404      0.2264
     95  O         12.7480  -21.2150  -19.3630 O.2   404  PHE404     -0.2867
     96  CB         9.5230  -21.8870  -20.1470 C.3   404  PHE404      0.0534
     97  CG         9.7500  -23.2970  -19.6390 C.ar  404  PHE404     -0.0203
     98  CD1       10.8490  -23.6470  -18.8650 C.ar  404  PHE404     -0.0042
     99  CD2        8.8670  -24.2960  -20.0100 C.ar  404  PHE404     -0.0042
    100  CE1       11.0470  -24.9380  -18.4230 C.ar  404  PHE404     -0.0003
    101  CE2        9.0630  -25.6090  -19.5990 C.ar  404  PHE404     -0.0003
    102  CZ        10.1590  -25.9330  -18.8120 C.ar  404  PHE404     -0.0000
    103  N         15.0930  -21.7150  -17.8870 N.3   408  ARG408     -0.1245
    104  CA        15.7800  -22.9500  -18.2000 C.3   408  ARG408      0.1563
    105  C         17.2190  -22.7530  -18.7250 C.2   408  ARG408      0.2260
    106  O         17.9010  -23.7180  -19.0150 O.2   408  ARG408     -0.2867
    107  CB        14.8930  -23.8030  -19.1040 C.3   408  ARG408      0.0307
    108  CG        15.4240  -25.1670  -19.5230 C.3   408  ARG408      0.0489
    109  CD        15.8220  -26.0720  -18.3710 C.3   408  ARG408      0.2205
    110  NE        14.7120  -26.3550  -17.4400 N.pl3 408  ARG408     -0.0865
    111  CZ        13.7940  -27.3220  -17.5900 C.cat 408  ARG408      0.5346
    112  NH1       13.7760  -28.1310  -18.6650 N.pl3 408  ARG408      0.1354
    113  NH2       12.8450  -27.4790  -16.6540 N.pl3 408  ARG408      0.1354
@<TRIPOS>BOND
     1    27    28    1
     2    31    28    1
     3    31    32    1
     4    28    29    1
     5    32    34   ar
     6    32    33   ar
     7    34    36   ar
     8    29    30    2
     9    33    35   ar
    10    36    35   ar
    11    22    21    2
    12    21    20    1
    13    20    19    1
    14    20    23    1
    15    25    24    2
    16    96    97    1
    17    96    93    1
    18    94    93    1
    19    94    95    2
    20    99    97   ar
    21    99   101   ar
    22    92    93    1
    23    23    24    1
    24    97    98   ar
    25   101   102   ar
    26   108   107    1
    27   108   109    1
    28    24    26   am
    29   107   104    1
    30    48    47    1
    31    48    49    1
    32   106   105    2
    33    98   100   ar
    34   102   100   ar
    35    91    89   ar
    36   105   104    1
    37   112   111    1
    38    47    39   am
    39   109   110    1
    40    50    49    2
    41   104   103    1
    42    89    90   ar
    43    89    88    1
    44    49    51   am
    45    39    40    2
    46    39    38    1
    47    88    85    1
    48   111   110    2
    49   111   113    1
    50    38    37    1
    51    38    41    1
    52    76    74   am
    53    51    52    1
    54    87    86    2
    55    57    55    1
    56    85    86    1
    57    85    84    1
    58    44    46   ar
    59    44    42   ar
    60    46    45   ar
    61    75    74    2
    62    45    43   ar
    63    42    41    1
    64    42    43   ar
    65    74    73    1
    66    52    55    1
    67    52    53    1
    68    12    11    2
    69    55    56    1
    70    84    79   am
    71    13    10    1
    72    13    14    1
    73    73    70    1
    74    11    10    1
    75    15    14   ar
    76    15    17   ar
    77    53    54    2
    78     9    10    1
    79    82    81    1
    80    79    80    2
    81    79    78    1
    82    67    66    1
    83    68    66    1
    84    14    16   ar
    85     8     6    1
    86    17    18   ar
    87    69    70    1
    88    70    71    1
    89    71    72    2
    90    71    77   am
    91    66    65    2
    92    77    78    1
    93    78    81    1
    94    81    83    1
    95    16    18   ar
    96     6     5    1
    97     6     7    1
    98     5     2    1
    99    65    64    1
   100    64    63    1
   101     4     3    2
   102     1     2    1
   103     2     3    1
   104    62    63    1
   105    62    59    1
   106    60    59    1
   107    60    61    2
   108    59    58    1
