@<TRIPOS>MOLECULE
tmp/5uquB00.pdb
 212 207 0 0 0
SMALL
GASTEIGER

@<TRIPOS>ATOM
      1  N         -4.7910   -3.8650   25.1490 N.3    45  ARG45      -0.1245
      2  CA        -3.9330   -3.2170   26.1210 C.3    45  ARG45       0.1563
      3  C         -4.1700   -1.7190   26.1090 C.2    45  ARG45       0.2260
      4  O         -4.1340   -1.1260   25.0510 O.2    45  ARG45      -0.2867
      5  CB        -2.4870   -3.5170   25.8980 C.3    45  ARG45       0.0307
      6  CG        -1.6150   -3.3140   27.1290 C.3    45  ARG45       0.0489
      7  CD        -1.8360   -4.3130   28.2660 C.3    45  ARG45       0.2205
      8  NE        -1.2650   -5.6180   27.9210 N.pl3  45  ARG45      -0.0865
      9  CZ        -1.9340   -6.6140   27.3610 C.cat  45  ARG45       0.5346
     10  NH1       -3.2240   -6.5080   27.1430 N.pl3  45  ARG45       0.1354
     11  NH2       -1.2700   -7.6790   26.8950 N.pl3  45  ARG45       0.1354
     12  N         -0.5660  -19.9770   32.4480 N.3   274  PRO274     -0.2102
     13  CA         0.7970  -19.5910   32.7990 C.3   274  PRO274      0.1504
     14  C          1.0760  -18.0960   32.8940 C.2   274  PRO274      0.2576
     15  O          1.9140  -17.6730   33.7080 O.2   274  PRO274     -0.2718
     16  CB         1.6190  -20.1540   31.6310 C.3   274  PRO274      0.0282
     17  CG         0.9050  -21.4220   31.3130 C.3   274  PRO274      0.0208
     18  CD        -0.5520  -21.0730   31.4670 C.3   274  PRO274      0.0893
     19  N          0.4460  -17.2690   32.0670 N.am  275  LEU275     -0.1966
     20  CA         0.6620  -15.8310   32.1240 C.3   275  LEU275      0.1728
     21  C         -0.1830  -15.0940   33.1550 C.2   275  LEU275      0.2616
     22  O          0.0610  -13.9170   33.3850 O.2   275  LEU275     -0.2715
     23  CB         0.4060  -15.1880   30.7380 C.3   275  LEU275      0.0311
     24  CG         1.2580  -15.7760   29.6030 C.3   275  LEU275      0.0022
     25  CD1        0.9530  -15.0240   28.3040 C.3   275  LEU275      0.0001
     26  CD2        2.7380  -15.7590   29.9490 C.3   275  LEU275      0.0001
     27  N         -1.1710  -15.7900   33.7590 N.am  276  HIS276     -0.1973
     28  CA        -2.0270  -15.2100   34.7710 C.3   276  HIS276      0.1656
     29  C         -1.7520  -15.9520   36.0980 C.2   276  HIS276      0.2291
     30  O         -0.6200  -16.0190   36.4600 O.2   276  HIS276     -0.2864
     31  CB        -3.4820  -15.2230   34.2760 C.3   276  HIS276      0.0771
     32  CG        -4.4490  -14.5370   35.1960 C.ar  276  HIS276      0.0820
     33  ND1       -4.0740  -13.4760   35.9870 N.ar  276  HIS276     -0.2267
     34  CD2       -5.7730  -14.7270   35.4120 C.ar  276  HIS276      0.1154
     35  CE1       -5.1220  -13.0550   36.6800 C.ar  276  HIS276      0.1986
     36  NE2       -6.1700  -13.7840   36.3320 N.ar  276  HIS276     -0.2212
     37  N          1.3210  -18.3760   37.0610 N.3   279  ALA279     -0.1245
     38  CA         2.6150  -17.8100   37.3140 C.3   279  ALA279      0.1562
     39  C          3.0410  -17.9870   38.7500 C.2   279  ALA279      0.2260
     40  O          4.2000  -18.1580   38.9430 O.2   279  ALA279     -0.2867
     41  CB         2.6530  -16.3580   36.9780 C.3   279  ALA279      0.0290
     42  N         15.4550  -16.2500   29.0190 N.3   311  LEU311     -0.1245
     43  CA        15.0450  -15.3130   27.9770 C.3   311  LEU311      0.1561
     44  C         15.5120  -15.7990   26.5870 C.2   311  LEU311      0.2260
     45  O         14.7100  -15.7390   25.6140 O.2   311  LEU311     -0.2867
     46  CB        15.5660  -13.9120   28.2450 C.3   311  LEU311      0.0270
     47  CG        15.0040  -13.3140   29.5270 C.3   311  LEU311      0.0019
     48  CD1       15.7110  -12.0150   29.8240 C.3   311  LEU311      0.0001
     49  CD2       13.5540  -13.0250   29.3440 C.3   311  LEU311      0.0001
     50  N         11.3550  -18.0440   26.6900 N.3   315  ARG315     -0.1231
     51  CA        10.4410  -18.2180   27.8220 C.3   315  ARG315      0.1694
     52  C         10.4240  -16.9010   28.6010 C.2   315  ARG315      0.2592
     53  O         11.3330  -16.0700   28.4740 O.2   315  ARG315     -0.2718
     54  CB        10.9210  -19.3280   28.7310 C.3   315  ARG315      0.0321
     55  CG        10.9080  -20.6760   28.0190 C.3   315  ARG315      0.0489
     56  CD        11.8020  -21.7270   28.6760 C.3   315  ARG315      0.2205
     57  NE        11.6250  -21.8150   30.1370 N.pl3 315  ARG315     -0.0865
     58  CZ        12.5940  -22.1270   31.0150 C.cat 315  ARG315      0.5346
     59  NH1       13.8210  -22.4880   30.5780 N.pl3 315  ARG315      0.1354
     60  NH2       12.3350  -22.1140   32.3480 N.pl3 315  ARG315      0.1354
     61  N          9.3700  -16.7650   29.3840 N.am  316  VAL316     -0.1966
     62  CA         9.2170  -15.6220   30.2890 C.3   316  VAL316      0.1727
     63  C          9.8750  -15.9370   31.6140 C.2   316  VAL316      0.2616
     64  O         10.0060  -17.0920   32.0330 O.2   316  VAL316     -0.2715
     65  CB         7.7350  -15.1830   30.5340 C.3   316  VAL316      0.0290
     66  CG1        7.0380  -14.7370   29.2130 C.3   316  VAL316      0.0023
     67  CG2        6.9430  -16.2430   31.2980 C.3   316  VAL316      0.0023
     68  N         10.3210  -14.8640   32.2610 N.am  317  VAL317     -0.1964
     69  CA        10.7270  -14.8860   33.6340 C.3   317  VAL317      0.1712
     70  C          9.4740  -14.7060   34.4610 C.2   317  VAL317      0.2458
     71  O          8.8820  -13.6310   34.4910 O.2   317  VAL317     -0.2730
     72  CB        11.7460  -13.8180   33.9570 C.3   317  VAL317      0.0289
     73  CG1       12.0670  -13.8250   35.4640 C.3   317  VAL317      0.0023
     74  CG2       13.0540  -14.0040   33.1600 C.3   317  VAL317      0.0023
     75  N          9.0260  -15.8000   35.1260 N.am  318  PRO318     -0.2716
     76  CA         7.7780  -15.6820   35.8390 C.3   318  PRO318      0.1536
     77  C          7.8920  -14.8000   37.0460 C.2   318  PRO318      0.2599
     78  O          8.9600  -14.7470   37.6770 O.2   318  PRO318     -0.2715
     79  CB         7.4510  -17.1250   36.2660 C.3   318  PRO318      0.0310
     80  CG         8.4440  -17.9830   35.6180 C.3   318  PRO318      0.0237
     81  CD         9.6180  -17.1480   35.2060 C.3   318  PRO318      0.0939
     82  N          6.8110  -14.0980   37.3300 N.am  319  GLY319     -0.1941
     83  CA         6.7280  -13.2240   38.5270 C.3   319  GLY319      0.2014
     84  C          7.2210  -11.8000   38.2790 C.2   319  GLY319      0.2639
     85  O          7.2690  -11.0460   39.2440 O.2   319  GLY319     -0.2714
     86  N          7.5380  -11.4210   37.0150 N.am  320  TYR320     -0.1959
     87  CA         8.0060  -10.0840   36.6600 C.3   320  TYR320      0.1771
     88  C          7.1060   -9.6020   35.5280 C.2   320  TYR320      0.2620
     89  O          6.6860  -10.4070   34.6750 O.2   320  TYR320     -0.2715
     90  CB         9.4770  -10.1790   36.2600 C.3   320  TYR320      0.0574
     91  CG        10.2720  -10.3300   37.4930 C.ar  320  TYR320     -0.0198
     92  CD1       10.3370  -11.5730   38.1210 C.ar  320  TYR320     -0.0009
     93  CD2       10.8130   -9.2410   38.1220 C.ar  320  TYR320     -0.0009
     94  CE1       10.9710  -11.7050   39.3400 C.ar  320  TYR320      0.0417
     95  CE2       11.4280   -9.3480   39.3560 C.ar  320  TYR320      0.0417
     96  CZ        11.4910  -10.5840   39.9610 C.ar  320  TYR320      0.1957
     97  OH        12.0220  -10.6360   41.2480 O.3   320  TYR320     -0.2866
     98  N          6.7630   -8.3250   35.5340 N.am  321  GLY321     -0.1940
     99  CA         5.9120   -7.7720   34.4890 C.3   321  GLY321      0.2014
    100  C          4.4710   -7.6540   34.8970 C.2   321  GLY321      0.2639
    101  O          4.0410   -8.2580   35.8760 O.2   321  GLY321     -0.2714
    102  N          3.7460   -6.8410   34.1420 N.am  322  HIS322     -0.1959
    103  CA         2.3270   -6.6700   34.4210 C.3   322  HIS322      0.1787
    104  C          1.7140   -5.9150   33.2830 C.2   322  HIS322      0.2620
    105  O          2.3500   -5.0570   32.7390 O.2   322  HIS322     -0.2715
    106  CB         2.0580   -5.8850   35.7300 C.3   322  HIS322      0.0785
    107  CG         0.6890   -6.1320   36.2680 C.ar  322  HIS322      0.0821
    108  ND1       -0.3770   -5.3150   35.9810 N.ar  322  HIS322     -0.2267
    109  CD2        0.2050   -7.1270   37.0390 C.ar  322  HIS322      0.1154
    110  CE1       -1.4710   -5.8200   36.5300 C.ar  322  HIS322      0.1986
    111  NE2       -1.1450   -6.9230   37.1850 N.ar  322  HIS322     -0.2212
    112  N          0.4580   -6.2090   32.9770 N.am  323  ALA323     -0.1977
    113  CA        -0.2760   -5.5180   31.9010 C.3   323  ALA323      0.1597
    114  C         -0.4750   -4.0300   32.1290 C.2   323  ALA323      0.2287
    115  O         -0.5220   -3.2670   31.1670 O.2   323  ALA323     -0.2864
    116  CB        -1.5960   -6.2160   31.6290 C.3   323  ALA323      0.0319
    117  N          3.3680   -0.3210   36.3170 N.3   326  ARG326     -0.1245
    118  CA         4.6410    0.1320   35.7550 C.3   326  ARG326      0.1563
    119  C          5.7040    0.3510   36.8080 C.2   326  ARG326      0.2260
    120  O          6.7590    0.9370   36.5060 O.2   326  ARG326     -0.2867
    121  CB         4.3860    1.4260   34.9490 C.3   326  ARG326      0.0307
    122  CG         3.4760    1.2310   33.7380 C.3   326  ARG326      0.0489
    123  CD         4.1710    0.3270   32.7480 C.3   326  ARG326      0.2205
    124  NE         3.4070    0.0090   31.5780 N.pl3 326  ARG326     -0.0865
    125  CZ         2.7970   -1.1530   31.2980 C.cat 326  ARG326      0.5346
    126  NH1        2.8250   -2.2020   32.1030 N.pl3 326  ARG326      0.1354
    127  NH2        2.1980   -1.3000   30.1040 N.pl3 326  ARG326      0.1354
    128  N          1.3920   -5.2990   46.2620 N.3   331  ARG331     -0.1245
    129  CA         1.0200   -6.6080   46.8270 C.3   331  ARG331      0.1563
    130  C          2.2880   -7.4470   47.0470 C.2   331  ARG331      0.2260
    131  O          2.3940   -8.1730   48.0410 O.2   331  ARG331     -0.2867
    132  CB         0.0760   -7.3440   45.8550 C.3   331  ARG331      0.0307
    133  CG        -1.2510   -6.6610   45.6240 C.3   331  ARG331      0.0489
    134  CD        -2.0820   -7.3320   44.5550 C.3   331  ARG331      0.2205
    135  NE        -1.3630   -7.4100   43.2940 N.pl3 331  ARG331     -0.0865
    136  CZ        -1.7340   -8.1000   42.2390 C.cat 331  ARG331      0.5346
    137  NH1       -2.8410   -8.8190   42.2470 N.pl3 331  ARG331      0.1354
    138  NH2       -0.9560   -8.1070   41.1560 N.pl3 331  ARG331      0.1354
    139  N         15.7740   -7.7620   32.6460 N.3   365  LEU365     -0.1245
    140  CA        14.6010   -7.5410   31.8030 C.3   365  LEU365      0.1561
    141  C         14.6240   -6.2200   31.0260 C.2   365  LEU365      0.2260
    142  O         14.1710   -6.1530   29.8910 O.2   365  LEU365     -0.2867
    143  CB        13.3180   -7.6810   32.6350 C.3   365  LEU365      0.0270
    144  CG        13.0750   -9.1560   33.0460 C.3   365  LEU365      0.0019
    145  CD1       12.0340   -9.1770   34.1140 C.3   365  LEU365      0.0001
    146  CD2       12.6370  -10.0860   31.8750 C.3   365  LEU365      0.0001
    147  N         17.1340   -6.6280   28.2280 N.3   368  HIS368     -0.1241
    148  CA        16.5180   -7.4630   27.1590 C.3   368  HIS368      0.1621
    149  C         15.5660   -6.6370   26.3170 C.2   368  HIS368      0.2264
    150  O         15.5320   -6.8380   25.0730 O.2   368  HIS368     -0.2867
    151  CB        15.8270   -8.6300   27.8480 C.3   368  HIS368      0.0745
    152  CG        15.1150   -9.5730   26.9550 C.ar  368  HIS368      0.0817
    153  ND1       13.7540   -9.7270   27.0050 N.ar  368  HIS368     -0.2268
    154  CD2       15.5770  -10.4650   26.0410 C.ar  368  HIS368      0.1154
    155  CE1       13.3960  -10.6620   26.1270 C.ar  368  HIS368      0.1986
    156  NE2       14.4910  -11.1110   25.5230 N.ar  368  HIS368     -0.2212
    157  N         12.1890   -6.1170   26.0170 N.3   370  LYS370     -0.1231
    158  CA        10.8320   -6.4700   25.5900 C.3   370  LYS370      0.1693
    159  C          9.7640   -5.9980   26.5530 C.2   370  LYS370      0.2593
    160  O          8.7720   -5.3290   26.1630 O.2   370  LYS370     -0.2718
    161  CB        10.7290   -7.9660   25.3670 C.3   370  LYS370      0.0285
    162  CG        11.6780   -8.4570   24.2510 C.3   370  LYS370      0.0035
    163  CD        11.3260   -7.8380   22.9130 C.3   370  LYS370      0.0206
    164  CE        12.1850   -8.3660   21.7610 C.3   370  LYS370      0.1093
    165  NZ        11.7580   -7.7150   20.4810 N.3   370  LYS370     -0.1314
    166  N          9.9460   -6.3190   27.8150 N.am  371  THR371     -0.1939
    167  CA         8.8810   -6.0200   28.8030 C.3   371  THR371      0.2028
    168  C          8.7120   -4.5570   29.0330 C.2   371  THR371      0.2642
    169  O          9.7110   -3.7790   29.0010 O.2   371  THR371     -0.2714
    170  CB         9.0740   -6.7590   30.1110 C.3   371  THR371      0.1808
    171  OG1        7.8900   -6.5520   30.8930 O.3   371  THR371     -0.2208
    172  CG2       10.2410   -6.2720   30.8500 C.3   371  THR371      0.0379
    173  N          7.4510   -4.1330   29.2170 N.am  372  LYS372     -0.1963
    174  CA         7.1520   -2.7570   29.5370 C.3   372  LYS372      0.1728
    175  C          7.2900   -2.5060   31.0130 C.2   372  LYS372      0.2616
    176  O          7.3430   -1.3410   31.4030 O.2   372  LYS372     -0.2715
    177  CB         5.7300   -2.3550   29.1370 C.3   372  LYS372      0.0311
    178  CG         5.4740   -2.2420   27.6420 C.3   372  LYS372      0.0038
    179  CD         6.4650   -1.3770   26.8780 C.3   372  LYS372      0.0206
    180  CE         6.1110   -1.4240   25.3980 C.3   372  LYS372      0.1093
    181  NZ         7.2170   -1.0230   24.4840 N.3   372  LYS372     -0.1314
    182  N          7.3060   -3.5540   31.8210 N.am  373  ASN373     -0.1972
    183  CA         7.4270   -3.3890   33.2540 C.3   373  ASN373      0.1688
    184  C          8.4200   -4.4550   33.7320 C.2   373  ASN373      0.2292
    185  O          8.0900   -5.6400   33.7560 O.2   373  ASN373     -0.2864
    186  CB         6.0890   -3.5310   33.9530 C.3   373  ASN373      0.1181
    187  CG         6.2310   -3.6650   35.4560 C.2   373  ASN373      0.2629
    188  OD1        7.1850   -3.1290   36.0200 O.2   373  ASN373     -0.2716
    189  ND2        5.3210   -4.4000   36.1170 N.am  373  ASN373     -0.0877
    190  N          6.0070   -8.7480   40.3330 N.3   377  ASN377     -0.1225
    191  CA         4.5860   -8.7480   40.6610 C.3   377  ASN377      0.1785
    192  C          4.3910   -9.6610   41.8890 C.2   377  ASN377      0.2597
    193  O          5.3330  -10.3380   42.3400 O.2   377  ASN377     -0.2718
    194  CB         3.7000   -9.1020   39.4490 C.3   377  ASN377      0.1169
    195  CG         3.9990  -10.4670   38.8920 C.2   377  ASN377      0.2627
    196  OD1        3.9950  -11.4480   39.6630 O.2   377  ASN377     -0.2716
    197  ND2        4.2670  -10.5620   37.5750 N.am  377  ASN377     -0.0877
    198  N          3.1620   -9.7230   42.3830 N.am  378  VAL378     -0.1966
    199  CA         2.8610  -10.4560   43.5910 C.3   378  VAL378      0.1727
    200  C          3.2510  -11.9500   43.4980 C.2   378  VAL378      0.2616
    201  O          3.6170  -12.5740   44.5000 O.2   378  VAL378     -0.2715
    202  CB         1.3890  -10.3100   44.0080 C.3   378  VAL378      0.0290
    203  CG1        0.4380  -10.9870   43.0490 C.3   378  VAL378      0.0023
    204  CG2        1.2020  -10.8390   45.4260 C.3   378  VAL378      0.0023
    205  N          3.1680  -12.5300   42.2940 N.am  379  ASP379     -0.1971
    206  CA         3.5310  -13.9270   42.1270 C.3   379  ASP379      0.1709
    207  C          4.9670  -14.2580   42.3520 C.2   379  ASP379      0.2293
    208  O          5.2820  -15.4470   42.6010 O.2   379  ASP379     -0.2864
    209  CB         3.1180  -14.4350   40.7130 C.3   379  ASP379      0.1436
    210  CG         1.6340  -14.3290   40.4570 C.2   379  ASP379      0.3671
    211  OD1        0.8200  -14.3830   41.4060 O.co2 379  ASP379     -0.2456
    212  OD2        1.2520  -14.2390   39.2500 O.co2 379  ASP379     -0.2456
@<TRIPOS>BOND
     1   165   164    1
     2   164   163    1
     3   163   162    1
     4   162   161    1
     5   181   180    1
     6     4     3    2
     7   150   149    2
     8     1     2    1
     9   161   158    1
    10   180   179    1
    11   156   154   ar
    12   156   155   ar
    13   158   157    1
    14   158   159    1
    15    45    44    2
    16     5     2    1
    17     5     6    1
    18   154   152   ar
    19     3     2    1
    20   155   153   ar
    21   160   159    2
    22   149   148    1
    23   159   166   am
    24    44    43    1
    25    50    51    1
    26   179   178    1
    27    11     9    1
    28   152   153   ar
    29   152   151    1
    30     6     7    1
    31    10     9    1
    32   148   151    1
    33   148   147    1
    34     9     8    2
    35   178   177    1
    36   166   167    1
    37    51    52    1
    38    51    54    1
    39     8     7    1
    40    43    46    1
    41    43    42    1
    42    55    56    1
    43    55    54    1
    44    46    47    1
    45    25    24    1
    46    53    52    2
    47    52    61   am
    48    56    57    1
    49   167   168    1
    50   167   170    1
    51   169   168    2
    52   168   173   am
    53   177   174    1
    54    66    65    1
    55   173   174    1
    56    49    47    1
    57    61    62    1
    58    47    48    1
    59   174   175    1
    60    24    26    1
    61    24    23    1
    62   142   141    2
    63   127   125    1
    64   170   172    1
    65   170   171    1
    66    57    58    2
    67    62    65    1
    68    62    63    1
    69    65    67    1
    70    59    58    1
    71    23    20    1
    72   175   176    2
    73   175   182   am
    74    58    60    1
    75   141   140    1
    76   115   114    2
    77   125   124    2
    78   125   126    1
    79    17    18    1
    80    17    16    1
    81    18    12    1
    82   124   123    1
    83    63    64    2
    84    63    68   am
    85   116   113    1
    86    16    13    1
    87   140   143    1
    88   140   139    1
    89   182   183    1
    90   146   144    1
    91   113   114    1
    92   113   112    1
    93    19    20    1
    94    19    14   am
    95    20    21    1
    96    68    69    1
    97    12    13    1
    98   143   144    1
    99   105   104    2
   100   123   122    1
   101    13    14    1
   102    14    15    2
   103   112   104   am
   104   144   145    1
   105    21    22    2
   106    21    27   am
   107    74    72    1
   108   183   184    1
   109   183   186    1
   110   104   103    1
   111    69    72    1
   112    69    70    1
   113   184   185    2
   114   122   121    1
   115    27    28    1
   116   186   187    1
   117    72    73    1
   118   102   103    1
   119   102   100   am
   120    31    28    1
   121    31    32    1
   122   103   106    1
   123    70    71    2
   124    70    75   am
   125    99   100    1
   126    99    98    1
   127    89    88    2
   128    28    29    1
   129   100   101    2
   130   121   118    1
   131    75    81    1
   132    75    76    1
   133    32    34   ar
   134    32    33   ar
   135    81    80    1
   136    34    36   ar
   137   187   188    2
   138   187   189   am
   139    88    98   am
   140    88    87    1
   141    80    79    1
   142   106   107    1
   143   118   117    1
   144   118   119    1
   145    76    79    1
   146    76    77    1
   147   108   107   ar
   148   108   110   ar
   149    33    35   ar
   150    29    30    2
   151    90    87    1
   152    90    91    1
   153   107   109   ar
   154    36    35   ar
   155   120   119    2
   156   110   111   ar
   157    87    86    1
   158    41    38    1
   159    86    84   am
   160   109   111   ar
   161    77    82   am
   162    77    78    2
   163    37    38    1
   164    38    39    1
   165    82    83    1
   166    91    92   ar
   167    91    93   ar
   168   197   195   am
   169    92    94   ar
   170    93    95   ar
   171    84    83    1
   172    84    85    2
   173    39    40    2
   174   195   194    1
   175   195   196    2
   176   212   210   ar
   177    94    96   ar
   178    95    96   ar
   179   194   191    1
   180    96    97    1
   181   190   191    1
   182   210   209    1
   183   210   211   ar
   184   191   192    1
   185   209   206    1
   186   138   136    1
   187   192   193    2
   188   192   198   am
   189   206   205    1
   190   206   207    1
   191   136   137    1
   192   136   135    2
   193   205   200   am
   194   207   208    2
   195   198   199    1
   196   203   202    1
   197   135   134    1
   198   200   199    1
   199   200   201    2
   200   199   202    1
   201   202   204    1
   202   134   133    1
   203   133   132    1
   204   132   129    1
   205   128   129    1
   206   129   130    1
   207   130   131    2
