@<TRIPOS>MOLECULE
tmp/5uqvA00.pdb
 140 133 0 0 0
SMALL
GASTEIGER

@<TRIPOS>ATOM
      1  N         34.9430    7.5530  -68.5200 N.3    87  VAL87      -0.1231
      2  CA        34.1800    7.7540  -69.7620 C.3    87  VAL87       0.1692
      3  C         34.8900    7.1090  -70.9740 C.2    87  VAL87       0.2591
      4  O         34.2270    6.5540  -71.8470 O.2    87  VAL87      -0.2718
      5  CB        33.8050    9.2450  -69.9900 C.3    87  VAL87       0.0266
      6  CG1       35.0290   10.1230  -70.2580 C.3    87  VAL87       0.0020
      7  CG2       32.7630    9.4000  -71.0920 C.3    87  VAL87       0.0020
      8  N         36.2340    7.1460  -70.9790 N.am   88  GLN88      -0.1979
      9  CA        37.1050    6.5640  -71.9950 C.3    88  GLN88       0.1601
     10  C         36.9350    5.0290  -72.0410 C.2    88  GLN88       0.2287
     11  O         36.9280    4.4540  -73.1280 O.2    88  GLN88      -0.2864
     12  CB        38.5650    6.9710  -71.7100 C.3    88  GLN88       0.0394
     13  CG        39.5870    6.4920  -72.7320 C.3    88  GLN88       0.0908
     14  CD        41.0200    6.7510  -72.3290 C.2    88  GLN88       0.2608
     15  OE1       41.9080    6.8820  -73.1770 O.2    88  GLN88      -0.2717
     16  NE2       41.2980    6.7960  -71.0300 N.am   88  GLN88      -0.0878
     17  N         33.2230    4.1850  -73.4310 N.3    91  CYS91      -0.1221
     18  CA        33.1960    4.4470  -74.8750 C.3    91  CYS91       0.1808
     19  C         33.9370    3.3480  -75.6210 C.2    91  CYS91       0.2601
     20  O         33.4170    2.8430  -76.6200 O.2    91  CYS91      -0.2717
     21  CB        33.7620    5.8290  -75.1950 C.3    91  CYS91       0.0970
     22  SG        33.4670    6.3850  -76.8970 S.3    91  CYS91      -0.0800
     23  N         35.1210    2.9390  -75.1000 N.am   92  ARG92      -0.1979
     24  CA        35.9310    1.8610  -75.6780 C.3    92  ARG92       0.1597
     25  C         35.1180    0.5550  -75.7150 C.2    92  ARG92       0.2287
     26  O         35.0640   -0.0840  -76.7640 O.2    92  ARG92      -0.2864
     27  CB        37.2630    1.6780  -74.9200 C.3    92  ARG92       0.0334
     28  CG        38.2640    0.8270  -75.6880 C.3    92  ARG92       0.0492
     29  CD        39.6160    0.7100  -75.0150 C.3    92  ARG92       0.2205
     30  NE        40.5180   -0.1400  -75.8010 N.pl3  92  ARG92      -0.0865
     31  CZ        41.7450   -0.4950  -75.4300 C.cat  92  ARG92       0.5346
     32  NH1       42.2440   -0.0780  -74.2720 N.pl3  92  ARG92       0.1354
     33  NH2       42.4820   -1.2720  -76.2140 N.pl3  92  ARG92       0.1354
     34  N         31.8340    1.0760  -78.1710 N.3    95  LEU95      -0.1231
     35  CA        32.2330    1.1090  -79.5820 C.3    95  LEU95       0.1693
     36  C         32.9220   -0.1700  -80.0630 C.2    95  LEU95       0.2592
     37  O         32.9410   -0.4200  -81.2700 O.2    95  LEU95      -0.2718
     38  CB        33.0670    2.3530  -79.9350 C.3    95  LEU95       0.0284
     39  CG        32.3750    3.7110  -79.7800 C.3    95  LEU95       0.0019
     40  CD1       33.2760    4.8290  -80.2330 C.3    95  LEU95       0.0001
     41  CD2       31.0570    3.7820  -80.5360 C.3    95  LEU95       0.0001
     42  N         33.4460   -0.9890  -79.1380 N.am   96  ASP96      -0.1974
     43  CA        34.0630   -2.2610  -79.5020 C.3    96  ASP96       0.1709
     44  C         32.9730   -3.2550  -79.8540 C.2    96  ASP96       0.2293
     45  O         33.1810   -4.1040  -80.7130 O.2    96  ASP96      -0.2864
     46  CB        34.9340   -2.8110  -78.3650 C.3    96  ASP96       0.1436
     47  CG        35.7960   -3.9970  -78.7460 C.2    96  ASP96       0.3671
     48  OD1       35.8000   -4.9890  -77.9920 O.co2  96  ASP96      -0.2456
     49  OD2       36.4890   -3.9210  -79.7850 O.co2  96  ASP96      -0.2456
     50  N         31.4180   -2.0190  -83.4250 N.3    99  GLU99      -0.1245
     51  CA        32.3620   -2.2710  -84.5340 C.3    99  GLU99       0.1567
     52  C         32.5240   -3.7780  -84.7760 C.2    99  GLU99       0.2260
     53  O         32.6480   -4.2030  -85.9320 O.2    99  GLU99      -0.2867
     54  CB        33.7230   -1.5700  -84.3180 C.3    99  GLU99       0.0388
     55  CG        34.7230   -1.6860  -85.4670 C.3    99  GLU99       0.1160
     56  CD        34.2190   -1.4110  -86.8710 C.2    99  GLU99       0.3649
     57  OE1       33.7590   -0.2770  -87.1330 O.co2  99  GLU99      -0.2457
     58  OE2       34.3020   -2.3280  -87.7180 O.co2  99  GLU99      -0.2457
     59  N         31.2900   -6.2280  -88.4890 N.3   103  LYS103     -0.1245
     60  CA        32.1130   -7.1360  -89.2980 C.3   103  LYS103      0.1561
     61  C         31.2490   -7.9170  -90.2870 C.2   103  LYS103      0.2260
     62  O         30.2050   -8.4720  -89.9160 O.2   103  LYS103     -0.2867
     63  CB        32.9310   -8.1050  -88.4190 C.3   103  LYS103      0.0271
     64  CG        33.9280   -7.4310  -87.4750 C.3   103  LYS103      0.0035
     65  CD        35.1960   -6.9150  -88.1750 C.3   103  LYS103      0.0206
     66  CE        35.8960   -5.8470  -87.3650 C.3   103  LYS103      0.1093
     67  NZ        36.4620   -6.3790  -86.0930 N.3   103  LYS103     -0.1314
     68  N         33.9370    2.7370  -87.0500 N.3   111  ILE111     -0.1231
     69  CA        34.7100    3.2000  -85.8970 C.3   111  ILE111      0.1678
     70  C         36.1310    3.6250  -86.3590 C.2   111  ILE111      0.2434
     71  O         36.4190    4.8150  -86.2130 O.2   111  ILE111     -0.2733
     72  CB        34.6620    2.1970  -84.6980 C.3   111  ILE111      0.0265
     73  CG1       33.3560    2.3610  -83.8850 C.3   111  ILE111      0.0019
     74  CG2       35.8650    2.3180  -83.7690 C.3   111  ILE111      0.0020
     75  CD1       32.0700    1.7830  -84.5220 C.3   111  ILE111      0.0001
     76  N         36.9850    2.7860  -87.0100 N.am  112  PRO112     -0.2729
     77  CA        38.2850    3.3110  -87.4720 C.3   112  PRO112      0.1401
     78  C         38.1760    4.4920  -88.4540 C.2   112  PRO112      0.2269
     79  O         39.0110    5.3900  -88.4080 O.2   112  PRO112     -0.2865
     80  CB        38.9490    2.0960  -88.1230 C.3   112  PRO112      0.0296
     81  CG        38.2860    0.9290  -87.5210 C.3   112  PRO112      0.0237
     82  CD        36.8690    1.3430  -87.3020 C.3   112  PRO112      0.0939
     83  N         37.2010    7.4780  -85.9100 N.3   115  PHE115     -0.1241
     84  CA        38.0580    7.6840  -84.7450 C.3   115  PHE115      0.1605
     85  C         39.5550    7.3730  -84.9240 C.2   115  PHE115      0.2264
     86  O         40.3420    7.8950  -84.1340 O.2   115  PHE115     -0.2867
     87  CB        37.5030    6.8970  -83.5400 C.3   115  PHE115      0.0534
     88  CG        36.0990    7.2730  -83.1270 C.ar  115  PHE115     -0.0203
     89  CD1       35.0020    6.5600  -83.5970 C.ar  115  PHE115     -0.0042
     90  CD2       35.8720    8.3410  -82.2650 C.ar  115  PHE115     -0.0042
     91  CE1       33.6990    6.9180  -83.2230 C.ar  115  PHE115     -0.0003
     92  CE2       34.5670    8.6950  -81.8860 C.ar  115  PHE115     -0.0003
     93  CZ        33.4910    7.9780  -82.3640 C.ar  115  PHE115     -0.0000
     94  N         42.6560    6.4070  -81.0360 N.3   139  TYR139     -0.1227
     95  CA        41.2340    6.6820  -81.2360 C.3   139  TYR139      0.1736
     96  C         40.7490    7.8840  -80.4260 C.2   139  TYR139      0.2595
     97  O         39.6150    8.3350  -80.5990 O.2   139  TYR139     -0.2718
     98  CB        40.4060    5.4110  -80.9880 C.3   139  TYR139      0.0548
     99  CG        40.7190    4.3260  -82.0000 C.ar  139  TYR139     -0.0200
    100  CD1       41.8080    3.4750  -81.8260 C.ar  139  TYR139     -0.0009
    101  CD2       39.9710    4.1960  -83.1670 C.ar  139  TYR139     -0.0009
    102  CE1       42.1490    2.5290  -82.7900 C.ar  139  TYR139      0.0417
    103  CE2       40.2810    3.2290  -84.1220 C.ar  139  TYR139      0.0417
    104  CZ        41.3790    2.4040  -83.9350 C.ar  139  TYR139      0.1957
    105  OH        41.6900    1.4440  -84.8690 O.3   139  TYR139     -0.2866
    106  N         41.6500    8.4390  -79.5950 N.am  140  ASP140     -0.1974
    107  CA        41.4480    9.6070  -78.7390 C.3   140  ASP140      0.1709
    108  C         42.8160   10.1320  -78.2680 C.2   140  ASP140      0.2293
    109  O         43.8270    9.4470  -78.4540 O.2   140  ASP140     -0.2864
    110  CB        40.5430    9.2500  -77.5460 C.3   140  ASP140      0.1436
    111  CG        41.1480    8.3460  -76.4920 C.2   140  ASP140      0.3671
    112  OD1       40.6070    8.3060  -75.3780 O.co2 140  ASP140     -0.2456
    113  OD2       42.1550    7.6550  -76.7940 O.co2 140  ASP140     -0.2456
    114  N         38.1640   12.9950  -80.1850 N.3   194  HIS194     -0.1241
    115  CA        37.7600   12.9040  -78.7780 C.3   194  HIS194      0.1621
    116  C         38.9680   13.2130  -77.9100 C.2   194  HIS194      0.2264
    117  O         39.9830   12.5050  -77.9520 O.2   194  HIS194     -0.2867
    118  CB        37.1510   11.5290  -78.4370 C.3   194  HIS194      0.0745
    119  CG        35.7150   11.3860  -78.8360 C.ar  194  HIS194      0.0817
    120  ND1       34.8720   10.5220  -78.1730 N.ar  194  HIS194     -0.2268
    121  CD2       35.0260   11.9930  -79.8310 C.ar  194  HIS194      0.1154
    122  CE1       33.6920   10.6500  -78.7590 C.ar  194  HIS194      0.1986
    123  NE2       33.7370   11.5240  -79.7630 N.ar  194  HIS194     -0.2212
    124  N         40.4010   13.7350  -74.2320 N.3   196  GLN196     -0.1245
    125  CA        40.2230   13.4890  -72.7990 C.3   196  GLN196      0.1566
    126  C         41.1240   14.4340  -72.0330 C.2   196  GLN196      0.2260
    127  O         42.3370   14.4400  -72.2370 O.2   196  GLN196     -0.2867
    128  CB        40.5010   12.0220  -72.4310 C.3   196  GLN196      0.0367
    129  CG        39.2270   11.1860  -72.2700 C.3   196  GLN196      0.0905
    130  CD        38.5580   10.7720  -73.5640 C.2   196  GLN196      0.2608
    131  OE1       37.3620   10.5060  -73.6020 O.2   196  GLN196     -0.2717
    132  NE2       39.3040   10.6550  -74.6450 N.am  196  GLN196     -0.0878
    133  N         35.9730   16.1230  -70.9860 N.3   291  MET291     -0.1245
    134  CA        36.1180   15.5260  -72.3140 C.3   291  MET291      0.1570
    135  C         35.5440   16.4490  -73.3930 C.2   291  MET291      0.2261
    136  O         34.4670   17.0300  -73.2130 O.2   291  MET291     -0.2867
    137  CB        35.4660   14.1320  -72.3780 C.3   291  MET291      0.0387
    138  CG        35.7240   13.3890  -73.6940 C.3   291  MET291      0.0595
    139  SD        34.6680   11.9350  -73.8820 S.3   291  MET291     -0.1393
    140  CE        34.0500   12.2040  -75.4460 C.3   291  MET291      0.0692
@<TRIPOS>BOND
     1    61    62    2
     2    61    60    1
     3    60    59    1
     4    60    63    1
     5    78    79    2
     6    78    77    1
     7    63    64    1
     8    65    64    1
     9    65    66    1
    10    80    81    1
    11    80    77    1
    12    58    56   ar
    13    81    82    1
    14    77    76    1
    15    66    67    1
    16    82    76    1
    17    57    56   ar
    18    68    69    1
    19    76    70   am
    20    56    55    1
    21    70    71    2
    22    70    69    1
    23    53    52    2
    24    83    84    1
    25    69    72    1
    26    55    54    1
    27    85    84    1
    28    85    86    2
    29   105   104    1
    30    52    51    1
    31    84    87    1
    32    72    73    1
    33    72    74    1
    34    51    54    1
    35    51    50    1
    36    75    73    1
    37   103   104   ar
    38   103   101   ar
    39   104   102   ar
    40    89    91   ar
    41    89    88   ar
    42    87    88    1
    43    91    93   ar
    44   101    99   ar
    45    88    90   ar
    46   102   100   ar
    47    93    92   ar
    48    90    92   ar
    49    99   100   ar
    50    99    98    1
    51    37    36    2
    52    95    94    1
    53    95    98    1
    54    95    96    1
    55    45    44    2
    56    97    96    2
    57    41    39    1
    58    96   106   am
    59    40    39    1
    60   114   115    1
    61    36    35    1
    62    36    42   am
    63    38    39    1
    64    38    35    1
    65    44    43    1
    66   121   123   ar
    67   121   119   ar
    68    49    47   ar
    69   123   122   ar
    70   106   107    1
    71    35    34    1
    72    43    42    1
    73    43    46    1
    74   119   118    1
    75   119   120   ar
    76   115   118    1
    77   115   116    1
    78   122   120   ar
    79    47    46    1
    80    47    48   ar
    81   107   108    1
    82   107   110    1
    83   109   108    2
    84   117   116    2
    85   110   111    1
    86    22    21    1
    87   113   111   ar
    88    26    25    2
    89    20    19    2
    90   111   112   ar
    91    33    31    1
    92    30    31    2
    93    30    29    1
    94    25    24    1
    95    28    29    1
    96    28    27    1
    97    24    23    1
    98    24    27    1
    99    19    23   am
   100    19    18    1
   101   140   139    1
   102    31    32    1
   103    21    18    1
   104    18    17    1
   105   132   130   am
   106   124   125    1
   107   139   138    1
   108   138   137    1
   109   131   130    2
   110   130   129    1
   111   135   136    2
   112   135   134    1
   113    15    14    2
   114    11    10    2
   115   125   128    1
   116   125   126    1
   117    13    14    1
   118    13    12    1
   119   128   129    1
   120   137   134    1
   121    14    16   am
   122   134   133    1
   123   127   126    2
   124    10     9    1
   125     9    12    1
   126     9     8    1
   127     4     3    2
   128     7     5    1
   129     8     3   am
   130     3     2    1
   131     6     5    1
   132     5     2    1
   133     2     1    1
