@<TRIPOS>MOLECULE
tmp/5uqxB00.pdb
 141 134 0 0 0
SMALL
GASTEIGER

@<TRIPOS>ATOM
      1  N          4.2690   10.1670   32.6420 N.3    90  GLN90      -0.1245
      2  CA         3.4600    9.5650   33.6870 C.3    90  GLN90       0.1566
      3  C          3.6540    8.0520   33.7440 C.2    90  GLN90       0.2260
      4  O          3.6650    7.4670   34.8300 O.2    90  GLN90      -0.2867
      5  CB         1.9850    9.9080   33.4680 C.3    90  GLN90       0.0367
      6  CG         1.1010    9.5510   34.6410 C.3    90  GLN90       0.0905
      7  CD        -0.3790    9.6570   34.3200 C.2    90  GLN90       0.2608
      8  OE1       -0.7940    9.5070   33.1610 O.2    90  GLN90      -0.2717
      9  NE2       -1.1900    9.9160   35.3520 N.am   90  GLN90      -0.0878
     10  N          7.2730    7.3060   35.2310 N.3    93  CYS93      -0.1221
     11  CA         7.3600    7.5350   36.6750 C.3    93  CYS93       0.1808
     12  C          6.6420    6.4280   37.4390 C.2    93  CYS93       0.2601
     13  O          7.1660    5.8990   38.4310 O.2    93  CYS93      -0.2717
     14  CB         6.7920    8.9160   37.0180 C.3    93  CYS93       0.0970
     15  SG         7.1100    9.4790   38.7250 S.3    93  CYS93      -0.0800
     16  N          5.4330    6.0770   36.9930 N.am   94  ARG94      -0.1979
     17  CA         4.6990    4.9850   37.6110 C.3    94  ARG94       0.1597
     18  C          5.5520    3.7270   37.7120 C.2    94  ARG94       0.2287
     19  O          5.6170    3.0990   38.7780 O.2    94  ARG94      -0.2864
     20  CB         3.4220    4.7000   36.8250 C.3    94  ARG94       0.0334
     21  CG         2.5010    3.7240   37.5450 C.3    94  ARG94       0.0492
     22  CD         1.3960    3.1930   36.6610 C.3    94  ARG94       0.2205
     23  NE         1.8870    2.6040   35.4140 N.pl3  94  ARG94      -0.0865
     24  CZ         2.2720    1.3350   35.2590 C.cat  94  ARG94       0.5346
     25  NH1        2.2580    0.4990   36.2990 N.pl3  94  ARG94       0.1354
     26  NH2        2.6970    0.9060   34.0800 N.pl3  94  ARG94       0.1354
     27  N          8.6800    4.2930   40.2110 N.3    97  LEU97      -0.1231
     28  CA         8.2970    4.3740   41.6140 C.3    97  LEU97       0.1693
     29  C          7.6510    3.0850   42.0850 C.2    97  LEU97       0.2592
     30  O          7.8100    2.7050   43.2530 O.2    97  LEU97      -0.2718
     31  CB         7.3660    5.5620   41.8420 C.3    97  LEU97       0.0284
     32  CG         8.0620    6.9180   41.6390 C.3    97  LEU97       0.0019
     33  CD1        7.2340    8.0140   42.2560 C.3    97  LEU97       0.0001
     34  CD2        9.4670    6.9110   42.2290 C.3    97  LEU97       0.0001
     35  N          6.9300    2.3900   41.2050 N.am   98  ASP98      -0.1974
     36  CA         6.3450    1.1180   41.6340 C.3    98  ASP98       0.1709
     37  C          7.4340    0.0980   41.9590 C.2    98  ASP98       0.2293
     38  O          7.3420   -0.6260   42.9620 O.2    98  ASP98      -0.2864
     39  CB         5.3930    0.5870   40.5640 C.3    98  ASP98       0.1436
     40  CG         4.7310   -0.7070   40.9720 C.2    98  ASP98       0.3671
     41  OD1        4.0100   -0.7220   42.0010 O.co2  98  ASP98      -0.2456
     42  OD2        4.9480   -1.7230   40.2730 O.co2  98  ASP98      -0.2456
     43  N          9.2040    1.1760   45.4510 N.3   101  GLU101     -0.1231
     44  CA         8.3340    0.8810   46.5900 C.3   101  GLU101      0.1699
     45  C          8.2480   -0.6130   46.8630 C.2   101  GLU101      0.2592
     46  O          8.3280   -1.0470   48.0230 O.2   101  GLU101     -0.2718
     47  CB         6.9270    1.4320   46.3690 C.3   101  GLU101      0.0402
     48  CG         5.9820    1.1060   47.5340 C.3   101  GLU101      0.1161
     49  CD         6.5180    1.6000   48.8750 C.2   101  GLU101      0.3649
     50  OE1        7.1080    2.7090   48.9100 O.co2 101  GLU101     -0.2457
     51  OE2        6.3640    0.8640   49.8890 O.co2 101  GLU101     -0.2457
     52  N          8.0410   -1.4200   45.8210 N.am  102  ASN102     -0.1974
     53  CA         8.0110   -2.8670   46.0370 C.3   102  ASN102      0.1688
     54  C          9.3180   -3.3580   46.6550 C.2   102  ASN102      0.2292
     55  O          9.3100   -4.1950   47.5630 O.2   102  ASN102     -0.2864
     56  CB         7.7240   -3.5900   44.7230 C.3   102  ASN102      0.1181
     57  CG         6.2710   -4.0090   44.6120 C.2   102  ASN102      0.2629
     58  OD1        5.6980   -4.5710   45.5560 O.2   102  ASN102     -0.2716
     59  ND2        5.6560   -3.7190   43.4650 N.am  102  ASN102     -0.0877
     60  N          9.6000   -3.1760   50.4240 N.3   105  LYS105     -0.1245
     61  CA         8.7000   -3.9700   51.2570 C.3   105  LYS105      0.1561
     62  C          9.4900   -4.6700   52.3570 C.2   105  LYS105      0.2260
     63  O         10.5740   -5.2100   52.1170 O.2   105  LYS105     -0.2867
     64  CB         7.9490   -5.0210   50.4300 C.3   105  LYS105      0.0271
     65  CG         6.9450   -4.4930   49.4040 C.3   105  LYS105      0.0035
     66  CD         5.5440   -4.2310   49.9730 C.3   105  LYS105      0.0206
     67  CE         4.6390   -3.6810   48.8580 C.3   105  LYS105      0.1093
     68  NZ         3.6840   -2.6380   49.3220 N.3   105  LYS105     -0.1314
     69  N          6.6240    5.6360   49.2540 N.3   113  ILE113     -0.1231
     70  CA         6.0510    6.1670   48.0070 C.3   113  ILE113      0.1678
     71  C          4.6350    6.6780   48.2840 C.2   113  ILE113      0.2434
     72  O          4.3600    7.8430   47.9830 O.2   113  ILE113     -0.2733
     73  CB         6.1110    5.1350   46.8630 C.3   113  ILE113      0.0265
     74  CG1        7.5750    4.8500   46.4710 C.3   113  ILE113      0.0019
     75  CG2        5.3530    5.6170   45.6360 C.3   113  ILE113      0.0020
     76  CD1        8.2950    5.9920   45.9370 C.3   113  ILE113      0.0001
     77  N          3.7220    5.9060   48.9030 N.am  114  PRO114     -0.2729
     78  CA         2.4150    6.5000   49.2370 C.3   114  PRO114      0.1401
     79  C          2.5060    7.6350   50.2470 C.2   114  PRO114      0.2269
     80  O          1.7530    8.6070   50.1310 O.2   114  PRO114     -0.2865
     81  CB         1.6020    5.3130   49.7810 C.3   114  PRO114      0.0296
     82  CG         2.5740    4.2450   50.0610 C.3   114  PRO114      0.0237
     83  CD         3.7200    4.4480   49.1270 C.3   114  PRO114      0.0939
     84  N          3.4860   10.5170   47.8900 N.3   117  PHE117     -0.1241
     85  CA         2.7330   10.8480   46.6730 C.3   117  PHE117      0.1605
     86  C          1.2430   10.5420   46.7190 C.2   117  PHE117      0.2264
     87  O          0.5430   10.9050   45.7690 O.2   117  PHE117     -0.2867
     88  CB         3.2740   10.0960   45.4440 C.3   117  PHE117      0.0534
     89  CG         4.6590   10.4620   45.0610 C.ar  117  PHE117     -0.0203
     90  CD1        5.7340    9.7620   45.5740 C.ar  117  PHE117     -0.0042
     91  CD2        4.9000   11.4780   44.1590 C.ar  117  PHE117     -0.0042
     92  CE1        7.0230   10.0890   45.2210 C.ar  117  PHE117     -0.0003
     93  CE2        6.1950   11.8060   43.8160 C.ar  117  PHE117     -0.0003
     94  CZ         7.2490   11.0970   44.3360 C.ar  117  PHE117     -0.0000
     95  N         -2.0830    9.3620   42.8020 N.3   141  TYR141     -0.1227
     96  CA        -0.6690    9.6250   43.0400 C.3   141  TYR141      0.1736
     97  C         -0.1430   10.7600   42.1800 C.2   141  TYR141      0.2595
     98  O          1.0460   11.0980   42.2700 O.2   141  TYR141     -0.2718
     99  CB         0.1630    8.3580   42.8110 C.3   141  TYR141      0.0548
    100  CG        -0.1140    7.2870   43.8550 C.ar  141  TYR141     -0.0200
    101  CD1       -1.1880    6.4120   43.7120 C.ar  141  TYR141     -0.0009
    102  CD2        0.6980    7.1510   44.9850 C.ar  141  TYR141     -0.0009
    103  CE1       -1.4460    5.4260   44.6670 C.ar  141  TYR141      0.0417
    104  CE2        0.4500    6.1650   45.9390 C.ar  141  TYR141      0.0417
    105  CZ        -0.6360    5.3100   45.7720 C.ar  141  TYR141      0.1957
    106  OH        -0.9430    4.3310   46.6920 O.3   141  TYR141     -0.2866
    107  N         -1.0120   11.3640   41.3780 N.am  142  ASP142     -0.1974
    108  CA        -0.7350   12.5380   40.5640 C.3   142  ASP142      0.1709
    109  C         -2.0920   13.0390   40.0840 C.2   142  ASP142      0.2293
    110  O         -3.1230   12.4140   40.3530 O.2   142  ASP142     -0.2864
    111  CB         0.2460   12.2230   39.4190 C.3   142  ASP142      0.1436
    112  CG        -0.3280   11.2630   38.3680 C.2   142  ASP142      0.3671
    113  OD1        0.4470   10.8670   37.4770 O.co2 142  ASP142     -0.2456
    114  OD2       -1.5180   10.8820   38.4160 O.co2 142  ASP142     -0.2456
    115  N          2.5030   15.8890   41.9240 N.3   196  HIS196     -0.1241
    116  CA         2.8500   15.8410   40.5060 C.3   196  HIS196      0.1621
    117  C          1.6120   16.1950   39.6930 C.2   196  HIS196      0.2264
    118  O          0.6060   15.4750   39.7440 O.2   196  HIS196     -0.2867
    119  CB         3.3780   14.4650   40.0970 C.3   196  HIS196      0.0745
    120  CG         4.7780   14.1960   40.5500 C.ar  196  HIS196      0.0817
    121  ND1        5.5870   13.2510   39.9550 N.ar  196  HIS196     -0.2268
    122  CD2        5.5110   14.7480   41.5450 C.ar  196  HIS196      0.1154
    123  CE1        6.7600   13.2360   40.5640 C.ar  196  HIS196      0.1986
    124  NE2        6.7460   14.1500   41.5230 N.ar  196  HIS196     -0.2212
    125  N          0.3320   16.6290   35.9460 N.3   198  GLN198     -0.1245
    126  CA         0.5020   16.4240   34.5110 C.3   198  GLN198      0.1566
    127  C         -0.3770   17.4020   33.7460 C.2   198  GLN198      0.2260
    128  O         -1.6040   17.3270   33.8370 O.2   198  GLN198     -0.2867
    129  CB         0.1240   14.9960   34.1280 C.3   198  GLN198      0.0367
    130  CG         1.3260   14.1490   33.8520 C.3   198  GLN198      0.0905
    131  CD         2.0020   13.7100   35.0920 C.2   198  GLN198      0.2608
    132  OE1        1.3530   13.3650   36.0690 O.2   198  GLN198     -0.2717
    133  NE2        3.3170   13.7120   35.0770 N.am  198  GLN198     -0.0878
    134  N          4.7620   19.2090   32.8650 N.3   292  MET292     -0.1245
    135  CA         4.5730   18.6190   34.1830 C.3   292  MET292      0.1570
    136  C          5.2020   19.5160   35.2380 C.2   292  MET292      0.2261
    137  O          6.2750   20.0970   35.0240 O.2   292  MET292     -0.2867
    138  CB         5.1560   17.1950   34.2800 C.3   292  MET292      0.0387
    139  CG         5.2580   16.6270   35.7240 C.3   292  MET292      0.0595
    140  SD         5.8550   14.9070   35.6780 S.3   292  MET292     -0.1393
    141  CE         6.7800   14.7300   37.1890 C.3   292  MET292      0.0692
@<TRIPOS>BOND
     1     1     2    1
     2   134   135    1
     3     8     7    2
     4     5     2    1
     5     5     6    1
     6     2     3    1
     7     3     4    2
     8   127   128    2
     9   127   126    1
    10   130   129    1
    11   130   131    1
    12    26    24    1
    13   129   126    1
    14   135   138    1
    15   135   136    1
    16   138   139    1
    17     7     6    1
    18     7     9   am
    19   126   125    1
    20   137   136    2
    21   133   131   am
    22   131   132    2
    23    10    11    1
    24    24    23    2
    25    24    25    1
    26    23    22    1
    27   140   139    1
    28   140   141    1
    29    22    21    1
    30    11    14    1
    31    11    12    1
    32    20    21    1
    33    20    17    1
    34    16    12   am
    35    16    17    1
    36    14    15    1
    37    12    13    2
    38   113   112   ar
    39    17    18    1
    40    18    19    2
    41   112   114   ar
    42   112   111    1
    43   111   108    1
    44   117   118    2
    45   117   116    1
    46   121   120   ar
    47   121   123   ar
    48   109   110    2
    49   109   108    1
    50   119   116    1
    51   119   120    1
    52    27    28    1
    53    42    40   ar
    54   116   115    1
    55   120   122   ar
    56   108   107    1
    57   123   124   ar
    58    39    40    1
    59    39    36    1
    60    40    41   ar
    61    35    36    1
    62    35    29   am
    63   107    97   am
    64   124   122   ar
    65    28    31    1
    66    28    29    1
    67    36    37    1
    68    32    31    1
    69    32    34    1
    70    32    33    1
    71    37    38    2
    72    29    30    2
    73    97    98    2
    74    97    96    1
    75    95    96    1
    76    99    96    1
    77    99   100    1
    78    59    57   am
    79   101   100   ar
    80   101   103   ar
    81    93    91   ar
    82    93    94   ar
    83   100   102   ar
    84    91    89   ar
    85    94    92   ar
    86    57    56    1
    87    57    58    2
    88   103   105   ar
    89    56    53    1
    90   102   104   ar
    91    89    88    1
    92    89    90   ar
    93    92    90   ar
    94    88    85    1
    95    43    44    1
    96    75    73    1
    97    87    86    2
    98   105   104   ar
    99   105   106    1
   100    52    53    1
   101    52    45   am
   102    76    74    1
   103    53    54    1
   104    47    44    1
   105    47    48    1
   106    74    73    1
   107    44    45    1
   108    54    55    2
   109    85    86    1
   110    85    84    1
   111    73    70    1
   112    45    46    2
   113    48    49    1
   114    72    71    2
   115    70    71    1
   116    70    69    1
   117    71    77   am
   118    67    68    1
   119    67    66    1
   120    49    50   ar
   121    49    51   ar
   122    77    83    1
   123    77    78    1
   124    83    82    1
   125    78    81    1
   126    78    79    1
   127    65    66    1
   128    65    64    1
   129    81    82    1
   130    80    79    2
   131    60    61    1
   132    64    61    1
   133    61    62    1
   134    63    62    2
