@<TRIPOS>MOLECULE
tmp/5ur0A01.pdb
 82 78 0 0 0
SMALL
GASTEIGER

@<TRIPOS>ATOM
      1  N         -5.7210   41.7330   -3.0470 N.3   125  ASP125     -0.1225
      2  CA        -6.8500   42.2310   -3.8130 C.3   125  ASP125      0.1805
      3  C         -6.8550   41.6160   -5.2120 C.2   125  ASP125      0.2598
      4  O         -6.8300   42.3250   -6.2120 O.2   125  ASP125     -0.2718
      5  CB        -6.8150   43.7680   -3.8950 C.3   125  ASP125      0.1424
      6  CG        -5.4740   44.3040   -4.3730 C.2   125  ASP125      0.3668
      7  OD1       -4.4520   43.5940   -4.2450 O.co2 125  ASP125     -0.2456
      8  OD2       -5.4330   45.4480   -4.8780 O.co2 125  ASP125     -0.2456
      9  N         -6.8800   40.2840   -5.2710 N.am  126  THR126     -0.1939
     10  CA        -6.8900   39.5380   -6.5340 C.3   126  THR126      0.2013
     11  C         -7.7990   38.3310   -6.3570 C.2   126  THR126      0.2484
     12  O         -8.2040   38.0430   -5.2260 O.2   126  THR126     -0.2729
     13  CB        -5.4790   39.0140   -6.9120 C.3   126  THR126      0.1807
     14  OG1       -5.1660   37.8890   -6.0740 O.3   126  THR126     -0.2208
     15  CG2       -4.4200   40.0900   -6.7560 C.3   126  THR126      0.0379
     16  N         -8.0950   37.5890   -7.4490 N.am  127  PRO127     -0.2715
     17  CA        -8.7030   36.2770   -7.1960 C.3   127  PRO127      0.1536
     18  C         -7.9080   35.4620   -6.1710 C.2   127  PRO127      0.2599
     19  O         -6.6690   35.4220   -6.1790 O.2   127  PRO127     -0.2715
     20  CB        -8.6980   35.6120   -8.5770 C.3   127  PRO127      0.0310
     21  CG        -8.8360   36.7970   -9.5420 C.3   127  PRO127      0.0237
     22  CD        -7.9890   37.8850   -8.8880 C.3   127  PRO127      0.0939
     23  N         -8.6510   34.8500   -5.2550 N.am  128  THR128     -0.1937
     24  CA        -8.0870   34.1530   -4.1100 C.3   128  THR128      0.2028
     25  C         -8.4340   32.6830   -4.2030 C.2   128  THR128      0.2642
     26  O         -9.6080   32.3450   -4.4710 O.2   128  THR128     -0.2714
     27  CB        -8.6380   34.6970   -2.7920 C.3   128  THR128      0.1808
     28  OG1       -8.4000   36.1050   -2.7350 O.3   128  THR128     -0.2208
     29  CG2       -7.9520   34.0150   -1.6290 C.3   128  THR128      0.0379
     30  N         -7.4470   31.8150   -4.0030 N.am  129  PHE129     -0.1973
     31  CA        -7.6960   30.3770   -4.1540 C.3   129  PHE129      0.1639
     32  C         -7.2540   29.5310   -2.9810 C.2   129  PHE129      0.2290
     33  O         -6.2560   29.8180   -2.3270 O.2   129  PHE129     -0.2864
     34  CB        -7.0420   29.8780   -5.4370 C.3   129  PHE129      0.0560
     35  CG        -7.6710   30.4640   -6.6610 C.ar  129  PHE129     -0.0200
     36  CD1       -8.8940   29.9900   -7.1110 C.ar  129  PHE129     -0.0042
     37  CD2       -7.0970   31.5460   -7.2980 C.ar  129  PHE129     -0.0042
     38  CE1       -9.5040   30.5550   -8.2400 C.ar  129  PHE129     -0.0003
     39  CE2       -7.7060   32.1240   -8.4020 C.ar  129  PHE129     -0.0003
     40  CZ        -8.9210   31.6280   -8.8710 C.ar  129  PHE129     -0.0000
     41  N        -11.6980   25.8300   -4.1620 N.3   134  ASN134     -0.1240
     42  CA       -12.1700   26.5790   -5.3300 C.3   134  ASN134      0.1653
     43  C        -11.1540   26.7170   -6.4710 C.2   134  ASN134      0.2266
     44  O        -11.2910   27.6020   -7.3170 O.2   134  ASN134     -0.2867
     45  CB       -12.6320   27.9800   -4.9070 C.3   134  ASN134      0.1155
     46  CG       -11.4730   28.8910   -4.6100 C.2   134  ASN134      0.2627
     47  OD1      -10.4010   28.4090   -4.2530 O.2   134  ASN134     -0.2716
     48  ND2      -11.6670   30.2160   -4.7700 N.am  134  ASN134     -0.0877
     49  N        -12.4110   27.1300   -9.9480 N.3   137  GLU137     -0.1245
     50  CA       -12.9780   28.3970  -10.3690 C.3   137  GLU137      0.1567
     51  C        -11.9350   29.2660  -11.0640 C.2   137  GLU137      0.2260
     52  O        -12.2330   30.3730  -11.4740 O.2   137  GLU137     -0.2867
     53  CB       -13.5620   29.1690   -9.1850 C.3   137  GLU137      0.0388
     54  CG       -14.6100   28.4200   -8.4060 C.3   137  GLU137      0.1160
     55  CD       -15.7120   27.8970   -9.2920 C.2   137  GLU137      0.3649
     56  OE1      -16.2340   28.6910  -10.1040 O.co2 137  GLU137     -0.2457
     57  OE2      -16.0260   26.6880   -9.1980 O.co2 137  GLU137     -0.2457
     58  N         -9.8910   30.9220  -13.8380 N.3   139  LYS139     -0.1245
     59  CA       -10.0970   31.2060  -15.2600 C.3   139  LYS139      0.1561
     60  C         -8.7720   31.5940  -15.8890 C.2   139  LYS139      0.2260
     61  O         -7.9740   32.2440  -15.2590 O.2   139  LYS139     -0.2867
     62  CB       -11.1190   32.3240  -15.4620 C.3   139  LYS139      0.0271
     63  CG       -12.3450   32.3400  -14.5550 C.3   139  LYS139      0.0035
     64  CD       -13.1990   31.0920  -14.6430 C.3   139  LYS139      0.0206
     65  CE       -14.5200   31.3110  -13.9250 C.3   139  LYS139      0.1093
     66  NZ       -14.3150   31.9010  -12.5770 N.3   139  LYS139     -0.1314
     67  N         -7.0440   34.9700  -15.5590 N.3   142  MET142     -0.1245
     68  CA        -6.5490   35.3910  -14.2440 C.3   142  MET142      0.1570
     69  C         -5.0350   35.3060  -14.1830 C.2   142  MET142      0.2261
     70  O         -4.4600   34.2550  -13.9450 O.2   142  MET142     -0.2867
     71  CB        -7.1790   34.5640  -13.1480 C.3   142  MET142      0.0387
     72  CG        -8.6830   34.8440  -13.0250 C.3   142  MET142      0.0595
     73  SD        -9.3080   33.6890  -11.8220 S.3   142  MET142     -0.1393
     74  CE       -11.0600   34.0390  -11.8320 C.3   142  MET142      0.0692
     75  N        -15.0590   34.2440    0.3600 N.3   216  LEU216     -0.1245
     76  CA       -14.6620   34.5310   -1.0220 C.3   216  LEU216      0.1561
     77  C        -14.3760   33.2370   -1.7790 C.2   216  LEU216      0.2260
     78  O        -14.6980   33.1250   -2.9600 O.2   216  LEU216     -0.2867
     79  CB       -13.4240   35.4220   -1.0760 C.3   216  LEU216      0.0270
     80  CG       -13.5090   36.7690   -0.3820 C.3   216  LEU216      0.0019
     81  CD1      -12.2240   37.5560   -0.6720 C.3   216  LEU216      0.0001
     82  CD2      -14.7400   37.5140   -0.8570 C.3   216  LEU216      0.0001
@<TRIPOS>BOND
     1    60    59    1
     2    60    61    2
     3    67    68    1
     4    62    59    1
     5    62    63    1
     6    59    58    1
     7    64    63    1
     8    64    65    1
     9    68    69    1
    10    68    71    1
    11    69    70    2
    12    65    66    1
    13    71    72    1
    14    72    73    1
    15    74    73    1
    16    52    51    2
    17    51    50    1
    18    50    49    1
    19    50    53    1
    20    56    55   ar
    21    21    22    1
    22    21    20    1
    23    55    57   ar
    24    55    54    1
    25    53    54    1
    26    22    16    1
    27    40    39   ar
    28    40    38   ar
    29    20    17    1
    30    39    37   ar
    31    38    36   ar
    32    16    17    1
    33    16    11   am
    34    44    43    2
    35    37    35   ar
    36    17    18    1
    37    36    35   ar
    38    13    15    1
    39    13    10    1
    40    13    14    1
    41    35    34    1
    42    10    11    1
    43    10     9    1
    44    43    42    1
    45    11    12    2
    46     4     3    2
    47    19    18    2
    48    18    23   am
    49    34    31    1
    50    42    45    1
    51    42    41    1
    52     9     3   am
    53    23    24    1
    54     3     2    1
    55    45    46    1
    56     8     6   ar
    57    48    46   am
    58    46    47    2
    59    26    25    2
    60     6     7   ar
    61     6     5    1
    62    25    24    1
    63    25    30   am
    64    31    30    1
    65    31    32    1
    66    24    27    1
    67     5     2    1
    68     2     1    1
    69    32    33    2
    70    78    77    2
    71    27    28    1
    72    27    29    1
    73    77    76    1
    74    79    76    1
    75    79    80    1
    76    76    75    1
    77    82    80    1
    78    81    80    1
