@<TRIPOS>MOLECULE
tmp/5ur1A00.pdb
 209 197 0 0 0
SMALL
GASTEIGER

@<TRIPOS>ATOM
      1  N        -17.7820  -18.4190   24.0350 N.3    19  LYS19      -0.1245
      2  CA       -18.7620  -19.2980   23.4100 C.3    19  LYS19       0.1561
      3  C        -18.5540  -19.5100   21.9060 C.2    19  LYS19       0.2260
      4  O        -18.1860  -18.5780   21.1760 O.2    19  LYS19      -0.2867
      5  CB       -20.1920  -18.8090   23.6720 C.3    19  LYS19       0.0271
      6  CG       -20.6170  -17.5490   22.9380 C.3    19  LYS19       0.0035
      7  CD       -22.0300  -17.1660   23.3730 C.3    19  LYS19       0.0206
      8  CE       -22.4960  -15.8570   22.7570 C.3    19  LYS19       0.1093
      9  NZ       -22.6760  -15.9920   21.2910 N.3    19  LYS19      -0.1314
     10  N        -18.9990  -19.4090   18.1650 N.3    21  LEU21      -0.1231
     11  CA       -19.7080  -18.5370   17.2360 C.3    21  LEU21       0.1693
     12  C        -20.1310  -19.3250   16.0030 C.2    21  LEU21       0.2593
     13  O        -20.8660  -18.8020   15.1620 O.2    21  LEU21      -0.2718
     14  CB       -18.8650  -17.3090   16.8310 C.3    21  LEU21       0.0284
     15  CG       -18.7310  -16.2070   17.8930 C.3    21  LEU21       0.0019
     16  CD1      -17.7600  -15.1280   17.4370 C.3    21  LEU21       0.0001
     17  CD2      -20.0780  -15.5860   18.2570 C.3    21  LEU21       0.0001
     18  N        -19.6770  -20.5740   15.9010 N.am   22  GLY22      -0.1942
     19  CA       -20.0130  -21.4470   14.7710 C.3    22  GLY22       0.2014
     20  C        -18.8130  -21.6930   13.8760 C.2    22  GLY22       0.2639
     21  O        -17.7440  -21.1220   14.1040 O.2    22  GLY22      -0.2714
     22  N        -19.0000  -22.5640   12.8780 N.am   23  GLU23      -0.1963
     23  CA       -17.9850  -22.8450   11.8460 C.3    23  GLU23       0.1733
     24  C        -17.7940  -21.6400   10.9330 C.2    23  GLU23       0.2616
     25  O        -18.7730  -21.0060   10.5320 O.2    23  GLU23      -0.2715
     26  CB       -18.3810  -24.0500   10.9820 C.3    23  GLU23       0.0429
     27  CG       -17.6120  -25.3290   11.2800 C.3    23  GLU23       0.1163
     28  CD       -17.6380  -26.3070   10.1120 C.2    23  GLU23       0.3649
     29  OE1      -18.7140  -26.4710    9.4910 O.co2  23  GLU23      -0.2457
     30  OE2      -16.5850  -26.9160    9.8120 O.co2  23  GLU23      -0.2457
     31  N        -16.5400  -21.3420   10.5910 N.am   24  GLY24      -0.1955
     32  CA       -16.2150  -20.1610    9.7770 C.3    24  GLY24       0.1869
     33  C        -14.8470  -20.2250    9.1310 C.2    24  GLY24       0.2309
     34  O        -14.4030  -21.2930    8.7100 O.2    24  GLY24      -0.2863
     35  N        -14.9170  -20.8130   14.8200 N.3    28  VAL28      -0.1245
     36  CA       -14.7280  -19.5110   15.4070 C.3    28  VAL28       0.1561
     37  C        -15.3600  -19.4680   16.7960 C.2    28  VAL28       0.2260
     38  O        -16.5180  -19.8490   16.9760 O.2    28  VAL28      -0.2867
     39  CB       -15.3420  -18.4170   14.5220 C.3    28  VAL28       0.0252
     40  CG1      -15.0340  -17.0390   15.0890 C.3    28  VAL28       0.0019
     41  CG2      -14.8230  -18.5430   13.0920 C.3    28  VAL28       0.0019
     42  N        -12.6870  -12.2600   18.2630 N.3    48  ALA48      -0.1231
     43  CA       -13.1040  -13.5230   17.6950 C.3    48  ALA48       0.1694
     44  C        -11.8470  -14.2740   17.3640 C.2    48  ALA48       0.2592
     45  O        -10.8590  -13.6630   16.9610 O.2    48  ALA48      -0.2718
     46  CB       -13.9470  -13.3010   16.4550 C.3    48  ALA48       0.0304
     47  N        -11.8830  -15.5890   17.5500 N.am   49  VAL49      -0.1966
     48  CA       -10.7120  -16.4150   17.4120 C.3    49  VAL49       0.1727
     49  C        -11.0040  -17.5900   16.5070 C.2    49  VAL49       0.2616
     50  O        -11.9910  -18.2670   16.7010 O.2    49  VAL49      -0.2715
     51  CB       -10.2650  -16.9760   18.7650 C.3    49  VAL49       0.0290
     52  CG1       -8.9500  -17.7210   18.6230 C.3    49  VAL49       0.0023
     53  CG2      -10.1460  -15.8610   19.8060 C.3    49  VAL49       0.0023
     54  N        -10.1240  -17.8520   15.5480 N.am   50  LYS50      -0.1977
     55  CA       -10.2750  -19.0080   14.6750 C.3    50  LYS50       0.1596
     56  C         -9.2360  -20.0780   14.9780 C.2    50  LYS50       0.2287
     57  O         -8.0540  -19.7700   15.1820 O.2    50  LYS50      -0.2864
     58  CB       -10.1480  -18.5700   13.2260 C.3    50  LYS50       0.0298
     59  CG       -10.6510  -19.5740   12.2030 C.3    50  LYS50       0.0038
     60  CD       -10.5640  -18.9460   10.8130 C.3    50  LYS50       0.0206
     61  CE       -11.4440  -19.6230    9.7910 C.3    50  LYS50       0.1093
     62  NZ       -11.4100  -18.8570    8.5030 N.3    50  LYS50      -0.1314
     63  N         -4.3290  -17.7440    5.0580 N.3    67  GLU67      -0.1231
     64  CA        -5.2900  -16.6940    5.4370 C.3    67  GLU67       0.1699
     65  C         -4.7170  -15.6590    6.4130 C.2    67  GLU67       0.2592
     66  O         -4.8630  -14.4530    6.2050 O.2    67  GLU67      -0.2718
     67  CB        -6.5560  -17.3010    6.0560 C.3    67  GLU67       0.0402
     68  CG        -7.6310  -16.2650    6.3690 C.3    67  GLU67       0.1161
     69  CD        -8.8750  -16.8440    7.0240 C.2    67  GLU67       0.3649
     70  OE1       -8.8360  -17.9360    7.6160 O.co2  67  GLU67      -0.2457
     71  OE2       -9.9130  -16.1770    6.9680 O.co2  67  GLU67      -0.2457
     72  N         -4.0940  -16.1260    7.4870 N.am   68  MET68      -0.1979
     73  CA        -3.5020  -15.2090    8.4650 C.3    68  MET68       0.1605
     74  C         -2.4330  -14.3390    7.7970 C.2    68  MET68       0.2287
     75  O         -2.4640  -13.1160    7.9010 O.2    68  MET68      -0.2864
     76  CB        -2.9010  -15.9800    9.6520 C.3    68  MET68       0.0413
     77  CG        -2.1670  -15.1040   10.6620 C.3    68  MET68       0.0598
     78  SD        -1.3830  -16.0220   12.0220 S.3    68  MET68      -0.1393
     79  CE        -0.2060  -17.0620   11.1590 C.3    68  MET68       0.0692
     80  N         -3.8130  -11.7510    5.5280 N.3    71  MET71      -0.1245
     81  CA        -4.3720  -10.6420    6.3180 C.3    71  MET71       0.1570
     82  C         -3.2760   -9.7040    6.8260 C.2    71  MET71       0.2261
     83  O         -3.4200   -8.4810    6.7680 O.2    71  MET71      -0.2867
     84  CB        -5.2000  -11.1850    7.4990 C.3    71  MET71       0.0387
     85  CG        -6.4790  -11.8830    7.0570 C.3    71  MET71       0.0595
     86  SD        -7.5010  -12.4580    8.4150 S.3    71  MET71      -0.1393
     87  CE        -8.3020  -10.9430    8.9580 C.3    71  MET71       0.0692
     88  N        -12.9070   -6.9540    8.3660 N.3    81  ILE81      -0.1245
     89  CA       -12.5740   -7.6490    9.6170 C.3    81  ILE81       0.1561
     90  C        -11.0680   -7.7140    9.6880 C.2    81  ILE81       0.2260
     91  O        -10.4560   -8.3840    8.8720 O.2    81  ILE81      -0.2867
     92  CB       -13.1690   -9.0710    9.6600 C.3    81  ILE81       0.0252
     93  CG1      -14.7050   -9.0220    9.7650 C.3    81  ILE81       0.0019
     94  CG2      -12.5900   -9.8860   10.7960 C.3    81  ILE81       0.0019
     95  CD1      -15.2420   -8.4160   11.0380 C.3    81  ILE81       0.0001
     96  N         -6.0140  -17.6160   15.5260 N.3    95  VAL95      -0.1245
     97  CA        -5.9380  -16.3660   14.7810 C.3    95  VAL95       0.1561
     98  C         -6.9520  -15.4570   15.3960 C.2    95  VAL95       0.2260
     99  O         -8.0900  -15.8480   15.5060 O.2    95  VAL95      -0.2867
    100  CB        -6.3130  -16.5760   13.2990 C.3    95  VAL95       0.0252
    101  CG1       -6.1260  -15.2840   12.5180 C.3    95  VAL95       0.0019
    102  CG2       -5.4710  -17.7070   12.7220 C.3    95  VAL95       0.0019
    103  N         -9.1590  -11.9930   15.4960 N.3    97  VAL97      -0.1231
    104  CA        -9.6560  -10.9530   14.6230 C.3    97  VAL97       0.1692
    105  C        -10.7640  -10.1840   15.3050 C.2    97  VAL97       0.2592
    106  O        -11.3290  -10.6530   16.2950 O.2    97  VAL97      -0.2718
    107  CB       -10.1900  -11.5200   13.2890 C.3    97  VAL97       0.0266
    108  CG1       -9.1450  -12.4280   12.6560 C.3    97  VAL97       0.0020
    109  CG2      -11.5320  -12.2310   13.4800 C.3    97  VAL97       0.0020
    110  N        -11.0750   -9.0090   14.7710 N.am   98  GLU98      -0.1966
    111  CA       -12.1110   -8.1540   15.3640 C.3    98  GLU98       0.1733
    112  C        -13.4380   -8.9020   15.4970 C.2    98  GLU98       0.2616
    113  O        -13.7380   -9.7690   14.6920 O.2    98  GLU98      -0.2715
    114  CB       -12.2960   -6.8930   14.5250 C.3    98  GLU98       0.0429
    115  CG       -11.1680   -5.8850   14.6640 C.3    98  GLU98       0.1163
    116  CD       -11.2340   -4.7850   13.6170 C.2    98  GLU98       0.3649
    117  OE1      -11.7300   -5.0410   12.5120 O.co2  98  GLU98      -0.2457
    118  OE2      -10.7830   -3.6520   13.8730 O.co2  98  GLU98      -0.2457
    119  N        -14.2330   -8.5650   16.5080 N.am   99  TYR99      -0.1960
    120  CA       -15.5460   -9.2280   16.7380 C.3    99  TYR99       0.1771
    121  C        -16.6770   -8.3250   16.2800 C.2    99  TYR99       0.2619
    122  O        -16.6500   -7.1360   16.5520 O.2    99  TYR99      -0.2715
    123  CB       -15.7130   -9.5570   18.2260 C.3    99  TYR99       0.0574
    124  CG       -17.0910  -10.0240   18.6690 C.ar   99  TYR99      -0.0198
    125  CD1      -17.6730  -11.1830   18.1480 C.ar   99  TYR99      -0.0009
    126  CD2      -17.7960   -9.3260   19.6470 C.ar   99  TYR99      -0.0009
    127  CE1      -18.9260  -11.6190   18.5770 C.ar   99  TYR99       0.0417
    128  CE2      -19.0400   -9.7550   20.0760 C.ar   99  TYR99       0.0417
    129  CZ       -19.5960  -10.9010   19.5430 C.ar   99  TYR99       0.1957
    130  OH       -20.8230  -11.2990   19.9810 O.3    99  TYR99      -0.2866
    131  N        -17.6410   -8.9010   15.5570 N.am  100  ALA100     -0.1963
    132  CA       -18.8370   -8.1910   15.0960 C.3   100  ALA100      0.1728
    133  C        -20.0500   -8.7320   15.8400 C.2   100  ALA100      0.2616
    134  O        -20.6030   -9.7590   15.4390 O.2   100  ALA100     -0.2715
    135  CB       -19.0180   -8.3740   13.5980 C.3   100  ALA100      0.0334
    136  N        -20.4510   -8.0520   16.9180 N.am  101  SER101     -0.1950
    137  CA       -21.5350   -8.5440   17.7960 C.3   101  SER101      0.1924
    138  C        -22.9030   -8.6970   17.1500 C.2   101  SER101      0.2314
    139  O        -23.7290   -9.4470   17.6620 O.2   101  SER101     -0.2863
    140  CB       -21.6940   -7.6640   19.0600 C.3   101  SER101      0.2116
    141  OG       -22.0950   -6.3430   18.7460 O.3   101  SER101     -0.2180
    142  N        -23.6410   -9.8190   14.0490 N.3   103  GLY103     -0.1210
    143  CA       -23.7810  -10.9100   13.0740 C.3   103  GLY103      0.1956
    144  C        -23.6720  -10.4180   11.6520 C.2   103  GLY103      0.2611
    145  O        -23.2130   -9.3070   11.4200 O.2   103  GLY103     -0.2717
    146  N        -24.0870  -11.2330   10.6890 N.am  104  ASN104     -0.1974
    147  CA       -23.9430  -10.8450    9.2820 C.3   104  ASN104      0.1688
    148  C        -25.0600   -9.9610    8.7710 C.2   104  ASN104      0.2292
    149  O        -26.1480   -9.9670    9.3100 O.2   104  ASN104     -0.2864
    150  CB       -23.7490  -12.0590    8.3770 C.3   104  ASN104      0.1181
    151  CG       -25.0240  -12.8350    8.1280 C.2   104  ASN104      0.2629
    152  OD1      -26.0220  -12.3060    7.6210 O.2   104  ASN104     -0.2716
    153  ND2      -24.9810  -14.1170    8.4380 N.am  104  ASN104     -0.0877
    154  N        -28.8200  -11.3030    7.8210 N.3   107  GLU107     -0.1245
    155  CA       -29.7020  -11.5630    8.9700 C.3   107  GLU107      0.1567
    156  C        -30.0260  -10.3010    9.7590 C.2   107  GLU107      0.2260
    157  O        -31.1160  -10.1650   10.3010 O.2   107  GLU107     -0.2867
    158  CB       -29.1120  -12.6490    9.8640 C.3   107  GLU107      0.0388
    159  CG       -29.0700  -13.9760    9.1250 C.3   107  GLU107      0.1160
    160  CD       -28.5050  -15.1060    9.9520 C.2   107  GLU107      0.3649
    161  OE1      -28.6730  -15.1000   11.1990 O.co2 107  GLU107     -0.2457
    162  OE2      -27.8970  -16.0140    9.3490 O.co2 107  GLU107     -0.2457
    163  N        -24.1770  -11.9650    3.3660 N.3   158  ARG158     -0.1245
    164  CA       -23.7960  -12.9480    4.3890 C.3   158  ARG158      0.1563
    165  C        -22.3070  -12.8160    4.7750 C.2   158  ARG158      0.2260
    166  O        -21.9300  -13.1930    5.8790 O.2   158  ARG158     -0.2867
    167  CB       -24.1470  -14.3900    3.9500 C.3   158  ARG158      0.0307
    168  CG       -23.1370  -15.0000    3.0000 C.3   158  ARG158      0.0489
    169  CD       -23.6100  -16.2730    2.3190 C.3   158  ARG158      0.2205
    170  NE       -22.8250  -16.5020    1.0940 N.pl3 158  ARG158     -0.0865
    171  CZ       -23.2660  -16.3590   -0.1620 C.cat 158  ARG158      0.5346
    172  NH1      -24.5280  -16.0180   -0.4340 N.pl3 158  ARG158      0.1354
    173  NH2      -22.4270  -16.5800   -1.1670 N.pl3 158  ARG158      0.1354
    174  N        -20.1720   -8.2820    7.9880 N.3   161  LEU161     -0.1245
    175  CA       -20.5170   -8.3850    9.3830 C.3   161  LEU161      0.1561
    176  C        -20.7220   -6.9860    9.9130 C.2   161  LEU161      0.2260
    177  O        -20.1880   -6.0240    9.3640 O.2   161  LEU161     -0.2867
    178  CB       -19.4240   -9.1120   10.1520 C.3   161  LEU161      0.0270
    179  CG       -19.2070  -10.5560    9.6890 C.3   161  LEU161      0.0019
    180  CD1      -17.9900  -11.1600   10.3460 C.3   161  LEU161      0.0001
    181  CD2      -20.4160  -11.4350    9.9790 C.3   161  LEU161      0.0001
    182  N        -16.1150   -9.6360    5.3760 N.3   171  ALA171     -0.1231
    183  CA       -15.6070  -10.8920    5.9360 C.3   171  ALA171      0.1694
    184  C        -14.9890  -11.7770    4.8570 C.2   171  ALA171      0.2592
    185  O        -15.3090  -11.6240    3.6830 O.2   171  ALA171     -0.2718
    186  CB       -16.7330  -11.6380    6.6090 C.3   171  ALA171      0.0304
    187  N        -14.0920  -12.6820    5.2740 N.am  172  ASP172     -0.1960
    188  CA       -13.5550  -13.7770    4.4420 C.3   172  ASP172      0.1840
    189  C        -13.0180  -13.3250    3.0850 C.2   172  ASP172      0.2622
    190  O        -13.2510  -13.9510    2.0430 O.2   172  ASP172     -0.2715
    191  CB       -14.6040  -14.8820    4.2850 C.3   172  ASP172      0.1450
    192  CG       -15.0020  -15.4840    5.6150 C.2   172  ASP172      0.3671
    193  OD1      -14.3580  -15.1810    6.6360 O.co2 172  ASP172     -0.2456
    194  OD2      -15.9660  -16.2540    5.6540 O.co2 172  ASP172     -0.2456
    195  N        -12.2610  -12.2420    3.1430 N.am  173  PHE173     -0.1960
    196  CA       -11.6620  -11.6330    1.9770 C.3   173  PHE173      0.1771
    197  C        -10.2690  -12.1830    1.6690 C.2   173  PHE173      0.2620
    198  O         -9.6490  -11.7480    0.7140 O.2   173  PHE173     -0.2715
    199  CB       -11.5930  -10.1140    2.1660 C.3   173  PHE173      0.0574
    200  CG       -10.8550   -9.6920    3.4100 C.ar  173  PHE173     -0.0200
    201  CD1       -9.4660   -9.6440    3.4290 C.ar  173  PHE173     -0.0042
    202  CD2      -11.5510   -9.3470    4.5610 C.ar  173  PHE173     -0.0042
    203  CE1       -8.7780   -9.2500    4.5740 C.ar  173  PHE173     -0.0003
    204  CE2      -10.8710   -8.9570    5.7140 C.ar  173  PHE173     -0.0003
    205  CZ        -9.4790   -8.9100    5.7210 C.ar  173  PHE173     -0.0000
    206  N         -9.7690  -13.1370    2.4370 N.am  174  GLY174     -0.1954
    207  CA        -8.3950  -13.5940    2.2190 C.3   174  GLY174      0.1869
    208  C         -8.2240  -15.0530    1.8570 C.2   174  GLY174      0.2309
    209  O         -7.1290  -15.5950    1.9910 O.2   174  GLY174     -0.2863
@<TRIPOS>BOND
     1   173   171    1
     2   172   171    1
     3   171   170    2
     4   198   197    2
     5   170   169    1
     6   197   196    1
     7   197   206   am
     8   208   209    2
     9   208   207    1
    10   196   199    1
    11   196   195    1
    12   190   189    2
    13   199   200    1
    14   207   206    1
    15   169   168    1
    16   168   167    1
    17   189   195   am
    18   189   188    1
    19   163   164    1
    20   200   201   ar
    21   200   202   ar
    22   201   203   ar
    23   185   184    2
    24   167   164    1
    25   191   188    1
    26   191   192    1
    27   164   165    1
    28   188   187    1
    29   202   204   ar
    30   203   205   ar
    31   165   166    2
    32   184   187   am
    33   184   183    1
    34    63    64    1
    35   182   183    1
    36    64    67    1
    37    64    65    1
    38    80    81    1
    39   192   194   ar
    40   192   193   ar
    41   204   205   ar
    42   183   186    1
    43    67    68    1
    44    66    65    2
    45    81    82    1
    46    81    84    1
    47    68    69    1
    48    65    72   am
    49    83    82    2
    50    71    69   ar
    51    69    70   ar
    52    85    84    1
    53    85    86    1
    54    72    73    1
    55   152   151    2
    56    74    75    2
    57    74    73    1
    58   154   155    1
    59   174   175    1
    60   151   150    1
    61   151   153   am
    62    88    89    1
    63   150   147    1
    64    86    87    1
    65    73    76    1
    66    62    61    1
    67    34    33    2
    68   148   147    1
    69   148   149    2
    70    91    90    2
    71   155   156    1
    72   155   158    1
    73   159   158    1
    74   159   160    1
    75    33    32    1
    76   147   146    1
    77   162   160   ar
    78   177   176    2
    79   175   176    1
    80   175   178    1
    81    29    28   ar
    82    89    92    1
    83    89    90    1
    84    76    77    1
    85    92    93    1
    86    92    94    1
    87   179   181    1
    88   179   178    1
    89   179   180    1
    90   156   157    2
    91    93    95    1
    92    32    31    1
    93    61    60    1
    94    30    28   ar
    95   160   161   ar
    96    28    27    1
    97    25    24    2
    98    31    24   am
    99    77    78    1
   100   146   144   am
   101    60    59    1
   102    24    23    1
   103    26    27    1
   104    26    23    1
   105    79    78    1
   106   145   144    2
   107   144   143    1
   108    23    22    1
   109    59    58    1
   110   117   116   ar
   111   101   100    1
   112   108   107    1
   113   102   100    1
   114    22    20   am
   115   143   142    1
   116    41    39    1
   117    58    55    1
   118   107   109    1
   119   107   104    1
   120   100    97    1
   121   135   132    1
   122   116   118   ar
   123   116   115    1
   124    20    21    2
   125    20    19    1
   126    39    40    1
   127    39    36    1
   128   114   115    1
   129   114   111    1
   130   104   105    1
   131   104   103    1
   132    55    56    1
   133    55    54    1
   134   113   112    2
   135    19    18    1
   136   110   105   am
   137   110   111    1
   138    97    98    1
   139    97    96    1
   140    35    36    1
   141    56    57    2
   142   132   131    1
   143   132   133    1
   144    13    12    2
   145   105   106    2
   146   111   112    1
   147    98    99    2
   148    36    37    1
   149   134   133    2
   150   112   119   am
   151    54    49   am
   152   131   121   am
   153   133   136   am
   154    18    12   am
   155    12    11    1
   156   121   122    2
   157   121   120    1
   158    46    43    1
   159    49    50    2
   160    49    48    1
   161   119   120    1
   162   120   123    1
   163    37    38    2
   164    14    11    1
   165    14    15    1
   166   136   137    1
   167    45    44    2
   168   138   139    2
   169   138   137    1
   170    11    10    1
   171    44    47   am
   172    44    43    1
   173    48    47    1
   174    48    51    1
   175    16    15    1
   176    43    42    1
   177   137   140    1
   178    15    17    1
   179   125   127   ar
   180   125   124   ar
   181   123   124    1
   182   127   129   ar
   183    52    51    1
   184   124   126   ar
   185   141   140    1
   186    51    53    1
   187   129   130    1
   188   129   128   ar
   189   126   128   ar
   190     4     3    2
   191     9     8    1
   192     3     2    1
   193     8     7    1
   194     6     7    1
   195     6     5    1
   196     2     5    1
   197     2     1    1
