@<TRIPOS>MOLECULE
tmp/5ur4A00.pdb
 194 187 0 0 0
SMALL
GASTEIGER

@<TRIPOS>ATOM
      1  N        -38.9090   -9.8800   -0.4010 N.3    59  LYS59      -0.1231
      2  CA       -37.6110   -9.2240   -0.4420 C.3    59  LYS59       0.1693
      3  C        -37.4870   -8.3810   -1.6970 C.2    59  LYS59       0.2592
      4  O        -38.1270   -8.6420   -2.7230 O.2    59  LYS59      -0.2718
      5  CB       -36.4340  -10.2200   -0.4270 C.3    59  LYS59       0.0285
      6  CG       -36.4280  -11.2060    0.7210 C.3    59  LYS59       0.0035
      7  CD       -35.1320  -12.0220    0.6890 C.3    59  LYS59       0.0206
      8  CE       -35.1810  -13.1200    1.7110 C.3    59  LYS59       0.1093
      9  NZ       -33.8410  -13.7850    1.8050 N.3    59  LYS59      -0.1314
     10  N        -36.6100   -7.3830   -1.6100 N.am   60  HIS60      -0.1962
     11  CA       -36.1600   -6.6140   -2.7650 C.3    60  HIS60       0.1787
     12  C        -34.9960   -7.3210   -3.4580 C.2    60  HIS60       0.2620
     13  O        -34.4740   -8.3290   -2.9790 O.2    60  HIS60      -0.2715
     14  CB       -35.7050   -5.2120   -2.3530 C.3    60  HIS60       0.0785
     15  CG       -36.7900   -4.3570   -1.7880 C.ar   60  HIS60       0.0821
     16  ND1      -37.5400   -3.5050   -2.5670 N.ar   60  HIS60      -0.2267
     17  CD2      -37.2340   -4.2030   -0.5190 C.ar   60  HIS60       0.1154
     18  CE1      -38.4130   -2.8710   -1.8020 C.ar   60  HIS60       0.1986
     19  NE2      -38.2460   -3.2730   -0.5570 N.ar   60  HIS60      -0.2212
     20  N        -34.5930   -6.7680   -4.6050 N.am   61  PHE61      -0.1960
     21  CA       -33.3160   -7.0310   -5.2810 C.3    61  PHE61       0.1771
     22  C        -33.2390   -8.3700   -6.0020 C.2    61  PHE61       0.2619
     23  O        -32.1570   -8.7060   -6.5030 O.2    61  PHE61      -0.2715
     24  CB       -32.1380   -6.9400   -4.3000 C.3    61  PHE61       0.0574
     25  CG       -32.1740   -5.7130   -3.4270 C.ar   61  PHE61      -0.0200
     26  CD1      -32.1060   -4.4520   -3.9920 C.ar   61  PHE61      -0.0042
     27  CD2      -32.2920   -5.8300   -2.0520 C.ar   61  PHE61      -0.0042
     28  CE1      -32.1510   -3.3050   -3.1900 C.ar   61  PHE61      -0.0003
     29  CE2      -32.3410   -4.6890   -1.2480 C.ar   61  PHE61      -0.0003
     30  CZ       -32.2650   -3.4310   -1.8310 C.ar   61  PHE61      -0.0000
     31  N        -34.3280   -9.1260   -6.1240 N.am   62  ILE62      -0.1977
     32  CA       -34.2730  -10.4590   -6.7180 C.3    62  ILE62       0.1596
     33  C        -34.8730  -10.4210   -8.1110 C.2    62  ILE62       0.2287
     34  O        -36.0440  -10.0580   -8.2810 O.2    62  ILE62      -0.2864
     35  CB       -34.9850  -11.4850   -5.8270 C.3    62  ILE62       0.0276
     36  CG1      -34.2170  -11.5920   -4.5070 C.3    62  ILE62       0.0022
     37  CG2      -35.0960  -12.8490   -6.5540 C.3    62  ILE62       0.0022
     38  CD1      -34.8340  -12.5390   -3.4940 C.3    62  ILE62       0.0001
     39  N        -30.5490  -17.8320   -6.6780 N.3    81  VAL81      -0.1245
     40  CA       -31.0920  -16.4880   -6.8450 C.3    81  VAL81       0.1561
     41  C        -30.2440  -15.7140   -7.8390 C.2    81  VAL81       0.2260
     42  O        -29.0100  -15.7270   -7.7540 O.2    81  VAL81      -0.2867
     43  CB       -31.1350  -15.7440   -5.5030 C.3    81  VAL81       0.0252
     44  CG1      -31.6210  -14.3260   -5.7130 C.3    81  VAL81       0.0019
     45  CG2      -32.0130  -16.4870   -4.4960 C.3    81  VAL81       0.0019
     46  N        -29.5830  -11.8740   -8.6840 N.3    83  VAL83      -0.1245
     47  CA       -29.7520  -10.5450   -8.1050 C.3    83  VAL83       0.1561
     48  C        -29.9130   -9.5370   -9.2360 C.2    83  VAL83       0.2260
     49  O        -29.2560   -9.6600  -10.2740 O.2    83  VAL83      -0.2867
     50  CB       -28.5380  -10.2140   -7.2180 C.3    83  VAL83       0.0252
     51  CG1      -28.7190   -8.8730   -6.5610 C.3    83  VAL83       0.0019
     52  CG2      -28.3410  -11.2970   -6.1560 C.3    83  VAL83       0.0019
     53  N        -25.8470   -4.2180   -8.2470 N.3    87  LEU87      -0.1231
     54  CA       -25.5210   -4.5010   -6.8550 C.3    87  LEU87       0.1678
     55  C        -24.1610   -5.1820   -6.7700 C.2    87  LEU87       0.2434
     56  O        -23.6350   -5.6200   -7.7960 O.2    87  LEU87      -0.2733
     57  CB       -26.6070   -5.3780   -6.2310 C.3    87  LEU87       0.0284
     58  CG       -27.9540   -4.6790   -6.0100 C.3    87  LEU87       0.0019
     59  CD1      -28.9880   -5.6440   -5.5010 C.3    87  LEU87       0.0001
     60  CD2      -27.7850   -3.5470   -5.0310 C.3    87  LEU87       0.0001
     61  N        -23.5460   -5.2860   -5.5780 N.am   88  PRO88      -0.2718
     62  CA       -22.2630   -5.9960   -5.4760 C.3    88  PRO88       0.1535
     63  C        -22.4240   -7.5070   -5.4350 C.2    88  PRO88       0.2598
     64  O        -21.7110   -8.2020   -4.7010 O.2    88  PRO88      -0.2715
     65  CB       -21.6780   -5.4650   -4.1610 C.3    88  PRO88       0.0310
     66  CG       -22.8670   -5.1430   -3.3400 C.3    88  PRO88       0.0237
     67  CD       -23.9100   -4.6340   -4.3040 C.3    88  PRO88       0.0939
     68  N        -23.3710   -8.0220   -6.2150 N.am   89  ALA89      -0.1978
     69  CA       -23.6650   -9.4460   -6.2730 C.3    89  ALA89       0.1597
     70  C        -24.3970   -9.7260   -7.5710 C.2    89  ALA89       0.2287
     71  O        -25.1930   -8.8980   -8.0190 O.2    89  ALA89      -0.2864
     72  CB       -24.5290   -9.9010   -5.0990 C.3    89  ALA89       0.0319
     73  N        -26.6700  -15.8900   -6.0120 N.3    92  SER92      -0.1217
     74  CA       -26.5130  -16.4070   -4.6640 C.3    92  SER92       0.1889
     75  C        -27.1700  -17.7760   -4.5940 C.2    92  SER92       0.2288
     76  O        -28.3320  -17.9180   -4.9810 O.2    92  SER92      -0.2866
     77  CB       -27.1420  -15.4380   -3.6580 C.3    92  SER92       0.2089
     78  OG       -26.9020  -15.8530   -2.3260 O.3    92  SER92      -0.2183
     79  N        -28.3800  -20.4570   -1.8380 N.3    94  GLU94      -0.1245
     80  CA       -28.7110  -20.3390   -0.4280 C.3    94  GLU94       0.1567
     81  C        -29.3580  -21.6260    0.0520 C.2    94  GLU94       0.2260
     82  O        -30.1430  -22.2450   -0.6760 O.2    94  GLU94      -0.2867
     83  CB       -29.6270  -19.1130   -0.2020 C.3    94  GLU94       0.0388
     84  CG       -28.9370  -17.8380   -0.7130 C.3    94  GLU94       0.1160
     85  CD       -29.7660  -16.5790   -0.6590 C.2    94  GLU94       0.3649
     86  OE1      -31.0050  -16.6500   -0.4930 O.co2  94  GLU94      -0.2457
     87  OE2      -29.1350  -15.5120   -0.7810 O.co2  94  GLU94      -0.2457
     88  N        -31.2500  -19.0780    6.8030 N.3   108  PHE108     -0.1241
     89  CA       -30.5440  -19.6360    5.6590 C.3   108  PHE108      0.1605
     90  C        -29.0760  -19.2530    5.7020 C.2   108  PHE108      0.2264
     91  O        -28.6730  -18.3180    6.4020 O.2   108  PHE108     -0.2867
     92  CB       -31.1670  -19.1760    4.3290 C.3   108  PHE108      0.0534
     93  CG       -30.9800  -17.7140    4.0340 C.ar  108  PHE108     -0.0203
     94  CD1      -29.9410  -17.2870    3.2210 C.ar  108  PHE108     -0.0042
     95  CD2      -31.8480  -16.7700    4.5480 C.ar  108  PHE108     -0.0042
     96  CE1      -29.7610  -15.9510    2.9350 C.ar  108  PHE108     -0.0003
     97  CE2      -31.6770  -15.4230    4.2550 C.ar  108  PHE108     -0.0003
     98  CZ       -30.6330  -15.0130    3.4550 C.ar  108  PHE108     -0.0000
     99  N        -25.7580  -18.5890    2.9170 N.3   110  ILE110     -0.1245
    100  CA       -25.3040  -18.4120    1.5440 C.3   110  ILE110      0.1561
    101  C        -24.1080  -19.3330    1.3290 C.2   110  ILE110      0.2260
    102  O        -23.0660  -19.1670    1.9750 O.2   110  ILE110     -0.2867
    103  CB       -24.9510  -16.9460    1.2630 C.3   110  ILE110      0.0252
    104  CG1      -26.1870  -16.0670    1.4710 C.3   110  ILE110      0.0019
    105  CG2      -24.3820  -16.7980   -0.1520 C.3   110  ILE110      0.0019
    106  CD1      -25.9940  -14.5780    1.1340 C.3   110  ILE110      0.0001
    107  N        -20.6240  -13.1780   -5.6170 N.3   115  HIS115     -0.1226
    108  CA       -20.8630  -12.0730   -4.6920 C.3   115  HIS115      0.1752
    109  C        -19.6540  -12.0200   -3.7640 C.2   115  HIS115      0.2596
    110  O        -18.7420  -12.8420   -3.8650 O.2   115  HIS115     -0.2718
    111  CB       -22.1610  -12.2540   -3.9090 C.3   115  HIS115      0.0759
    112  CG       -22.2060  -13.5400   -3.1590 C.ar  115  HIS115      0.0818
    113  ND1      -21.5170  -13.7330   -1.9810 N.ar  115  HIS115     -0.2268
    114  CD2      -22.8070  -14.7190   -3.4440 C.ar  115  HIS115      0.1154
    115  CE1      -21.7100  -14.9720   -1.5630 C.ar  115  HIS115      0.1986
    116  NE2      -22.4850  -15.5910   -2.4360 N.ar  115  HIS115     -0.2212
    117  N        -19.6710  -11.0610   -2.8370 N.am  116  ARG116     -0.1966
    118  CA       -18.5070  -10.7540   -2.0140 C.3   116  ARG116      0.1729
    119  C        -18.5760  -11.3430   -0.6110 C.2   116  ARG116      0.2616
    120  O        -17.5960  -11.2360    0.1370 O.2   116  ARG116     -0.2715
    121  CB       -18.3320   -9.2340   -1.9010 C.3   116  ARG116      0.0348
    122  CG       -18.1820   -8.5090   -3.2260 C.3   116  ARG116      0.0492
    123  CD       -18.0940   -7.0080   -2.9990 C.3   116  ARG116      0.2205
    124  NE       -17.8810   -6.2670   -4.2380 N.pl3 116  ARG116     -0.0865
    125  CZ       -17.8640   -4.9400   -4.3180 C.cat 116  ARG116      0.5346
    126  NH1      -18.0510   -4.2050   -3.2290 N.pl3 116  ARG116      0.1354
    127  NH2      -17.6630   -4.3470   -5.4870 N.pl3 116  ARG116      0.1354
    128  N        -19.6870  -11.9650   -0.2410 N.am  117  LEU117     -0.1977
    129  CA       -19.9100  -12.3930    1.1310 C.3   117  LEU117      0.1596
    130  C        -19.3590  -13.7880    1.3690 C.2   117  LEU117      0.2287
    131  O        -19.5580  -14.7000    0.5630 O.2   117  LEU117     -0.2864
    132  CB       -21.3980  -12.3750    1.4610 C.3   117  LEU117      0.0297
    133  CG       -22.1390  -11.0490    1.2730 C.3   117  LEU117      0.0022
    134  CD1      -23.6030  -11.2210    1.6040 C.3   117  LEU117      0.0001
    135  CD2      -21.5010   -9.9590    2.1400 C.3   117  LEU117      0.0001
    136  N        -21.9940  -16.0300    5.1030 N.3   120  TYR120     -0.1241
    137  CA       -23.1950  -15.3290    5.5420 C.3   120  TYR120      0.1605
    138  C        -24.2410  -16.3340    5.9940 C.2   120  TYR120      0.2264
    139  O        -24.5400  -17.2960    5.2790 O.2   120  TYR120     -0.2867
    140  CB       -23.7620  -14.4640    4.4140 C.3   120  TYR120      0.0534
    141  CG       -24.9690  -13.6260    4.8020 C.ar  120  TYR120     -0.0201
    142  CD1      -24.8290  -12.2860    5.1660 C.ar  120  TYR120     -0.0009
    143  CD2      -26.2500  -14.1660    4.7880 C.ar  120  TYR120     -0.0009
    144  CE1      -25.9470  -11.5110    5.5240 C.ar  120  TYR120      0.0417
    145  CE2      -27.3770  -13.3960    5.1380 C.ar  120  TYR120      0.0417
    146  CZ       -27.2140  -12.0720    5.5040 C.ar  120  TYR120      0.1957
    147  OH       -28.3200  -11.3150    5.8570 O.3   120  TYR120     -0.2866
    148  N        -34.4690  -10.0970   12.6490 N.3   141  GLU141     -0.1245
    149  CA       -33.6030  -10.7750   11.6920 C.3   141  GLU141      0.1567
    150  C        -32.1720  -10.3940   12.0010 C.2   141  GLU141      0.2260
    151  O        -31.8530   -9.2080   12.0900 O.2   141  GLU141     -0.2867
    152  CB       -33.9360  -10.4100   10.2380 C.3   141  GLU141      0.0388
    153  CG       -33.0320  -11.1250    9.2430 C.3   141  GLU141      0.1160
    154  CD       -33.6190  -11.1750    7.8490 C.2   141  GLU141      0.3649
    155  OE1      -34.8300  -11.4640    7.7250 O.co2 141  GLU141     -0.2457
    156  OE2      -32.8700  -10.9200    6.8830 O.co2 141  GLU141     -0.2457
    157  N        -23.9860   -2.2380    3.7270 N.3   150  PHE150     -0.1227
    158  CA       -24.8690   -2.6000    2.6210 C.3   150  PHE150      0.1736
    159  C        -25.8120   -3.7420    3.0000 C.2   150  PHE150      0.2595
    160  O        -27.0170   -3.6940    2.7140 O.2   150  PHE150     -0.2718
    161  CB       -24.0440   -2.9810    1.3950 C.3   150  PHE150      0.0547
    162  CG       -24.7740   -2.7850    0.1040 C.ar  150  PHE150     -0.0202
    163  CD1      -25.6300   -3.7550   -0.3820 C.ar  150  PHE150     -0.0042
    164  CD2      -24.6140   -1.6160   -0.6170 C.ar  150  PHE150     -0.0042
    165  CE1      -26.3110   -3.5610   -1.5660 C.ar  150  PHE150     -0.0003
    166  CE2      -25.2860   -1.4190   -1.8040 C.ar  150  PHE150     -0.0003
    167  CZ       -26.1370   -2.3920   -2.2760 C.ar  150  PHE150     -0.0000
    168  N        -25.2760   -4.8010    3.6170 N.am  151  ALA151     -0.1980
    169  CA       -26.1230   -5.9040    4.0500 C.3   151  ALA151      0.1597
    170  C        -27.1750   -5.4340    5.0450 C.2   151  ALA151      0.2287
    171  O        -28.3040   -5.9340    5.0400 O.2   151  ALA151     -0.2864
    172  CB       -25.2680   -7.0120    4.6670 C.3   151  ALA151      0.0319
    173  N        -29.9670   -3.9070    3.0450 N.3   154  VAL154     -0.1231
    174  CA       -30.7730   -4.9480    2.4070 C.3   154  VAL154      0.1692
    175  C        -31.7490   -5.5530    3.4060 C.2   154  VAL154      0.2591
    176  O        -32.9420   -5.6960    3.1170 O.2   154  VAL154     -0.2718
    177  CB       -29.8670   -6.0220    1.7730 C.3   154  VAL154      0.0266
    178  CG1      -30.6730   -7.2200    1.3240 C.3   154  VAL154      0.0020
    179  CG2      -29.1110   -5.4180    0.5820 C.3   154  VAL154      0.0020
    180  N        -31.2640   -5.9050    4.6040 N.am  155  VAL155     -0.1980
    181  CA       -32.1400   -6.5190    5.5960 C.3   155  VAL155      0.1595
    182  C        -33.2430   -5.5520    6.0050 C.2   155  VAL155      0.2287
    183  O        -34.4190   -5.9320    6.0970 O.2   155  VAL155     -0.2864
    184  CB       -31.3360   -6.9880    6.8190 C.3   155  VAL155      0.0276
    185  CG1      -32.2910   -7.4570    7.9270 C.3   155  VAL155      0.0022
    186  CG2      -30.3840   -8.1030    6.4320 C.3   155  VAL155      0.0022
    187  N        -35.8170   -5.2250    3.2600 N.3   158  ASN158     -0.1240
    188  CA       -36.5890   -6.4570    3.1230 C.3   158  ASN158      0.1653
    189  C        -37.6100   -6.5950    4.2370 C.2   158  ASN158      0.2266
    190  O        -38.7520   -6.9880    3.9900 O.2   158  ASN158     -0.2867
    191  CB       -35.6630   -7.6680    3.1030 C.3   158  ASN158      0.1155
    192  CG       -34.9150   -7.8000    1.7990 C.2   158  ASN158      0.2627
    193  OD1      -35.2200   -7.1230    0.8140 O.2   158  ASN158     -0.2716
    194  ND2      -33.9230   -8.6930    1.7870 N.am  158  ASN158     -0.0877
@<TRIPOS>BOND
     1    49    48    2
     2    48    47    1
     3    46    47    1
     4    34    33    2
     5    53    54    1
     6    33    32    1
     7    47    50    1
     8    71    70    2
     9    41    42    2
    10    41    40    1
    11    56    55    2
    12    70    69    1
    13    50    51    1
    14    50    52    1
    15    54    55    1
    16    54    57    1
    17    40    39    1
    18    40    43    1
    19    55    61   am
    20    32    31    1
    21    32    35    1
    22    37    35    1
    23    23    22    2
    24    69    68    1
    25    69    72    1
    26    57    58    1
    27    68    63   am
    28    31    22   am
    29    73    74    1
    30    58    59    1
    31    58    60    1
    32    22    21    1
    33    35    36    1
    34    44    43    1
    35   107   108    1
    36    61    62    1
    37    61    67    1
    38    43    45    1
    39   127   125    1
    40    62    63    1
    41    62    65    1
    42    63    64    2
    43    21    20    1
    44    21    24    1
    45    76    75    2
    46   108   111    1
    47   108   109    1
    48    74    75    1
    49    74    77    1
    50    20    12   am
    51    36    38    1
    52   125   124    2
    53   125   126    1
    54    67    66    1
    55    24    25    1
    56   124   123    1
    57    65    66    1
    58    26    25   ar
    59    26    28   ar
    60   111   112    1
    61   110   109    2
    62   109   117   am
    63    77    78    1
    64    12    13    2
    65    12    11    1
    66   114   112   ar
    67   114   116   ar
    68    25    27   ar
    69   122   123    1
    70   122   121    1
    71    28    30   ar
    72   112   113   ar
    73   117   118    1
    74    11    14    1
    75    11    10    1
    76     4     3    2
    77    16    18   ar
    78    16    15   ar
    79   116   115   ar
    80    14    15    1
    81   167   166   ar
    82   167   165   ar
    83    27    29   ar
    84   118   121    1
    85   118   119    1
    86   113   115   ar
    87    79    80    1
    88    30    29   ar
    89   166   164   ar
    90    18    19   ar
    91    15    17   ar
    92     3    10   am
    93     3     2    1
    94   165   163   ar
    95    87    85   ar
    96    84    85    1
    97    84    83    1
    98    82    81    2
    99    85    86   ar
   100   164   162   ar
   101   119   128   am
   102   119   120    2
   103    19    17   ar
   104     2     5    1
   105     2     1    1
   106    80    83    1
   107    80    81    1
   108     5     6    1
   109   163   162   ar
   110   128   129    1
   111   105   103    1
   112   162   161    1
   113   131   130    2
   114   179   177    1
   115     7     6    1
   116     7     8    1
   117   193   192    2
   118   129   130    1
   119   129   132    1
   120   106   104    1
   121   103   104    1
   122   103   100    1
   123   133   132    1
   124   133   134    1
   125   133   135    1
   126   178   177    1
   127   101   100    1
   128   101   102    2
   129   161   158    1
   130   100    99    1
   131     8     9    1
   132   177   174    1
   133   194   192   am
   134   192   191    1
   135   174   173    1
   136   174   175    1
   137   158   159    1
   138   158   157    1
   139   160   159    2
   140    96    94   ar
   141    96    98   ar
   142   159   168   am
   143   191   188    1
   144   176   175    2
   145   188   187    1
   146   188   189    1
   147    94    93   ar
   148   175   180   am
   149    98    97   ar
   150   168   169    1
   151   190   189    2
   152    93    92    1
   153    93    95   ar
   154   169   172    1
   155   169   170    1
   156    97    95   ar
   157    92    89    1
   158   140   141    1
   159   140   137    1
   160   180   181    1
   161   143   141   ar
   162   143   145   ar
   163   141   142   ar
   164   171   170    2
   165   136   137    1
   166   145   146   ar
   167   142   144   ar
   168   139   138    2
   169   146   144   ar
   170   146   147    1
   171   137   138    1
   172   181   182    1
   173   181   184    1
   174    89    90    1
   175    89    88    1
   176    90    91    2
   177   182   183    2
   178   186   184    1
   179   184   185    1
   180   156   154   ar
   181   155   154   ar
   182   154   153    1
   183   153   152    1
   184   152   149    1
   185   149   150    1
   186   149   148    1
   187   150   151    2
