@<TRIPOS>MOLECULE
tmp/5ur5A00.pdb
 208 199 0 0 0
SMALL
GASTEIGER

@<TRIPOS>ATOM
      1  N         -2.0590  -15.9050  -10.4250 N.3    51  PRO51      -0.2116
      2  CA        -1.3280  -14.7280  -10.9210 C.3    51  PRO51       0.1372
      3  C         -2.0350  -13.4170  -10.6260 C.2    51  PRO51       0.2244
      4  O         -1.3710  -12.3740  -10.5470 O.2    51  PRO51      -0.2868
      5  CB        -1.2270  -14.9830  -12.4320 C.3    51  PRO51       0.0268
      6  CG        -2.3910  -15.8700  -12.7410 C.3    51  PRO51       0.0207
      7  CD        -2.6140  -16.7200  -11.5240 C.3    51  PRO51       0.0892
      8  N         -0.3100   -9.7000  -10.2220 N.3    55  LYS55      -0.1231
      9  CA        -0.2700   -9.0910  -11.5460 C.3    55  LYS55       0.1693
     10  C         -1.5160   -8.2440  -11.7550 C.2    55  LYS55       0.2592
     11  O         -2.5500   -8.4620  -11.1150 O.2    55  LYS55      -0.2718
     12  CB        -0.2010  -10.1430  -12.6670 C.3    55  LYS55       0.0285
     13  CG         0.9810  -11.0910  -12.6030 C.3    55  LYS55       0.0035
     14  CD         1.0000  -11.9740  -13.8490 C.3    55  LYS55       0.0206
     15  CE         2.0600  -13.0680  -13.7610 C.3    55  LYS55       0.1093
     16  NZ         3.4260  -12.5090  -13.6020 N.3    55  LYS55      -0.1314
     17  N         -1.4010   -7.2890  -12.6800 N.am   56  HIS56      -0.1962
     18  CA        -2.5060   -6.4810  -13.1770 C.3    56  HIS56       0.1787
     19  C         -3.2220   -7.2050  -14.3160 C.2    56  HIS56       0.2620
     20  O         -2.7380   -8.2040  -14.8440 O.2    56  HIS56      -0.2715
     21  CB        -1.9990   -5.1320  -13.7060 C.3    56  HIS56       0.0785
     22  CG        -1.4410   -4.2230  -12.6550 C.ar   56  HIS56       0.0821
     23  ND1       -2.2380   -3.3910  -11.8970 N.ar   56  HIS56      -0.2267
     24  CD2       -0.1670   -3.9850  -12.2600 C.ar   56  HIS56       0.1154
     25  CE1       -1.4820   -2.6910  -11.0700 C.ar   56  HIS56       0.1986
     26  NE2       -0.2210   -3.0280  -11.2720 N.ar   56  HIS56      -0.2212
     27  N         -4.3750   -6.6560  -14.7130 N.am   57  PHE57      -0.1960
     28  CA        -5.0890   -6.9210  -15.9650 C.3    57  PHE57       0.1771
     29  C         -5.8180   -8.2550  -16.0150 C.2    57  PHE57       0.2619
     30  O         -6.3260   -8.6240  -17.0810 O.2    57  PHE57      -0.2715
     31  CB        -4.1650   -6.8320  -17.1870 C.3    57  PHE57       0.0574
     32  CG        -3.2830   -5.6250  -17.1770 C.ar   57  PHE57      -0.0200
     33  CD1       -3.8370   -4.3580  -17.1310 C.ar   57  PHE57      -0.0042
     34  CD2       -1.9040   -5.7550  -17.1760 C.ar   57  PHE57      -0.0042
     35  CE1       -3.0420   -3.2400  -17.1150 C.ar   57  PHE57      -0.0003
     36  CE2       -1.1020   -4.6350  -17.1530 C.ar   57  PHE57      -0.0003
     37  CZ        -1.6730   -3.3760  -17.1240 C.ar   57  PHE57      -0.0000
     38  N         -5.9180   -8.9830  -14.9120 N.am   58  ILE58      -0.1977
     39  CA        -6.5400  -10.3020  -14.9370 C.3    58  ILE58       0.1596
     40  C         -7.9520  -10.2050  -14.3770 C.2    58  ILE58       0.2287
     41  O         -8.1440   -9.8650  -13.2030 O.2    58  ILE58      -0.2864
     42  CB        -5.6960  -11.3250  -14.1690 C.3    58  ILE58       0.0276
     43  CG1       -4.3570  -11.4810  -14.8910 C.3    58  ILE58       0.0022
     44  CG2       -6.4510  -12.6540  -14.0820 C.3    58  ILE58       0.0022
     45  CD1       -3.3140  -12.2460  -14.0990 C.3    58  ILE58       0.0001
     46  N         -3.2520  -22.9070  -16.7330 N.3    75  ARG75      -0.1245
     47  CA        -4.2000  -21.9550  -16.1800 C.3    75  ARG75       0.1563
     48  C         -4.9170  -21.2580  -17.3290 C.2    75  ARG75       0.2260
     49  O         -4.3340  -21.0280  -18.3910 O.2    75  ARG75      -0.2867
     50  CB        -3.5050  -20.9210  -15.2730 C.3    75  ARG75       0.0307
     51  CG        -2.4740  -20.0370  -15.9790 C.3    75  ARG75       0.0489
     52  CD        -1.6860  -19.1960  -14.9620 C.3    75  ARG75       0.2205
     53  NE        -0.7110  -18.3200  -15.6070 N.pl3  75  ARG75      -0.0865
     54  CZ         0.3340  -17.7740  -14.9850 C.cat  75  ARG75       0.5346
     55  NH1        0.5370  -18.0080  -13.6980 N.pl3  75  ARG75       0.1354
     56  NH2        1.1790  -16.9980  -15.6520 N.pl3  75  ARG75       0.1354
     57  N         -6.6050  -17.8780  -18.2240 N.3    77  VAL77      -0.1245
     58  CA        -6.6890  -16.4720  -17.8350 C.3    77  VAL77       0.1561
     59  C         -7.7030  -15.7800  -18.7320 C.2    77  VAL77       0.2260
     60  O         -7.6850  -15.9600  -19.9570 O.2    77  VAL77      -0.2867
     61  CB        -5.3160  -15.7800  -17.9380 C.3    77  VAL77       0.0252
     62  CG1       -5.4230  -14.2850  -17.5910 C.3    77  VAL77       0.0019
     63  CG2       -4.2850  -16.4660  -17.0340 C.3    77  VAL77       0.0019
     64  N         -8.5570  -11.8850  -19.5460 N.3    79  VAL79      -0.1245
     65  CA        -8.0090  -10.5400  -19.3960 C.3    79  VAL79       0.1561
     66  C         -9.1490   -9.5490  -19.1990 C.2    79  VAL79       0.2260
     67  O        -10.2490   -9.7350  -19.7280 O.2    79  VAL79      -0.2867
     68  CB        -7.1670  -10.2000  -20.6470 C.3    79  VAL79       0.0252
     69  CG1       -6.5340   -8.8330  -20.5320 C.3    79  VAL79       0.0019
     70  CG2       -6.1010  -11.2730  -20.8690 C.3    79  VAL79       0.0019
     71  N         -7.9100   -4.3050  -23.5910 N.3    83  LEU83      -0.1231
     72  CA        -6.5130   -4.6140  -23.8400 C.3    83  LEU83       0.1678
     73  C         -6.4210   -5.4320  -25.1170 C.2    83  LEU83       0.2434
     74  O         -7.4340   -5.9560  -25.5950 O.2    83  LEU83      -0.2733
     75  CB        -5.9010   -5.3920  -22.6660 C.3    83  LEU83       0.0284
     76  CG        -5.7490   -4.5770  -21.3800 C.3    83  LEU83       0.0019
     77  CD1       -5.5520   -5.4860  -20.1930 C.3    83  LEU83       0.0001
     78  CD2       -4.5940   -3.6040  -21.4960 C.3    83  LEU83       0.0001
     79  N         -5.2200   -5.5550  -25.7120 N.am   84  PRO84      -0.2718
     80  CA        -5.1020   -6.3210  -26.9630 C.3    84  PRO84       0.1535
     81  C         -5.1080   -7.8310  -26.7590 C.2    84  PRO84       0.2598
     82  O         -4.3760   -8.5550  -27.4410 O.2    84  PRO84      -0.2715
     83  CB        -3.7650   -5.8390  -27.5390 C.3    84  PRO84       0.0310
     84  CG        -2.9750   -5.4440  -26.3540 C.3    84  PRO84       0.0237
     85  CD        -3.9690   -4.8370  -25.3980 C.3    84  PRO84       0.0939
     86  N         -5.9340   -8.3160  -25.8340 N.am   85  ALA85      -0.1978
     87  CA        -6.0500   -9.7410  -25.5580 C.3    85  ALA85       0.1597
     88  C         -7.3520   -9.9880  -24.8120 C.2    85  ALA85       0.2287
     89  O         -7.8040   -9.1420  -24.0380 O.2    85  ALA85      -0.2864
     90  CB        -4.8720  -10.2560  -24.7330 C.3    85  ALA85       0.0319
     91  N         -8.2830  -13.7810  -23.8970 N.3    87  THR87      -0.1203
     92  CA        -8.0890  -14.9950  -23.1210 C.3    87  THR87       0.1994
     93  C         -6.6770  -15.4980  -23.3630 C.2    87  THR87       0.2618
     94  O         -6.0530  -15.1960  -24.3850 O.2    87  THR87      -0.2717
     95  CB        -9.0910  -16.1010  -23.4930 C.3    87  THR87       0.1784
     96  OG1       -8.9220  -16.4460  -24.8730 O.3    87  THR87      -0.2211
     97  CG2      -10.5340  -15.6410  -23.2610 C.3    87  THR87       0.0376
     98  N         -6.1790  -16.2790  -22.4110 N.am   88  SER88      -0.1951
     99  CA        -4.8640  -16.8810  -22.5650 C.3    88  SER88       0.1924
    100  C         -4.8290  -18.1890  -21.7970 C.2    88  SER88       0.2314
    101  O         -5.2730  -18.2500  -20.6470 O.2    88  SER88      -0.2863
    102  CB        -3.7700  -15.9250  -22.0670 C.3    88  SER88       0.2116
    103  OG        -2.4750  -16.4780  -22.2340 O.3    88  SER88      -0.2180
    104  N         -2.1190  -20.9370  -20.3980 N.3    90  GLU90      -0.1245
    105  CA        -0.7100  -20.8540  -20.0680 C.3    90  GLU90       0.1567
    106  C         -0.2920  -22.1160  -19.3370 C.2    90  GLU90       0.2260
    107  O         -1.0750  -22.7040  -18.5900 O.2    90  GLU90      -0.2867
    108  CB        -0.4270  -19.5840  -19.2250 C.3    90  GLU90       0.0388
    109  CG        -0.9140  -18.3260  -19.9740 C.3    90  GLU90       0.1160
    110  CD        -0.8820  -17.0440  -19.1760 C.2    90  GLU90       0.3649
    111  OE1       -0.3990  -17.0430  -18.0280 O.co2  90  GLU90      -0.2457
    112  OE2       -1.3530  -16.0220  -19.7140 O.co2  90  GLU90      -0.2457
    113  N          6.7980  -19.8380  -17.4860 N.3   104  PHE104     -0.1241
    114  CA         5.5840  -20.3350  -18.1180 C.3   104  PHE104      0.1605
    115  C          5.6140  -20.0030  -19.6020 C.2   104  PHE104      0.2264
    116  O          6.4380  -19.2120  -20.0730 O.2   104  PHE104     -0.2867
    117  CB         4.3200  -19.7720  -17.4470 C.3   104  PHE104      0.0534
    118  CG         4.0920  -18.2960  -17.6940 C.ar  104  PHE104     -0.0203
    119  CD1        3.3650  -17.8640  -18.7970 C.ar  104  PHE104     -0.0042
    120  CD2        4.5880  -17.3460  -16.8100 C.ar  104  PHE104     -0.0042
    121  CE1        3.1490  -16.5070  -19.0230 C.ar  104  PHE104     -0.0003
    122  CE2        4.3660  -15.9860  -17.0220 C.ar  104  PHE104     -0.0003
    123  CZ         3.6540  -15.5680  -18.1310 C.ar  104  PHE104     -0.0000
    124  N          2.7270  -19.3670  -23.0370 N.3   106  ILE106     -0.1245
    125  CA         1.3500  -19.2220  -23.4910 C.3   106  ILE106      0.1561
    126  C          1.1170  -20.2740  -24.5650 C.2   106  ILE106      0.2260
    127  O          1.8980  -20.3760  -25.5170 O.2   106  ILE106     -0.2867
    128  CB         1.0920  -17.8000  -24.0260 C.3   106  ILE106      0.0252
    129  CG1        1.2310  -16.7680  -22.8990 C.3   106  ILE106      0.0019
    130  CG2       -0.2840  -17.7150  -24.6790 C.3   106  ILE106      0.0019
    131  CD1        0.8240  -15.3420  -23.3010 C.3   106  ILE106      0.0001
    132  N         -5.2700  -13.5110  -28.3850 N.3   111  HIS111     -0.1241
    133  CA        -4.3010  -12.4880  -27.9920 C.3   111  HIS111      0.1621
    134  C         -3.2940  -12.3280  -29.1300 C.2   111  HIS111      0.2264
    135  O         -3.3320  -13.0630  -30.1200 O.2   111  HIS111     -0.2867
    136  CB        -3.5970  -12.8700  -26.6900 C.3   111  HIS111      0.0745
    137  CG        -2.9360  -14.2080  -26.7470 C.ar  111  HIS111      0.0817
    138  ND1       -1.7670  -14.4300  -27.4460 N.ar  111  HIS111     -0.2268
    139  CD2       -3.3080  -15.4070  -26.2410 C.ar  111  HIS111      0.1154
    140  CE1       -1.4320  -15.7040  -27.3430 C.ar  111  HIS111      0.1986
    141  NE2       -2.3540  -16.3200  -26.6240 N.ar  111  HIS111     -0.2212
    142  N          0.2290  -12.3130  -28.5420 N.3   113  LEU113     -0.1245
    143  CA         1.5550  -12.5920  -28.0140 C.3   113  LEU113      0.1561
    144  C          1.8970  -14.0490  -28.2580 C.2   113  LEU113      0.2260
    145  O          2.1020  -14.8130  -27.3040 O.2   113  LEU113     -0.2867
    146  CB         1.6320  -12.2600  -26.5200 C.3   113  LEU113      0.0270
    147  CG         1.3980  -10.7970  -26.1260 C.3   113  LEU113      0.0019
    148  CD1        1.5980  -10.6080  -24.6320 C.3   113  LEU113      0.0001
    149  CD2        2.3080   -9.8820  -26.9180 C.3   113  LEU113      0.0001
    150  N          4.7560  -16.6240  -26.5380 N.3   116  TYR116     -0.1241
    151  CA         5.2850  -15.9380  -25.3620 C.3   116  TYR116      0.1605
    152  C          5.7900  -16.9560  -24.3460 C.2   116  TYR116      0.2264
    153  O          5.0860  -17.9100  -24.0120 O.2   116  TYR116     -0.2867
    154  CB         4.1960  -15.0730  -24.7210 C.3   116  TYR116      0.0534
    155  CG         4.6620  -14.1810  -23.5740 C.ar  116  TYR116     -0.0201
    156  CD1        4.6320  -14.6240  -22.2530 C.ar  116  TYR116     -0.0009
    157  CD2        5.0900  -12.8740  -23.8160 C.ar  116  TYR116     -0.0009
    158  CE1        5.0450  -13.7960  -21.2050 C.ar  116  TYR116      0.0417
    159  CE2        5.5030  -12.0430  -22.7760 C.ar  116  TYR116      0.0417
    160  CZ         5.4780  -12.5100  -21.4810 C.ar  116  TYR116      0.1957
    161  OH         5.8910  -11.6740  -20.4600 O.3   116  TYR116     -0.2866
    162  N         12.7890  -10.7090  -14.3950 N.3   137  GLU137     -0.1245
    163  CA        11.8230  -11.3630  -15.2650 C.3   137  GLU137      0.1567
    164  C         12.1740  -11.0630  -16.7110 C.2   137  GLU137      0.2260
    165  O         12.3510   -9.8970  -17.0900 O.2   137  GLU137     -0.2867
    166  CB        10.3860  -10.9190  -14.9720 C.3   137  GLU137      0.0388
    167  CG         9.3680  -11.6420  -15.8550 C.3   137  GLU137      0.1160
    168  CD         7.9430  -11.3970  -15.4170 C.2   137  GLU137      0.3649
    169  OE1        7.7350  -11.0620  -14.2330 O.co2 137  GLU137     -0.2457
    170  OE2        7.0300  -11.5370  -16.2550 O.co2 137  GLU137     -0.2457
    171  N          4.4890   -2.6060  -25.3710 N.3   152  PHE152     -0.1227
    172  CA         3.3720   -3.1300  -24.5910 C.3   152  PHE152      0.1736
    173  C          3.8480   -4.1700  -23.5870 C.2   152  PHE152      0.2595
    174  O          3.5670   -4.0670  -22.3850 O.2   152  PHE152     -0.2718
    175  CB         2.3160   -3.7230  -25.5290 C.3   152  PHE152      0.0547
    176  CG         1.2190   -4.4640  -24.8150 C.ar  152  PHE152     -0.0202
    177  CD1        0.1670   -3.7780  -24.2240 C.ar  152  PHE152     -0.0042
    178  CD2        1.2360   -5.8520  -24.7410 C.ar  152  PHE152     -0.0042
    179  CE1       -0.8460   -4.4610  -23.5640 C.ar  152  PHE152     -0.0003
    180  CE2        0.2270   -6.5420  -24.0810 C.ar  152  PHE152     -0.0003
    181  CZ        -0.8160   -5.8500  -23.4940 C.ar  152  PHE152     -0.0000
    182  N          4.5840   -5.1820  -24.0600 N.am  153  ALA153     -0.1980
    183  CA         5.0120   -6.2580  -23.1650 C.3   153  ALA153      0.1597
    184  C          5.9250   -5.7480  -22.0550 C.2   153  ALA153      0.2287
    185  O          5.8000   -6.1740  -20.8990 O.2   153  ALA153     -0.2864
    186  CB         5.7080   -7.3600  -23.9660 C.3   153  ALA153      0.0319
    187  N          3.7750   -3.9170  -19.3500 N.3   156  VAL156     -0.1231
    188  CA         3.0330   -4.8730  -18.5240 C.3   156  VAL156      0.1692
    189  C          3.9570   -5.5690  -17.5270 C.2   156  VAL156      0.2591
    190  O          3.6330   -5.6940  -16.3400 O.2   156  VAL156     -0.2718
    191  CB         2.3000   -5.8920  -19.4120 C.3   156  VAL156      0.0266
    192  CG1        1.7370   -7.0320  -18.5540 C.3   156  VAL156      0.0020
    193  CG2        1.2060   -5.1920  -20.1940 C.3   156  VAL156      0.0020
    194  N          5.1040   -6.0650  -17.9950 N.am  157  VAL157     -0.1980
    195  CA         6.0060   -6.7780  -17.0860 C.3   157  VAL157      0.1595
    196  C          6.4650   -5.8480  -15.9770 C.2   157  VAL157      0.2287
    197  O          6.5020   -6.2300  -14.8020 O.2   157  VAL157     -0.2864
    198  CB         7.2030   -7.3680  -17.8640 C.3   157  VAL157      0.0276
    199  CG1        8.3030   -7.8260  -16.9050 C.3   157  VAL157      0.0022
    200  CG2        6.7470   -8.5360  -18.7710 C.3   157  VAL157      0.0022
    201  N          3.6430   -5.2860  -13.5110 N.3   160  ASN160     -0.1240
    202  CA         3.4010   -6.4810  -12.7070 C.3   160  ASN160      0.1653
    203  C          4.5050   -6.7050  -11.6780 C.2   160  ASN160      0.2266
    204  O          4.2300   -7.1270  -10.5490 O.2   160  ASN160     -0.2867
    205  CB         3.2540   -7.7030  -13.6210 C.3   160  ASN160      0.1155
    206  CG         1.9300   -7.7220  -14.3280 C.2   160  ASN160      0.2627
    207  OD1        1.0150   -6.9910  -13.9460 O.2   160  ASN160     -0.2716
    208  ND2        1.8010   -8.5690  -15.3550 N.am  160  ASN160     -0.0877
@<TRIPOS>BOND
     1   135   134    2
     2   134   133    1
     3   142   143    1
     4   132   133    1
     5   144   143    1
     6   144   145    2
     7   143   146    1
     8   133   136    1
     9    83    80    1
    10    83    84    1
    11   138   140   ar
    12   138   137   ar
    13    82    81    2
    14   140   141   ar
    15    80    81    1
    16    80    79    1
    17   149   147    1
    18    81    86   am
    19   137   136    1
    20   137   139   ar
    21   141   139   ar
    22   150   151    1
    23   146   147    1
    24    84    85    1
    25   147   148    1
    26    86    87    1
    27    79    85    1
    28    79    73   am
    29    74    73    2
    30    87    88    1
    31    87    90    1
    32   175   176    1
    33   175   172    1
    34   127   126    2
    35   171   172    1
    36   151   154    1
    37   151   152    1
    38    73    72    1
    39    96    95    1
    40   176   178   ar
    41   176   177   ar
    42    88    89    2
    43   178   180   ar
    44   154   155    1
    45   130   128    1
    46   172   173    1
    47   126   125    1
    48    94    93    2
    49   152   153    2
    50   177   179   ar
    51   180   181   ar
    52   182   173   am
    53   182   183    1
    54   128   125    1
    55   128   129    1
    56   186   183    1
    57    91    92    1
    58    72    71    1
    59    72    75    1
    60   157   155   ar
    61   157   159   ar
    62   173   174    2
    63   155   156   ar
    64   179   181   ar
    65    95    97    1
    66    95    92    1
    67   125   124    1
    68    93    92    1
    69    93    98   am
    70   131   129    1
    71   183   184    1
    72   159   160   ar
    73    75    76    1
    74    99    98    1
    75    99   102    1
    76    99   100    1
    77   156   158   ar
    78   103   102    1
    79   184   185    2
    80   100   101    2
    81    78    76    1
    82   160   158   ar
    83   160   161    1
    84    76    77    1
    85    70    68    1
    86    68    69    1
    87    68    65    1
    88   104   105    1
    89   193   191    1
    90   116   115    2
    91   105   106    1
    92   105   108    1
    93   109   108    1
    94   109   110    1
    95    60    59    2
    96    67    66    2
    97   112   110   ar
    98   115   114    1
    99    64    65    1
   100   191   192    1
   101   191   188    1
   102    65    66    1
   103   187   188    1
   104   106   107    2
   105   110   111   ar
   106   121   119   ar
   107   121   123   ar
   108   119   118   ar
   109   200   198    1
   110    59    58    1
   111   188   189    1
   112    49    48    2
   113    57    58    1
   114   123   122   ar
   115   114   113    1
   116   114   117    1
   117   194   189   am
   118   194   195    1
   119    61    58    1
   120    61    62    1
   121    61    63    1
   122   198   195    1
   123   198   199    1
   124   118   117    1
   125   118   120   ar
   126   189   190    2
   127    48    47    1
   128    31    32    1
   129    31    28    1
   130    32    34   ar
   131    32    33   ar
   132    34    36   ar
   133    36    37   ar
   134    33    35   ar
   135    37    35   ar
   136   165   164    2
   137   195   196    1
   138    30    29    2
   139   122   120   ar
   140    46    47    1
   141   164   163    1
   142   170   168   ar
   143    47    50    1
   144    29    28    1
   145    29    38   am
   146    51    50    1
   147    51    52    1
   148   196   197    2
   149    28    27    1
   150   167   168    1
   151   167   166    1
   152    56    54    1
   153    53    54    2
   154    53    52    1
   155   168   169   ar
   156   208   206   am
   157   163   166    1
   158   163   162    1
   159    54    55    1
   160    39    38    1
   161    39    40    1
   162    39    42    1
   163    43    42    1
   164    43    45    1
   165    20    19    2
   166    27    19   am
   167    40    41    2
   168   206   207    2
   169   206   205    1
   170    19    18    1
   171    42    44    1
   172    14    15    1
   173    14    13    1
   174    15    16    1
   175    21    18    1
   176    21    22    1
   177   205   202    1
   178   201   202    1
   179    18    17    1
   180     6     5    1
   181     6     7    1
   182   202   203    1
   183    17    10   am
   184    12    13    1
   185    12     9    1
   186    22    24   ar
   187    22    23   ar
   188     5     2    1
   189    24    26   ar
   190    23    25   ar
   191    10     9    1
   192    10    11    2
   193   203   204    2
   194     9     8    1
   195     7     1    1
   196    26    25   ar
   197     2     3    1
   198     2     1    1
   199     3     4    2
