@<TRIPOS>MOLECULE
tmp/5ur6A00.pdb
 219 211 0 0 0
SMALL
GASTEIGER

@<TRIPOS>ATOM
      1  N         81.3410   15.9250   10.3290 N.3    54  PRO54      -0.2116
      2  CA        82.0720   14.7610   10.8460 C.3    54  PRO54       0.1372
      3  C         81.3770   13.4550   10.5580 C.2    54  PRO54       0.2244
      4  O         82.0450   12.4230   10.4880 O.2    54  PRO54      -0.2868
      5  CB        82.1520   15.0370   12.3520 C.3    54  PRO54       0.0268
      6  CG        80.9410   15.8700   12.6330 C.3    54  PRO54       0.0207
      7  CD        80.8220   16.7650   11.4230 C.3    54  PRO54       0.0892
      8  N         83.1060    9.7080   10.1850 N.3    58  LYS58      -0.1231
      9  CA        83.1300    9.1320   11.5180 C.3    58  LYS58       0.1693
     10  C         81.8800    8.2990   11.7240 C.2    58  LYS58       0.2592
     11  O         80.8440    8.5330   11.0950 O.2    58  LYS58      -0.2718
     12  CB        83.1830   10.1970   12.6300 C.3    58  LYS58       0.0285
     13  CG        84.3920   11.1150   12.5830 C.3    58  LYS58       0.0035
     14  CD        84.4880   11.9370   13.8540 C.3    58  LYS58       0.0206
     15  CE        85.6070   12.9620   13.7330 C.3    58  LYS58       0.1093
     16  NZ        86.9200   12.2770   13.5170 N.3    58  LYS58      -0.1314
     17  N         81.9980    7.3340   12.6240 N.am   59  HIS59      -0.1962
     18  CA        80.8830    6.5220   13.0730 C.3    59  HIS59       0.1787
     19  C         80.1230    7.2340   14.1900 C.2    59  HIS59       0.2620
     20  O         80.5640    8.2500   14.7370 O.2    59  HIS59      -0.2715
     21  CB        81.3790    5.1860   13.6200 C.3    59  HIS59       0.0785
     22  CG        81.9720    4.2670   12.6020 C.ar   59  HIS59       0.0821
     23  ND1       81.2070    3.4120   11.8370 N.ar   59  HIS59      -0.2267
     24  CD2       83.2620    4.0020   12.2880 C.ar   59  HIS59       0.1154
     25  CE1       82.0000    2.6900   11.0630 C.ar   59  HIS59       0.1986
     26  NE2       83.2520    3.0160   11.3310 N.ar   59  HIS59      -0.2212
     27  N         78.9720    6.6550   14.5470 N.am   60  PHE60      -0.1960
     28  CA        78.2220    6.9150   15.7780 C.3    60  PHE60       0.1771
     29  C         77.5190    8.2640   15.8340 C.2    60  PHE60       0.2619
     30  O         77.0220    8.6350   16.9070 O.2    60  PHE60      -0.2715
     31  CB        79.1110    6.7880   17.0240 C.3    60  PHE60       0.0574
     32  CG        79.9760    5.5620   17.0240 C.ar   60  PHE60      -0.0200
     33  CD1       79.4130    4.3030   16.9270 C.ar   60  PHE60      -0.0042
     34  CD2       81.3590    5.6700   17.1000 C.ar   60  PHE60      -0.0042
     35  CE1       80.2080    3.1670   16.9330 C.ar   60  PHE60      -0.0003
     36  CE2       82.1560    4.5400   17.1030 C.ar   60  PHE60      -0.0003
     37  CZ        81.5720    3.2810   17.0180 C.ar   60  PHE60      -0.0000
     38  N         77.4210    9.0000   14.7310 N.am   61  ILE61      -0.1977
     39  CA        76.8420   10.3410   14.7600 C.3    61  ILE61       0.1596
     40  C         75.4490   10.2810   14.1440 C.2    61  ILE61       0.2287
     41  O         75.2950    9.9880   12.9540 O.2    61  ILE61      -0.2864
     42  CB        77.7320   11.3620   14.0400 C.3    61  ILE61       0.0276
     43  CG1       79.0580   11.5190   14.7930 C.3    61  ILE61       0.0022
     44  CG2       77.0100   12.6910   13.9210 C.3    61  ILE61       0.0022
     45  CD1       80.0760   12.3560   14.0600 C.3    61  ILE61       0.0001
     46  N         80.2010   23.0370   16.5940 N.3    78  ARG78      -0.1245
     47  CA        79.2480   22.0960   16.0290 C.3    78  ARG78       0.1563
     48  C         78.5370   21.3830   17.1670 C.2    78  ARG78       0.2260
     49  O         79.1230   21.1510   18.2240 O.2    78  ARG78      -0.2867
     50  CB        79.9390   21.0880   15.0930 C.3    78  ARG78       0.0307
     51  CG        80.8770   20.1120   15.7820 C.3    78  ARG78       0.0489
     52  CD        81.7530   19.3710   14.7860 C.3    78  ARG78       0.2205
     53  NE        82.6410   18.4290   15.4640 N.pl3  78  ARG78      -0.0865
     54  CZ        83.6730   17.8290   14.8830 C.cat  78  ARG78       0.5346
     55  NH1       83.9530   18.0560   13.6020 N.pl3  78  ARG78       0.1354
     56  NH2       84.4280   16.9950   15.5840 N.pl3  78  ARG78       0.1354
     57  N         76.7890   17.9280   18.0580 N.3    80  VAL80      -0.1245
     58  CA        76.6830   16.5270   17.6540 C.3    80  VAL80       0.1561
     59  C         75.6510   15.8320   18.5190 C.2    80  VAL80       0.2260
     60  O         75.6270   16.0070   19.7460 O.2    80  VAL80      -0.2867
     61  CB        78.0520   15.8280   17.7730 C.3    80  VAL80       0.0252
     62  CG1       77.9450   14.3340   17.4770 C.3    80  VAL80       0.0019
     63  CG2       79.0800   16.4870   16.8580 C.3    80  VAL80       0.0019
     64  N         74.6860   11.9410   19.3130 N.3    82  VAL82      -0.1245
     65  CA        75.2220   10.5920   19.1680 C.3    82  VAL82       0.1561
     66  C         74.0770    9.6080   18.9740 C.2    82  VAL82       0.2260
     67  O         72.9700    9.7990   19.4930 O.2    82  VAL82      -0.2867
     68  CB        76.0730   10.2440   20.4080 C.3    82  VAL82       0.0252
     69  CG1       76.6820    8.8630   20.2920 C.3    82  VAL82       0.0019
     70  CG2       77.1680   11.2900   20.5840 C.3    82  VAL82       0.0019
     71  N         75.1560    4.2730   23.3860 N.3    86  LEU86      -0.1231
     72  CA        76.5600    4.5590   23.6730 C.3    86  LEU86       0.1678
     73  C         76.6800    5.3370   24.9810 C.2    86  LEU86       0.2434
     74  O         75.6650    5.8120   25.5080 O.2    86  LEU86      -0.2733
     75  CB        77.1890    5.3350   22.5150 C.3    86  LEU86       0.0284
     76  CG        77.1910    4.5770   21.1860 C.3    86  LEU86       0.0019
     77  CD1       77.7780    5.4330   20.0990 C.3    86  LEU86       0.0001
     78  CD2       77.9660    3.2860   21.3070 C.3    86  LEU86       0.0001
     79  N         77.8930    5.4770   25.5560 N.am   87  PRO87      -0.2718
     80  CA        78.0160    6.2190   26.8190 C.3    87  PRO87       0.1535
     81  C         78.0520    7.7210   26.6120 C.2    87  PRO87       0.2598
     82  O         78.7600    8.4350   27.3270 O.2    87  PRO87      -0.2715
     83  CB        79.3380    5.7050   27.4020 C.3    87  PRO87       0.0310
     84  CG        80.1290    5.2980   26.2200 C.3    87  PRO87       0.0237
     85  CD        79.1310    4.7390   25.2400 C.3    87  PRO87       0.0939
     86  N         77.2960    8.2080   25.6320 N.am   88  ALA88      -0.1978
     87  CA        77.2750    9.6260   25.3090 C.3    88  ALA88       0.1597
     88  C         75.9940    9.9350   24.5530 C.2    88  ALA88       0.2287
     89  O         75.5150    9.1080   23.7740 O.2    88  ALA88      -0.2864
     90  CB        78.4900   10.0290   24.4700 C.3    88  ALA88       0.0319
     91  N         75.1300   13.7530   23.6550 N.3    90  THR90      -0.1203
     92  CA        75.3380   14.9720   22.8890 C.3    90  THR90       0.1994
     93  C         76.7490   15.4770   23.1310 C.2    90  THR90       0.2618
     94  O         77.3720   15.1830   24.1540 O.2    90  THR90      -0.2717
     95  CB        74.3530   16.0840   23.2780 C.3    90  THR90       0.1784
     96  OG1       74.4930   16.3760   24.6750 O.3    90  THR90      -0.2211
     97  CG2       72.9160   15.6790   22.9820 C.3    90  THR90       0.0376
     98  N         77.2390   16.2730   22.1880 N.am   91  SER91      -0.1951
     99  CA        78.5500   16.8770   22.3500 C.3    91  SER91       0.1924
    100  C         78.5920   18.1950   21.5930 C.2    91  SER91       0.2314
    101  O         78.1780   18.2620   20.4310 O.2    91  SER91      -0.2863
    102  CB        79.6440   15.9380   21.8500 C.3    91  SER91       0.2116
    103  OG        80.9170   16.4730   22.1520 O.3    91  SER91      -0.2180
    104  N         81.3040   20.9300   20.2540 N.3    93  GLU93      -0.1245
    105  CA        82.7230   20.8740   19.9410 C.3    93  GLU93       0.1567
    106  C         83.1490   22.1510   19.2330 C.2    93  GLU93       0.2260
    107  O         82.3780   22.7580   18.4860 O.2    93  GLU93      -0.2867
    108  CB        83.0450   19.6300   19.0970 C.3    93  GLU93       0.0388
    109  CG        82.7130   18.3840   19.9180 C.3    93  GLU93       0.1160
    110  CD        82.6170   17.1110   19.1280 C.2    93  GLU93       0.3649
    111  OE1       82.9060   17.1090   17.9100 O.co2  93  GLU93      -0.2457
    112  OE2       82.2410   16.1080   19.7670 O.co2  93  GLU93      -0.2457
    113  N         90.2230   19.8310   17.4530 N.3   107  PHE107     -0.1241
    114  CA        89.0000   20.3270   18.0660 C.3   107  PHE107      0.1605
    115  C         88.9880   19.9820   19.5440 C.2   107  PHE107      0.2264
    116  O         89.7490   19.1350   20.0160 O.2   107  PHE107     -0.2867
    117  CB        87.7260   19.7750   17.3860 C.3   107  PHE107      0.0534
    118  CG        87.4850   18.3010   17.6150 C.ar  107  PHE107     -0.0203
    119  CD1       86.7260   17.8650   18.6920 C.ar  107  PHE107     -0.0042
    120  CD2       87.9970   17.3610   16.7340 C.ar  107  PHE107     -0.0042
    121  CE1       86.5010   16.5040   18.9090 C.ar  107  PHE107     -0.0003
    122  CE2       87.7750   16.0030   16.9420 C.ar  107  PHE107     -0.0003
    123  CZ        87.0220   15.5780   18.0220 C.ar  107  PHE107     -0.0000
    124  N         86.1420   19.3360   22.9380 N.3   109  ILE109     -0.1245
    125  CA        84.7870   19.2130   23.4580 C.3   109  ILE109      0.1561
    126  C         84.5710   20.2970   24.5060 C.2   109  ILE109      0.2260
    127  O         85.3480   20.4160   25.4650 O.2   109  ILE109     -0.2867
    128  CB        84.5540   17.8150   24.0480 C.3   109  ILE109      0.0252
    129  CG1       84.7380   16.7520   22.9590 C.3   109  ILE109      0.0019
    130  CG2       83.1720   17.7550   24.6730 C.3   109  ILE109      0.0019
    131  CD1       84.3270   15.3250   23.3680 C.3   109  ILE109      0.0001
    132  N         78.1390   13.4570   28.1400 N.3   114  HIS114     -0.1226
    133  CA        79.1060   12.4060   27.8240 C.3   114  HIS114      0.1752
    134  C         80.0910   12.3230   28.9880 C.2   114  HIS114      0.2596
    135  O         80.0100   13.0970   29.9450 O.2   114  HIS114     -0.2718
    136  CB        79.8320   12.7230   26.5210 C.3   114  HIS114      0.0759
    137  CG        80.4140   14.0920   26.5210 C.ar  114  HIS114      0.0818
    138  ND1       81.5370   14.4150   27.2500 N.ar  114  HIS114     -0.2268
    139  CD2       79.9840   15.2440   25.9560 C.ar  114  HIS114      0.1154
    140  CE1       81.7920   15.7040   27.1090 C.ar  114  HIS114      0.1986
    141  NE2       80.8630   16.2280   26.3300 N.ar  114  HIS114     -0.2212
    142  N         81.0630   11.4130   28.8750 N.am  115  ARG115     -0.1966
    143  CA        82.0390   11.1780   29.9340 C.3   115  ARG115      0.1729
    144  C         83.4710   11.5220   29.5200 C.2   115  ARG115      0.2616
    145  O         84.4230   11.0160   30.1230 O.2   115  ARG115     -0.2715
    146  CB        81.9520    9.7230   30.4000 C.3   115  ARG115      0.0348
    147  CG        80.6160    9.3630   31.0320 C.3   115  ARG115      0.0492
    148  CD        80.5170    7.8730   31.3380 C.3   115  ARG115      0.2205
    149  NE        79.4600    7.5770   32.3020 N.pl3 115  ARG115     -0.0865
    150  CZ        79.1410    6.3520   32.7100 C.cat 115  ARG115      0.5346
    151  NH1       79.7940    5.3000   32.2310 N.pl3 115  ARG115      0.1354
    152  NH2       78.1670    6.1750   33.5950 N.pl3 115  ARG115      0.1354
    153  N         83.6530   12.3820   28.5240 N.am  116  LEU116     -0.1977
    154  CA        84.9810   12.7080   28.0030 C.3   116  LEU116      0.1596
    155  C         85.3110   14.1690   28.2860 C.2   116  LEU116      0.2287
    156  O         85.4940   14.9710   27.3630 O.2   116  LEU116     -0.2864
    157  CB        85.0610   12.4240   26.4920 C.3   116  LEU116      0.0297
    158  CG        84.8880   10.9840   26.0270 C.3   116  LEU116      0.0022
    159  CD1       85.0270   10.9210   24.5120 C.3   116  LEU116      0.0001
    160  CD2       85.9050   10.0820   26.7000 C.3   116  LEU116      0.0001
    161  N         88.2820   16.6300   26.5890 N.3   119  TYR119     -0.1241
    162  CA        88.7690   15.9560   25.3940 C.3   119  TYR119      0.1605
    163  C         89.2450   16.9670   24.3590 C.2   119  TYR119      0.2264
    164  O         88.5300   17.9170   24.0310 O.2   119  TYR119     -0.2867
    165  CB        87.6580   15.0970   24.7920 C.3   119  TYR119      0.0534
    166  CG        88.1030   14.2450   23.6160 C.ar  119  TYR119     -0.0201
    167  CD1       88.5980   12.9610   23.8200 C.ar  119  TYR119     -0.0009
    168  CD2       88.0220   14.7150   22.3000 C.ar  119  TYR119     -0.0009
    169  CE1       89.0000   12.1760   22.7680 C.ar  119  TYR119      0.0417
    170  CE2       88.4260   13.9240   21.2330 C.ar  119  TYR119      0.0417
    171  CZ        88.9170   12.6560   21.4750 C.ar  119  TYR119      0.1957
    172  OH        89.3180   11.8490   20.4350 O.3   119  TYR119     -0.2866
    173  N         96.2450   10.7350   14.4000 N.3   140  GLU140     -0.1245
    174  CA        95.2960   11.4220   15.2660 C.3   140  GLU140      0.1567
    175  C         95.6410   11.1210   16.7150 C.2   140  GLU140      0.2260
    176  O         95.8030    9.9560   17.0970 O.2   140  GLU140     -0.2867
    177  CB        93.8500   11.0110   14.9630 C.3   140  GLU140      0.0388
    178  CG        92.8380   11.8020   15.7760 C.3   140  GLU140      0.1160
    179  CD        91.4040   11.4730   15.4220 C.2   140  GLU140      0.3649
    180  OE1       91.1800   10.7290   14.4500 O.co2 140  GLU140     -0.2457
    181  OE2       90.4970   11.9680   16.1220 O.co2 140  GLU140     -0.2457
    182  N         87.7400    2.6500   25.3710 N.3   151  PHE151     -0.1227
    183  CA        86.6180    3.1650   24.5870 C.3   151  PHE151      0.1736
    184  C         87.0740    4.2310   23.5930 C.2   151  PHE151      0.2595
    185  O         86.7370    4.1710   22.4030 O.2   151  PHE151     -0.2718
    186  CB        85.5440    3.7160   25.5310 C.3   151  PHE151      0.0547
    187  CG        84.4790    4.5080   24.8380 C.ar  151  PHE151     -0.0202
    188  CD1       83.4850    3.8740   24.1120 C.ar  151  PHE151     -0.0042
    189  CD2       84.4700    5.8920   24.9120 C.ar  151  PHE151     -0.0042
    190  CE1       82.5010    4.6080   23.4630 C.ar  151  PHE151     -0.0003
    191  CE2       83.4920    6.6280   24.2720 C.ar  151  PHE151     -0.0003
    192  CZ        82.5060    5.9850   23.5450 C.ar  151  PHE151     -0.0000
    193  N         87.8410    5.2200   24.0640 N.am  152  ALA152     -0.1980
    194  CA        88.2590    6.3080   23.1830 C.3   152  ALA152      0.1597
    195  C         89.1990    5.8160   22.0910 C.2   152  ALA152      0.2287
    196  O         89.1010    6.2550   20.9400 O.2   152  ALA152     -0.2864
    197  CB        88.9260    7.4140   23.9990 C.3   152  ALA152      0.0319
    198  N         87.1060    3.9600   19.3630 N.3   155  VAL155     -0.1231
    199  CA        86.3560    4.8850   18.5080 C.3   155  VAL155      0.1692
    200  C         87.2860    5.6020   17.5370 C.2   155  VAL155      0.2591
    201  O         86.9910    5.7170   16.3420 O.2   155  VAL155     -0.2718
    202  CB        85.5540    5.8870   19.3580 C.3   155  VAL155      0.0266
    203  CG1       84.9820    7.0030   18.4510 C.3   155  VAL155      0.0020
    204  CG2       84.4470    5.1580   20.1200 C.3   155  VAL155      0.0020
    205  N         88.4120    6.1200   18.0340 N.am  156  VAL156     -0.1980
    206  CA        89.3350    6.8260   17.1460 C.3   156  VAL156      0.1595
    207  C         89.8140    5.8950   16.0430 C.2   156  VAL156      0.2287
    208  O         89.8920    6.2820   14.8670 O.2   156  VAL156     -0.2864
    209  CB        90.5120    7.4140   17.9480 C.3   156  VAL156      0.0276
    210  CG1       91.6180    7.8650   17.0050 C.3   156  VAL156      0.0022
    211  CG2       90.0270    8.5870   18.8010 C.3   156  VAL156      0.0022
    212  N         87.0230    5.3090   13.4850 N.3   159  ASN159     -0.1240
    213  CA        86.7840    6.4970   12.6730 C.3   159  ASN159      0.1653
    214  C         87.8980    6.7070   11.6630 C.2   159  ASN159      0.2266
    215  O         87.6400    7.1440   10.5370 O.2   159  ASN159     -0.2867
    216  CB        86.6350    7.7310   13.5580 C.3   159  ASN159      0.1155
    217  CG        85.3150    7.7570   14.2970 C.2   159  ASN159      0.2627
    218  OD1       84.4020    6.9940   13.9770 O.2   159  ASN159     -0.2716
    219  ND2       85.1950    8.6480   15.2810 N.am  159  ASN159     -0.0877
@<TRIPOS>BOND
     1     8     9    1
     2     1     2    1
     3     1     7    1
     4     4     3    2
     5   215   214    2
     6     3     2    1
     7     2     5    1
     8    25    26   ar
     9    25    23   ar
    10    11    10    2
    11    26    24   ar
    12     7     6    1
    13     9    10    1
    14     9    12    1
    15   214   213    1
    16    10    17   am
    17    23    22   ar
    18    24    22   ar
    19     5     6    1
    20    13    12    1
    21    13    14    1
    22    22    21    1
    23    17    18    1
    24   213   212    1
    25   213   216    1
    26    41    40    2
    27    18    21    1
    28    18    19    1
    29    16    15    1
    30   216   217    1
    31    55    54    1
    32    15    14    1
    33    44    42    1
    34   218   217    2
    35    42    39    1
    36    42    43    1
    37    45    43    1
    38    40    39    1
    39    19    27   am
    40    19    20    2
    41   217   219   am
    42   173   174    1
    43   180   179   ar
    44    27    28    1
    45    38    39    1
    46    38    29   am
    47    52    53    1
    48    52    51    1
    49   208   207    2
    50    54    53    2
    51    54    56    1
    52   177   174    1
    53   177   178    1
    54    50    51    1
    55    50    47    1
    56   174   175    1
    57   179   178    1
    58   179   181   ar
    59    28    29    1
    60    28    31    1
    61    29    30    2
    62    47    46    1
    63    47    48    1
    64   207   206    1
    65   201   200    2
    66   175   176    2
    67   120   122   ar
    68   120   118   ar
    69    63    61    1
    70    33    35   ar
    71    33    32   ar
    72    35    37   ar
    73   122   123   ar
    74   210   209    1
    75    37    36   ar
    76    31    32    1
    77    32    34   ar
    78    34    36   ar
    79   206   209    1
    80   206   205    1
    81    48    49    2
    82   117   118    1
    83   117   114    1
    84   113   114    1
    85    62    61    1
    86   200   205   am
    87   200   199    1
    88   118   119   ar
    89    58    61    1
    90    58    57    1
    91    58    59    1
    92   111   110   ar
    93   209   211    1
    94   123   121   ar
    95   114   115    1
    96   203   202    1
    97   107   106    2
    98   199   202    1
    99   199   198    1
   100    59    60    2
   101   119   121   ar
   102    66    65    1
   103    66    67    2
   104   108   109    1
   105   108   105    1
   106   110   112   ar
   107   110   109    1
   108    65    64    1
   109    65    68    1
   110   106   105    1
   111   202   204    1
   112   115   116    2
   113   105   104    1
   114    77    76    1
   115    69    68    1
   116    68    70    1
   117   101   100    2
   118   172   171    1
   119   196   195    2
   120    76    78    1
   121    76    75    1
   122   170   171   ar
   123   170   168   ar
   124   171   169   ar
   125   100    99    1
   126   102   103    1
   127   102    99    1
   128   195   194    1
   129    98    99    1
   130    98    93   am
   131   168   166   ar
   132   185   184    2
   133    75    72    1
   134   169   167   ar
   135    92    93    1
   136    92    95    1
   137    92    91    1
   138   124   125    1
   139   129   131    1
   140   129   128    1
   141    97    95    1
   142    93    94    2
   143   194   197    1
   144   194   193    1
   145    95    96    1
   146    71    72    1
   147   125   128    1
   148   125   126    1
   149   190   192   ar
   150   190   188   ar
   151   192   191   ar
   152   184   193   am
   153   184   183    1
   154   166   167   ar
   155   166   165    1
   156    72    73    1
   157    89    88    2
   158   164   163    2
   159   128   130    1
   160   188   187   ar
   161   191   189   ar
   162   163   162    1
   163    90    87    1
   164   126   127    2
   165   159   158    1
   166    88    87    1
   167   183   182    1
   168   183   186    1
   169   165   162    1
   170   187   189   ar
   171   187   186    1
   172    73    74    2
   173    73    79   am
   174    85    79    1
   175    85    84    1
   176    87    86    1
   177   162   161    1
   178    79    80    1
   179    86    81   am
   180   139   141   ar
   181   139   137   ar
   182   158   157    1
   183   158   160    1
   184    84    83    1
   185   141   140   ar
   186   157   154    1
   187   136   137    1
   188   136   133    1
   189   137   138   ar
   190    81    80    1
   191    81    82    2
   192    80    83    1
   193   140   138   ar
   194   156   155    2
   195   133   132    1
   196   133   134    1
   197   154   155    1
   198   154   153    1
   199   153   144   am
   200   142   134   am
   201   142   143    1
   202   134   135    2
   203   144   143    1
   204   144   145    2
   205   143   146    1
   206   146   147    1
   207   147   148    1
   208   148   149    1
   209   151   150    1
   210   149   150    2
   211   150   152    1
