@<TRIPOS>MOLECULE
tmp/5ur9F00.pdb
 160 146 0 0 0
SMALL
GASTEIGER

@<TRIPOS>ATOM
      1  N         60.1840    4.2890    0.8900 N.3    22  PHE22      -0.1241
      2  CA        59.7000    3.9880   -0.4450 C.3    22  PHE22       0.1605
      3  C         58.7660    2.7940   -0.4410 C.2    22  PHE22       0.2264
      4  O         57.7430    2.8010   -1.1330 O.2    22  PHE22      -0.2867
      5  CB        60.8820    3.7330   -1.3710 C.3    22  PHE22       0.0534
      6  CG        60.5130    3.6800   -2.8130 C.ar   22  PHE22      -0.0203
      7  CD1       59.6580    4.6260   -3.3540 C.ar   22  PHE22      -0.0042
      8  CD2       61.0730    2.7400   -3.6510 C.ar   22  PHE22      -0.0042
      9  CE1       59.3220    4.5980   -4.7050 C.ar   22  PHE22      -0.0003
     10  CE2       60.7520    2.7140   -5.0060 C.ar   22  PHE22      -0.0003
     11  CZ        59.8770    3.6360   -5.5290 C.ar   22  PHE22      -0.0000
     12  N         55.4130    3.8370    0.9990 N.3    25  TYR25      -0.1227
     13  CA        54.7400    4.7410    0.0730 C.3    25  TYR25       0.1736
     14  C         54.1240    3.9640   -1.0860 C.2    25  TYR25       0.2595
     15  O         52.9730    4.2070   -1.4710 O.2    25  TYR25      -0.2718
     16  CB        55.7340    5.7860   -0.4300 C.3    25  TYR25       0.0548
     17  CG        55.1970    6.7270   -1.4640 C.ar   25  TYR25      -0.0200
     18  CD1       54.3230    7.7520   -1.1120 C.ar   25  TYR25      -0.0009
     19  CD2       55.5430    6.5890   -2.8010 C.ar   25  TYR25      -0.0009
     20  CE1       53.8260    8.6350   -2.0570 C.ar   25  TYR25       0.0417
     21  CE2       55.0470    7.4740   -3.7670 C.ar   25  TYR25       0.0417
     22  CZ        54.1890    8.4900   -3.3840 C.ar   25  TYR25       0.1957
     23  OH        53.6920    9.3510   -4.3300 O.3    25  TYR25      -0.2866
     24  N         54.8810    3.0360   -1.6770 N.am   26  MET26      -0.1979
     25  CA        54.3140    2.2470   -2.7660 C.3    26  MET26       0.1605
     26  C         53.1460    1.4000   -2.2970 C.2    26  MET26       0.2287
     27  O         52.1480    1.2550   -3.0150 O.2    26  MET26      -0.2864
     28  CB        55.3760    1.3800   -3.4160 C.3    26  MET26       0.0413
     29  CG        56.2290    2.1930   -4.3510 C.3    26  MET26       0.0598
     30  SD        57.3920    1.1600   -5.2070 S.3    26  MET26      -0.1393
     31  CE        58.4720    0.6600   -3.8610 C.3    26  MET26       0.0692
     32  N         50.8180   -0.6600   -4.7790 N.3    31  VAL31      -0.1245
     33  CA        51.7240   -1.5080   -5.5470 C.3    31  VAL31       0.1561
     34  C         51.9340   -2.8150   -4.7910 C.2    31  VAL31       0.2260
     35  O         52.1560   -2.8100   -3.5730 O.2    31  VAL31      -0.2867
     36  CB        53.0530   -0.7810   -5.8170 C.3    31  VAL31       0.0252
     37  CG1       53.9740   -1.6400   -6.6620 C.3    31  VAL31       0.0019
     38  CG2       52.7910    0.5780   -6.4860 C.3    31  VAL31       0.0019
     39  N         56.1390   -6.0780   -7.4070 N.3    35  LEU35      -0.1245
     40  CA        56.4830   -4.7950   -7.9930 C.3    35  LEU35       0.1561
     41  C         57.3710   -4.0120   -7.0360 C.2    35  LEU35       0.2260
     42  O         58.5430   -3.7780   -7.3260 O.2    35  LEU35      -0.2867
     43  CB        55.2080   -4.0190   -8.3390 C.3    35  LEU35       0.0270
     44  CG        54.1290   -4.9120   -8.9710 C.3    35  LEU35       0.0019
     45  CD1       52.8920   -4.1180   -9.4120 C.3    35  LEU35       0.0001
     46  CD2       54.7110   -5.7230  -10.1290 C.3    35  LEU35       0.0001
     47  N         60.8380   -5.0550   -7.3310 N.3    38  MET38      -0.1230
     48  CA        61.4470   -4.6090   -8.5810 C.3    38  MET38       0.1702
     49  C         61.7620   -3.1090   -8.5290 C.2    38  MET38       0.2592
     50  O         62.8730   -2.6830   -8.8660 O.2    38  MET38      -0.2718
     51  CB        60.5230   -4.9840   -9.7530 C.3    38  MET38       0.0401
     52  CG        60.9970   -4.5890  -11.1610 C.3    38  MET38       0.0596
     53  SD        60.1070   -5.4380  -12.4990 S.3    38  MET38      -0.1393
     54  CE        58.4180   -4.9090  -12.2440 C.3    38  MET38       0.0692
     55  N         60.8130   -2.3080   -8.0370 N.am   39  GLY39      -0.1957
     56  CA        61.0120   -0.8710   -7.9420 C.3    39  GLY39       0.1869
     57  C         62.1200   -0.5060   -6.9740 C.2    39  GLY39       0.2309
     58  O         62.8900    0.4300   -7.2180 O.2    39  GLY39      -0.2863
     59  N         65.2410   -0.1960   -8.7450 N.3    42  ALA42      -0.1245
     60  CA        65.4650    0.8680   -9.7150 C.3    42  ALA42       0.1562
     61  C         66.3750    1.9640   -9.1580 C.2    42  ALA42       0.2260
     62  O         66.1680    2.4630   -8.0480 O.2    42  ALA42      -0.2867
     63  CB        64.1290    1.4690  -10.1540 C.3    42  ALA42       0.0290
     64  N         67.2000    5.2980  -10.6250 N.3    44  PRO44      -0.2116
     65  CA        66.8860    6.1810  -11.7590 C.3    44  PRO44       0.1372
     66  C         67.5390    7.5590  -11.6740 C.2    44  PRO44       0.2244
     67  O         67.6990    8.0940  -10.5710 O.2    44  PRO44      -0.2868
     68  CB        65.3600    6.2920  -11.6800 C.3    44  PRO44       0.0268
     69  CG        65.0860    6.1890  -10.1860 C.3    44  PRO44       0.0207
     70  CD        66.1320    5.2700   -9.6100 C.3    44  PRO44       0.0892
     71  N         66.8660   11.4630  -12.5630 N.3    46  CYS46      -0.1235
     72  CA        65.7660   12.3710  -12.8300 C.3    46  CYS46       0.1677
     73  C         66.3810   13.5690  -13.5300 C.2    46  CYS46       0.2270
     74  O         67.2050   14.2570  -12.9330 O.2    46  CYS46      -0.2867
     75  CB        65.0750   12.7840  -11.5280 C.3    46  CYS46       0.0956
     76  SG        63.7980   14.1020  -11.6450 S.3    46  CYS46      -0.0801
     77  N         62.8390   10.5230  -16.7730 N.3    59  THR59      -0.1218
     78  CA        63.3720    9.5420  -15.8610 C.3    59  THR59       0.1862
     79  C         64.1150    8.4930  -16.6510 C.2    59  THR59       0.2287
     80  O         63.5490    7.8940  -17.5690 O.2    59  THR59      -0.2866
     81  CB        62.2520    8.9210  -15.0490 C.3    59  THR59       0.1770
     82  OG1       61.5190    9.9800  -14.4400 O.3    59  THR59      -0.2211
     83  CG2       62.8110    7.9960  -13.9810 C.3    59  THR59       0.0375
     84  N         66.2520    5.0620  -16.3150 N.3    61  SER61      -0.1217
     85  CA        66.5520    3.9060  -15.4900 C.3    61  SER61       0.1889
     86  C         67.4370    2.9480  -16.2700 C.2    61  SER61       0.2288
     87  O         67.8670    3.2320  -17.3880 O.2    61  SER61      -0.2866
     88  CB        65.2520    3.2160  -15.0610 C.3    61  SER61       0.2089
     89  OG        65.4600    2.4460  -13.9070 O.3    61  SER61      -0.2183
     90  N         64.0420    1.2650  -18.4040 N.3    64  LYS64      -0.1245
     91  CA        62.9290    2.1180  -18.7690 C.3    64  LYS64       0.1561
     92  C         63.3420    3.5890  -18.8320 C.2    64  LYS64       0.2260
     93  O         64.1030    4.0710  -17.9900 O.2    64  LYS64      -0.2867
     94  CB        61.7960    1.9370  -17.7590 C.3    64  LYS64       0.0271
     95  CG        60.5340    2.7120  -18.1360 C.3    64  LYS64       0.0035
     96  CD        59.3050    1.9530  -17.6900 C.3    64  LYS64       0.0206
     97  CE        58.0410    2.6380  -18.1220 C.3    64  LYS64       0.1093
     98  NZ        56.9410    2.1270  -17.2600 N.3    64  LYS64      -0.1314
     99  N         61.2220    7.3080  -19.2300 N.3    66  THR66      -0.1218
    100  CA        59.9170    7.9510  -19.3290 C.3    66  THR66       0.1862
    101  C         60.0890    9.4520  -19.3610 C.2    66  THR66       0.2287
    102  O         61.0680   10.0010  -18.8620 O.2    66  THR66      -0.2866
    103  CB        58.9860    7.6340  -18.1510 C.3    66  THR66       0.1770
    104  OG1       59.5220    8.2550  -16.9700 O.3    66  THR66      -0.2211
    105  CG2       58.8830    6.1560  -17.9360 C.3    66  THR66       0.0375
    106  N         54.1100   15.2240   -4.6920 N.3   110  ILE110     -0.1245
    107  CA        55.5500   15.0880   -4.8180 C.3   110  ILE110      0.1561
    108  C         56.1300   16.4940   -4.8470 C.2   110  ILE110      0.2260
    109  O         55.8370   17.2680   -5.7590 O.2   110  ILE110     -0.2867
    110  CB        55.9300   14.2780   -6.0740 C.3   110  ILE110      0.0252
    111  CG1       55.3070   12.8710   -6.0040 C.3   110  ILE110      0.0019
    112  CG2       57.4510   14.1690   -6.2370 C.3   110  ILE110      0.0019
    113  CD1       55.4840   12.0520   -7.2560 C.3   110  ILE110      0.0001
    114  N         59.6620   18.6400   -4.9140 N.3   112  ARG112     -0.1245
    115  CA        61.0560   18.5530   -5.3070 C.3   112  ARG112      0.1563
    116  C         61.6920   19.8900   -4.9730 C.2   112  ARG112      0.2260
    117  O         61.2840   20.9250   -5.5100 O.2   112  ARG112     -0.2867
    118  CB        61.1870   18.2340   -6.7960 C.3   112  ARG112      0.0307
    119  CG        60.6150   16.8840   -7.2110 C.3   112  ARG112      0.0489
    120  CD        60.6830   16.7700   -8.7000 C.3   112  ARG112      0.2205
    121  NE        60.3400   15.4520   -9.1950 N.pl3 112  ARG112     -0.0865
    122  CZ        59.1330   15.0840   -9.6030 C.cat 112  ARG112      0.5346
    123  NH1       58.1160   15.9360   -9.5680 N.pl3 112  ARG112      0.1354
    124  NH2       58.9500   13.8530  -10.0480 N.pl3 112  ARG112      0.1354
    125  N         63.3550   15.0200   -2.6250 N.3   121  VAL121     -0.1245
    126  CA        62.0660   14.6990   -3.2150 C.3   121  VAL121      0.1561
    127  C         61.2380   14.0620   -2.1180 C.2   121  VAL121      0.2260
    128  O         61.5710   12.9770   -1.6240 O.2   121  VAL121     -0.2867
    129  CB        62.2050   13.7610   -4.4220 C.3   121  VAL121      0.0252
    130  CG1       60.8540   13.4270   -5.0240 C.3   121  VAL121      0.0019
    131  CG2       63.1120   14.3870   -5.4780 C.3   121  VAL121      0.0019
    132  N         57.5500   12.6320   -1.1660 N.3   123  CYS123     -0.1235
    133  CA        56.3190   12.0940   -1.7250 C.3   123  CYS123      0.1677
    134  C         55.3630   11.7680   -0.5810 C.2   123  CYS123      0.2270
    135  O         55.7140   11.0110    0.3300 O.2   123  CYS123     -0.2867
    136  CB        56.6100   10.8320   -2.5380 C.3   123  CYS123      0.0956
    137  SG        58.1090   10.8890   -3.5600 S.3   123  CYS123     -0.0801
    138  N         63.4340   10.8440   -1.1080 N.3   132  ARG132     -0.1245
    139  CA        64.4950   10.3850   -1.9930 C.3   132  ARG132      0.1563
    140  C         65.4350   11.5470   -2.2850 C.2   132  ARG132      0.2260
    141  O         64.9850   12.6550   -2.6000 O.2   132  ARG132     -0.2867
    142  CB        63.9190    9.8250   -3.2880 C.3   132  ARG132      0.0307
    143  CG        63.1910    8.5190   -3.0300 C.3   132  ARG132      0.0489
    144  CD        62.1850    8.1880   -4.0590 C.3   132  ARG132      0.2205
    145  NE        62.7660    7.6350   -5.2750 N.pl3 132  ARG132     -0.0865
    146  CZ        63.2560    6.4020   -5.3740 C.cat 132  ARG132      0.5346
    147  NH1       63.2820    5.6050   -4.3270 N.pl3 132  ARG132      0.1354
    148  NH2       63.7240    5.9530   -6.5220 N.pl3 132  ARG132      0.1354
    149  N         68.7670   13.0220   -4.3950 N.3   134  TYR134     -0.1241
    150  CA        69.5360   12.9120   -5.6260 C.3   134  TYR134      0.1605
    151  C         70.6620   13.9330   -5.5860 C.2   134  TYR134      0.2264
    152  O         70.4900   15.0350   -5.0570 O.2   134  TYR134     -0.2867
    153  CB        68.6750   13.2240   -6.8490 C.3   134  TYR134      0.0534
    154  CG        67.4490   12.3580   -7.0270 C.ar  134  TYR134     -0.0201
    155  CD1       66.3540   12.4970   -6.1850 C.ar  134  TYR134     -0.0009
    156  CD2       67.3720   11.4300   -8.0580 C.ar  134  TYR134     -0.0009
    157  CE1       65.2190   11.7190   -6.3480 C.ar  134  TYR134      0.0417
    158  CE2       66.2270   10.6430   -8.2280 C.ar  134  TYR134      0.0417
    159  CZ        65.1540   10.7940   -7.3620 C.ar  134  TYR134      0.1957
    160  OH        64.0090   10.0220   -7.5150 O.3   134  TYR134     -0.2866
@<TRIPOS>BOND
     1   101   100    1
     2   101   102    2
     3   100    99    1
     4   100   103    1
     5    92    91    1
     6    92    93    2
     7    91    90    1
     8    91    94    1
     9   103   105    1
    10   103   104    1
    11    95    94    1
    12    95    96    1
    13    97    96    1
    14    97    98    1
    15    80    79    2
    16    87    86    2
    17    77    78    1
    18    79    78    1
    19    84    85    1
    20    86    85    1
    21    78    81    1
    22    85    88    1
    23    88    89    1
    24    81    82    1
    25    81    83    1
    26    73    74    2
    27    73    72    1
    28    72    71    1
    29    72    75    1
    30    53    54    1
    31    53    52    1
    32    65    68    1
    33    65    66    1
    34    65    64    1
    35    68    69    1
    36    66    67    2
    37    76    75    1
    38    52    51    1
    39    64    70    1
    40    69    70    1
    41    63    60    1
    42    46    44    1
    43   124   122    1
    44    51    48    1
    45    60    61    1
    46    60    59    1
    47   122   123    1
    48   122   121    2
    49    45    44    1
    50   121   120    1
    51    61    62    2
    52    44    43    1
    53    50    49    2
    54   120   119    1
    55    48    49    1
    56    48    47    1
    57    49    55   am
    58    43    40    1
    59   158   156   ar
    60   158   159   ar
    61   156   154   ar
    62    55    56    1
    63    40    39    1
    64    40    41    1
    65    56    57    1
    66   160   159    1
    67   159   157   ar
    68    42    41    2
    69   113   111    1
    70    58    57    2
    71   119   118    1
    72   154   153    1
    73   154   155   ar
    74   153   150    1
    75   118   115    1
    76    37    36    1
    77   148   146    1
    78    38    36    1
    79   157   155   ar
    80   112   110    1
    81   110   111    1
    82   110   107    1
    83    36    33    1
    84   109   108    2
    85   150   151    1
    86   150   149    1
    87   151   152    2
    88    33    34    1
    89    33    32    1
    90    11    10   ar
    91    11     9   ar
    92   117   116    2
    93   131   129    1
    94   146   145    2
    95   146   147    1
    96   115   116    1
    97   115   114    1
    98   145   144    1
    99    30    29    1
   100    30    31    1
   101   130   129    1
   102    10     8   ar
   103   108   107    1
   104   107   106    1
   105    34    35    2
   106     9     7   ar
   107   129   126    1
   108    29    28    1
   109    23    22    1
   110   144   143    1
   111    21    22   ar
   112    21    19   ar
   113     8     6   ar
   114   137   136    1
   115    28    25    1
   116    22    20   ar
   117     7     6   ar
   118   142   143    1
   119   142   139    1
   120   126   125    1
   121   126   127    1
   122    27    26    2
   123     6     5    1
   124    19    17   ar
   125    25    26    1
   126    25    24    1
   127   141   140    2
   128   136   133    1
   129   140   139    1
   130   127   128    2
   131    20    18   ar
   132   139   138    1
   133   133   132    1
   134   133   134    1
   135    24    14   am
   136    15    14    2
   137    17    18   ar
   138    17    16    1
   139     5     2    1
   140     4     3    2
   141    14    13    1
   142   134   135    2
   143     2     3    1
   144     2     1    1
   145    16    13    1
   146    13    12    1
