@<TRIPOS>MOLECULE
tmp/5ur9B01.pdb
 177 163 0 0 0
SMALL
GASTEIGER

@<TRIPOS>ATOM
      1  N         67.5010  -22.8270   10.7530 N.3    18  PHE18      -0.1241
      2  CA        66.9630  -23.2640    9.4690 C.3    18  PHE18       0.1605
      3  C         68.0520  -23.8990    8.6100 C.2    18  PHE18       0.2264
      4  O         67.8060  -24.8920    7.9170 O.2    18  PHE18      -0.2867
      5  CB        66.3170  -22.0950    8.7260 C.3    18  PHE18       0.0534
      6  CG        65.4790  -22.5140    7.5450 C.ar   18  PHE18      -0.0203
      7  CD1       64.5150  -23.5140    7.6800 C.ar   18  PHE18      -0.0042
      8  CD2       65.6630  -21.9240    6.3030 C.ar   18  PHE18      -0.0042
      9  CE1       63.7410  -23.9130    6.5980 C.ar   18  PHE18      -0.0003
     10  CE2       64.9030  -22.3050    5.2070 C.ar   18  PHE18      -0.0003
     11  CZ        63.9330  -23.3030    5.3480 C.ar   18  PHE18      -0.0000
     12  N         68.6080  -27.3090    9.9510 N.3    21  TYR21      -0.1227
     13  CA        67.4770  -28.1640    9.6110 C.3    21  TYR21       0.1736
     14  C         67.5670  -28.6150    8.1560 C.2    21  TYR21       0.2595
     15  O         67.4060  -29.8030    7.8480 O.2    21  TYR21      -0.2718
     16  CB        66.1650  -27.4260    9.8950 C.3    21  TYR21       0.0548
     17  CG        64.9410  -28.1580    9.4140 C.ar   21  TYR21      -0.0200
     18  CD1       64.4810  -29.2990   10.0660 C.ar   21  TYR21      -0.0009
     19  CD2       64.2590  -27.7260    8.2920 C.ar   21  TYR21      -0.0009
     20  CE1       63.3660  -29.9750    9.6120 C.ar   21  TYR21       0.0417
     21  CE2       63.1430  -28.3940    7.8350 C.ar   21  TYR21       0.0417
     22  CZ        62.7040  -29.5180    8.4880 C.ar   21  TYR21       0.1957
     23  OH        61.5920  -30.1730    8.0170 O.3    21  TYR21      -0.2866
     24  N         67.8470  -27.6780    7.2400 N.am   22  MET22      -0.1979
     25  CA        67.9620  -28.0500    5.8330 C.3    22  MET22       0.1605
     26  C         69.1120  -29.0260    5.6120 C.2    22  MET22       0.2287
     27  O         68.9960  -29.9630    4.8140 O.2    22  MET22      -0.2864
     28  CB        68.1240  -26.8140    4.9570 C.3    22  MET22       0.0413
     29  CG        66.8440  -26.0130    4.7750 C.3    22  MET22       0.0598
     30  SD        67.0650  -24.7230    3.5320 S.3    22  MET22      -0.1393
     31  CE        68.2920  -23.6920    4.3460 C.3    22  MET22       0.0692
     32  N         67.9080  -32.3200    6.4200 N.3    25  LEU25      -0.1245
     33  CA        67.0300  -32.8590    5.3810 C.3    25  LEU25       0.1561
     34  C         67.7830  -33.4560    4.2020 C.2    25  LEU25       0.2260
     35  O         67.1930  -34.2360    3.4400 O.2    25  LEU25      -0.2867
     36  CB        66.1120  -31.7600    4.8410 C.3    25  LEU25       0.0270
     37  CG        64.9900  -31.2350    5.7300 C.3    25  LEU25       0.0019
     38  CD1       64.4090  -29.9810    5.1070 C.3    25  LEU25       0.0001
     39  CD2       63.9090  -32.2930    5.8630 C.3    25  LEU25       0.0001
     40  N         69.6240  -31.2460    2.1250 N.3    27  VAL27      -0.1245
     41  CA        69.6540  -30.1800    1.1250 C.3    27  VAL27       0.1561
     42  C         71.0840  -29.7150    0.8860 C.2    27  VAL27       0.2260
     43  O         71.8400  -29.4710    1.8320 O.2    27  VAL27      -0.2867
     44  CB        68.7720  -28.9990    1.5690 C.3    27  VAL27       0.0252
     45  CG1       68.8390  -27.8920    0.5350 C.3    27  VAL27       0.0019
     46  CG2       67.3470  -29.4570    1.7720 C.3    27  VAL27       0.0019
     47  N         71.1650  -24.7190   -2.4000 N.3    31  LEU31      -0.1245
     48  CA        69.7690  -24.5910   -2.0000 C.3    31  LEU31       0.1561
     49  C         69.6350  -24.0690   -0.5760 C.2    31  LEU31       0.2260
     50  O         68.6700  -23.3610   -0.2710 O.2    31  LEU31      -0.2867
     51  CB        69.0470  -25.9320   -2.1310 C.3    31  LEU31       0.0270
     52  CG        67.5420  -25.7470   -2.0030 C.3    31  LEU31       0.0019
     53  CD1       67.1220  -24.6790   -2.9760 C.3    31  LEU31       0.0001
     54  CD2       66.7760  -27.0360   -2.2320 C.3    31  LEU31       0.0001
     55  N         70.1920  -20.3090   -0.7240 N.3    34  MET34      -0.1230
     56  CA        68.9890  -19.6840   -1.2480 C.3    34  MET34       0.1702
     57  C         67.8720  -19.6840   -0.2130 C.2    34  MET34       0.2592
     58  O         67.1370  -18.6990   -0.0830 O.2    34  MET34      -0.2718
     59  CB        68.5310  -20.3800   -2.5110 C.3    34  MET34       0.0401
     60  CG        67.3430  -19.7050   -3.1040 C.3    34  MET34       0.0596
     61  SD        67.1810  -20.4210   -4.7330 S.3    34  MET34      -0.1393
     62  CE        66.9170  -22.0990   -4.2470 C.3    34  MET34       0.0692
     63  N         67.6970  -20.7910    0.5090 N.am   35  GLY35      -0.1957
     64  CA        66.6160  -20.8460    1.4760 C.3    35  GLY35       0.1869
     65  C         66.8010  -19.8540    2.6090 C.2    35  GLY35       0.2309
     66  O         65.8710  -19.1270    2.9640 O.2    35  GLY35      -0.2863
     67  N         66.2010  -16.2330    1.0850 N.3    38  ALA38      -0.1245
     68  CA        64.8520  -15.8470    0.6910 C.3    38  ALA38       0.1562
     69  C         64.0480  -15.5480    1.9480 C.2    38  ALA38       0.2260
     70  O         64.3830  -15.9910    3.0480 O.2    38  ALA38      -0.2867
     71  CB        64.1720  -16.9300   -0.1450 C.3    38  ALA38       0.0290
     72  N         60.3930  -15.8630    2.3320 N.3    40  PRO40      -0.2116
     73  CA        59.0950  -16.1420    1.7180 C.3    40  PRO40       0.1372
     74  C         57.9600  -15.8820    2.6790 C.2    40  PRO40       0.2244
     75  O         58.0100  -16.2760    3.8450 O.2    40  PRO40      -0.2868
     76  CB        59.1880  -17.6250    1.3420 C.3    40  PRO40       0.0268
     77  CG        60.1550  -18.2050    2.3230 C.3    40  PRO40       0.0207
     78  CD        61.1460  -17.0870    2.6550 C.3    40  PRO40       0.0892
     79  N         54.2030  -16.9120    3.7620 N.3    42  CYS42      -0.1235
     80  CA        53.4200  -18.1330    3.8690 C.3    42  CYS42       0.1677
     81  C         51.9400  -17.7730    3.8690 C.2    42  CYS42       0.2270
     82  O         51.4920  -17.0180    4.7310 O.2    42  CYS42      -0.2867
     83  CB        53.8070  -18.8910    5.1480 C.3    42  CYS42       0.0956
     84  SG        52.7540  -20.2920    5.4430 S.3    42  CYS42      -0.0801
     85  N         53.8780  -21.0120   -0.3790 N.3    55  THR55      -0.1218
     86  CA        55.1220  -20.3540   -0.0090 C.3    55  THR55       0.1862
     87  C         55.5500  -19.4750   -1.1820 C.2    55  THR55       0.2287
     88  O         55.7920  -19.9920   -2.2830 O.2    55  THR55      -0.2866
     89  CB        56.1900  -21.3980    0.2990 C.3    55  THR55       0.1770
     90  OG1       55.6520  -22.3680    1.2070 O.3    55  THR55      -0.2211
     91  CG2       57.4180  -20.7450    0.9260 C.3    55  THR55       0.0375
     92  N         58.1830  -31.7020   -2.0650 N.3    76  THR76      -0.1203
     93  CA        58.7300  -30.5850   -1.3230 C.3    76  THR76       0.1994
     94  C         59.6240  -29.7150   -2.2040 C.2    76  THR76       0.2618
     95  O         60.0770  -30.1180   -3.2780 O.2    76  THR76      -0.2717
     96  CB        59.5170  -31.0900   -0.1260 C.3    76  THR76       0.1784
     97  OG1       60.6790  -31.7790   -0.6060 O.3    76  THR76      -0.2211
     98  CG2       58.6360  -32.0230    0.7120 C.3    76  THR76       0.0376
     99  N         59.8850  -28.5030   -1.7090 N.am   77  ALA77      -0.1965
    100  CA        60.6600  -27.5230   -2.4650 C.3    77  ALA77       0.1728
    101  C         62.0650  -28.0300   -2.7610 C.2    77  ALA77       0.2616
    102  O         62.6310  -27.7070   -3.8090 O.2    77  ALA77      -0.2715
    103  CB        60.7150  -26.2030   -1.6980 C.3    77  ALA77       0.0334
    104  N         62.6240  -28.8470   -1.8790 N.am   78  ASP78      -0.1971
    105  CA        63.9590  -29.3950   -2.0690 C.3    78  ASP78       0.1709
    106  C         63.9620  -30.6940   -2.8780 C.2    78  ASP78       0.2293
    107  O         65.0310  -31.2790   -3.0890 O.2    78  ASP78      -0.2864
    108  CB        64.6230  -29.6320   -0.7020 C.3    78  ASP78       0.1436
    109  CG        63.7890  -30.5380    0.2130 C.2    78  ASP78       0.3671
    110  OD1       62.5730  -30.3030    0.3440 O.co2  78  ASP78      -0.2456
    111  OD2       64.3470  -31.4760    0.8220 O.co2  78  ASP78      -0.2456
    112  N         62.0700  -33.7090   -2.1950 N.3    80  ARG80      -0.1245
    113  CA        61.6660  -34.9740   -1.6010 C.3    80  ARG80       0.1563
    114  C         60.2430  -35.3170   -2.0230 C.2    80  ARG80       0.2260
    115  O         59.4370  -34.4320   -2.3260 O.2    80  ARG80      -0.2867
    116  CB        61.7670  -34.9120   -0.0790 C.3    80  ARG80       0.0307
    117  CG        63.1990  -34.9270    0.4380 C.3    80  ARG80       0.0489
    118  CD        63.2740  -34.5150    1.9080 C.3    80  ARG80       0.2205
    119  NE        62.8250  -33.1390    2.0790 N.pl3  80  ARG80      -0.0865
    120  CZ        61.8480  -32.7560    2.8970 C.cat  80  ARG80       0.5346
    121  NH1       61.2080  -33.6410    3.6670 N.pl3  80  ARG80       0.1354
    122  NH2       61.5300  -31.4770    2.9770 N.pl3  80  ARG80       0.1354
    123  N         56.6400  -30.4260   11.0290 N.3   106  ILE106     -0.1245
    124  CA        56.5360  -28.9760   11.0060 C.3   106  ILE106      0.1561
    125  C         55.2880  -28.6060   11.7940 C.2   106  ILE106      0.2260
    126  O         54.1740  -28.9710   11.4050 O.2   106  ILE106     -0.2867
    127  CB        56.4380  -28.4470    9.5690 C.3   106  ILE106      0.0252
    128  CG1       57.6110  -28.9440    8.7270 C.3   106  ILE106      0.0019
    129  CG2       56.4140  -26.9330    9.5780 C.3   106  ILE106      0.0019
    130  CD1       57.4680  -28.6160    7.2460 C.3   106  ILE106      0.0001
    131  N         52.8930  -25.5290   13.3250 N.3   108  ARG108     -0.1245
    132  CA        52.5470  -24.1180   13.1680 C.3   108  ARG108      0.1563
    133  C         51.4790  -23.7460   14.1800 C.2   108  ARG108      0.2260
    134  O         50.3960  -24.3440   14.1840 O.2   108  ARG108     -0.2867
    135  CB        52.0390  -23.8290   11.7540 C.3   108  ARG108      0.0307
    136  CG        53.0310  -24.1530   10.6660 C.3   108  ARG108      0.0489
    137  CD        52.4020  -23.9430    9.3380 C.3   108  ARG108      0.2205
    138  NE        53.3220  -24.1350    8.2310 N.pl3 108  ARG108     -0.0865
    139  CZ        53.4480  -25.2750    7.5650 C.cat 108  ARG108      0.5346
    140  NH1       52.7180  -26.3290    7.9040 N.pl3 108  ARG108      0.1354
    141  NH2       54.2980  -25.3530    6.5520 N.pl3 108  ARG108      0.1354
    142  N         56.5720  -21.2920   13.7420 N.3   117  VAL117     -0.1245
    143  CA        56.7770  -22.4590   12.8910 C.3   117  VAL117      0.1561
    144  C         58.0040  -23.2180   13.3910 C.2   117  VAL117      0.2260
    145  O         59.1190  -22.6890   13.3710 O.2   117  VAL117     -0.2867
    146  CB        56.9430  -22.0470   11.4190 C.3   117  VAL117      0.0252
    147  CG1       57.1740  -23.2510   10.5500 C.3   117  VAL117      0.0019
    148  CG2       55.7090  -21.2820   10.9360 C.3   117  VAL117      0.0019
    149  N         60.3090  -26.6020   12.8990 N.3   119  CYS119     -0.1235
    150  CA        60.6480  -27.7200   12.0300 C.3   119  CYS119      0.1677
    151  C         61.6560  -28.6060   12.7390 C.2   119  CYS119      0.2270
    152  O         62.7060  -28.1260   13.1760 O.2   119  CYS119     -0.2867
    153  CB        61.2090  -27.2510   10.6870 C.3   119  CYS119      0.0956
    154  SG        60.2900  -25.9220    9.9360 S.3   119  CYS119     -0.0801
    155  N         60.9610  -20.5610   13.1520 N.3   128  ARG128     -0.1245
    156  CA        60.7750  -19.4220   12.2660 C.3   128  ARG128      0.1563
    157  C         59.4890  -18.7180   12.6540 C.2   128  ARG128      0.2260
    158  O         58.4570  -19.3640   12.8490 O.2   128  ARG128     -0.2867
    159  CB        60.7470  -19.8710   10.8000 C.3   128  ARG128      0.0307
    160  CG        62.1470  -20.2770   10.2880 C.3   128  ARG128      0.0489
    161  CD        62.0910  -21.2610    9.1420 C.3   128  ARG128      0.2205
    162  NE        61.6990  -20.6670    7.8670 N.pl3 128  ARG128     -0.0865
    163  CZ        62.4780  -19.8950    7.1080 C.cat 128  ARG128      0.5346
    164  NH1       63.7210  -19.5760    7.4870 N.pl3 128  ARG128      0.1354
    165  NH2       62.0010  -19.4260    5.9590 N.pl3 128  ARG128      0.1354
    166  N         56.6460  -15.6380   11.9420 N.3   130  TYR130     -0.1241
    167  CA        55.9850  -14.8220   10.9340 C.3   130  TYR130      0.1605
    168  C         54.9980  -13.8550   11.5780 C.2   130  TYR130      0.2264
    169  O         54.3400  -14.1960   12.5690 O.2   130  TYR130     -0.2867
    170  CB        55.2130  -15.6870    9.9320 C.3   130  TYR130      0.0534
    171  CG        56.0320  -16.6260    9.0830 C.ar  130  TYR130     -0.0201
    172  CD1       56.6240  -17.7670    9.6210 C.ar  130  TYR130     -0.0009
    173  CD2       56.1630  -16.3930    7.7200 C.ar  130  TYR130     -0.0009
    174  CE1       57.3520  -18.6350    8.8180 C.ar  130  TYR130      0.0417
    175  CE2       56.8880  -17.2430    6.9070 C.ar  130  TYR130      0.0417
    176  CZ        57.4820  -18.3620    7.4590 C.ar  130  TYR130      0.1957
    177  OH        58.1960  -19.1940    6.6330 O.3   130  TYR130     -0.2866
@<TRIPOS>BOND
     1    61    62    1
     2    61    60    1
     3   102   101    2
     4    95    94    2
     5    60    59    1
     6   107   106    2
     7    53    52    1
     8   106   105    1
     9   101   100    1
    10   101   104   am
    11    59    56    1
    12   100    99    1
    13   100   103    1
    14    47    48    1
    15   115   114    2
    16    88    87    2
    17    54    52    1
    18    94    99   am
    19    94    93    1
    20   112   113    1
    21    51    52    1
    22    51    48    1
    23   105   104    1
    24   105   108    1
    25    92    93    1
    26   114   113    1
    27    48    49    1
    28   113   116    1
    29    93    96    1
    30    56    55    1
    31    56    57    1
    32    87    86    1
    33   108   109    1
    34    97    96    1
    35    49    50    2
    36    85    86    1
    37    57    58    2
    38    57    63   am
    39    71    68    1
    40    96    98    1
    41   116   117    1
    42    86    89    1
    43   109   110   ar
    44   109   111   ar
    45    89    91    1
    46    89    90    1
    47   117   118    1
    48    63    64    1
    49    45    44    1
    50    68    67    1
    51    68    69    1
    52    42    41    1
    53    42    43    2
    54    41    44    1
    55    41    40    1
    56    76    73    1
    57    76    77    1
    58    64    65    1
    59    44    46    1
    60    73    72    1
    61    73    74    1
    62   118   119    1
    63    69    70    2
    64   119   120    2
    65    77    78    1
    66    72    78    1
    67    65    66    2
    68    74    75    2
    69   120   122    1
    70   120   121    1
    71    35    34    2
    72    30    31    1
    73    30    29    1
    74    79    80    1
    75    80    81    1
    76    80    83    1
    77    81    82    2
    78    34    33    1
    79    29    28    1
    80    27    26    2
    81    36    33    1
    82    36    37    1
    83    28    25    1
    84    38    37    1
    85    83    84    1
    86    10    11   ar
    87    10     8   ar
    88    11     9   ar
    89    33    32    1
    90    26    25    1
    91    37    39    1
    92    25    24    1
    93   165   163    1
    94     8     6   ar
    95   141   139    1
    96     9     7   ar
    97   177   176    1
    98   175   176   ar
    99   175   173   ar
   100   163   164    1
   101   163   162    2
   102    24    14   am
   103   130   128    1
   104   176   174   ar
   105     6     7   ar
   106     6     5    1
   107   139   140    1
   108   139   138    2
   109   173   171   ar
   110    21    19   ar
   111    21    22   ar
   112    15    14    2
   113   162   161    1
   114     4     3    2
   115    23    22    1
   116    14    13    1
   117   138   137    1
   118    19    17   ar
   119    22    20   ar
   120     3     2    1
   121     5     2    1
   122   128   127    1
   123   174   172   ar
   124   171   172   ar
   125   171   170    1
   126   161   160    1
   127   137   136    1
   128    17    16    1
   129    17    18   ar
   130     2     1    1
   131   127   129    1
   132   127   124    1
   133    13    16    1
   134    13    12    1
   135    20    18   ar
   136   170   167    1
   137   154   153    1
   138   160   159    1
   139   147   146    1
   140   136   135    1
   141   153   150    1
   142   159   156    1
   143   167   168    1
   144   167   166    1
   145   148   146    1
   146   124   123    1
   147   124   125    1
   148   126   125    2
   149   146   143    1
   150   168   169    2
   151   135   132    1
   152   150   151    1
   153   150   149    1
   154   156   157    1
   155   156   155    1
   156   157   158    2
   157   151   152    2
   158   143   144    1
   159   143   142    1
   160   132   131    1
   161   132   133    1
   162   145   144    2
   163   133   134    2
