@<TRIPOS>MOLECULE
tmp/5uraB00.pdb
 228 211 0 0 0
SMALL
GASTEIGER

@<TRIPOS>ATOM
      1  N         17.7410    0.6390   45.4330 N.3    20  PHE20      -0.1241
      2  CA        18.6740   -0.2060   44.6980 C.3    20  PHE20       0.1605
      3  C         18.7370   -1.6120   45.2800 C.2    20  PHE20       0.2264
      4  O         18.9030   -2.5820   44.5330 O.2    20  PHE20      -0.2867
      5  CB        20.0610    0.4400   44.6920 C.3    20  PHE20       0.0534
      6  CG        21.0270   -0.1960   43.7290 C.ar   20  PHE20      -0.0203
      7  CD1       20.7000   -0.3390   42.3900 C.ar   20  PHE20      -0.0042
      8  CD2       22.2780   -0.6210   44.1580 C.ar   20  PHE20      -0.0042
      9  CE1       21.5910   -0.9150   41.5000 C.ar   20  PHE20      -0.0003
     10  CE2       23.1740   -1.1940   43.2720 C.ar   20  PHE20      -0.0003
     11  CZ        22.8320   -1.3390   41.9430 C.ar   20  PHE20      -0.0000
     12  N         15.8880   -3.4900   43.8080 N.3    23  TYR23      -0.1227
     13  CA        16.1750   -3.7630   42.4030 C.3    23  TYR23       0.1736
     14  C         17.1180   -4.9510   42.2590 C.2    23  TYR23       0.2595
     15  O         16.8580   -5.8760   41.4810 O.2    23  TYR23      -0.2718
     16  CB        16.7610   -2.5120   41.7430 C.3    23  TYR23       0.0548
     17  CG        17.3190   -2.7480   40.3580 C.ar   23  TYR23      -0.0200
     18  CD1       16.4860   -2.8160   39.2520 C.ar   23  TYR23      -0.0009
     19  CD2       18.6850   -2.8800   40.1570 C.ar   23  TYR23      -0.0009
     20  CE1       16.9970   -3.0280   37.9870 C.ar   23  TYR23       0.0417
     21  CE2       19.2050   -3.0900   38.8980 C.ar   23  TYR23       0.0417
     22  CZ        18.3600   -3.1620   37.8180 C.ar   23  TYR23       0.1957
     23  OH        18.8800   -3.3720   36.5650 O.3    23  TYR23      -0.2866
     24  N         18.2250   -4.9450   43.0040 N.am   24  MET24      -0.1979
     25  CA        19.1570   -6.0660   42.9490 C.3    24  MET24       0.1605
     26  C         18.4770   -7.3610   43.3640 C.2    24  MET24       0.2287
     27  O         18.6830   -8.4090   42.7400 O.2    24  MET24      -0.2864
     28  CB        20.3540   -5.7970   43.8550 C.3    24  MET24       0.0413
     29  CG        21.3130   -4.7550   43.3260 C.3    24  MET24       0.0598
     30  SD        22.7750   -4.6190   44.3660 S.3    24  MET24      -0.1393
     31  CE        22.0710   -3.8830   45.8360 C.3    24  MET24       0.0692
     32  N         16.5150   -8.7570   40.6420 N.3    27  LEU27      -0.1245
     33  CA        17.3840   -9.3660   39.6390 C.3    27  LEU27       0.1561
     34  C         17.8760  -10.7460   40.0460 C.2    27  LEU27       0.2260
     35  O         18.3830  -11.4840   39.1940 O.2    27  LEU27      -0.2867
     36  CB        18.6090   -8.4870   39.3800 C.3    27  LEU27       0.0270
     37  CG        18.4800   -7.2050   38.5630 C.3    27  LEU27       0.0019
     38  CD1       19.8400   -6.5420   38.4640 C.3    27  LEU27       0.0001
     39  CD2       17.9430   -7.4790   37.1760 C.3    27  LEU27       0.0001
     40  N         20.0690  -11.1040   42.8830 N.3    29  VAL29      -0.1245
     41  CA        21.3400  -10.9510   43.5840 C.3    29  VAL29       0.1561
     42  C         21.1680  -11.3820   45.0350 C.2    29  VAL29       0.2260
     43  O         20.2010  -10.9940   45.7020 O.2    29  VAL29      -0.2867
     44  CB        21.8390   -9.5010   43.4890 C.3    29  VAL29       0.0252
     45  CG1       23.2150   -9.3590   44.1440 C.3    29  VAL29       0.0019
     46  CG2       21.8840   -9.0550   42.0350 C.3    29  VAL29       0.0019
     47  N         26.3400  -10.1540   48.1880 N.3    33  THR33      -0.1218
     48  CA        26.6660   -9.3280   47.0310 C.3    33  THR33       0.1862
     49  C         25.8170   -8.0630   47.0040 C.2    33  THR33       0.2287
     50  O         26.3100   -6.9830   46.6540 O.2    33  THR33      -0.2866
     51  CB        26.4840  -10.1330   45.7460 C.3    33  THR33       0.1770
     52  OG1       27.3300  -11.2860   45.7870 O.3    33  THR33      -0.2211
     53  CG2       26.8470   -9.2980   44.5370 C.3    33  THR33       0.0375
     54  N         26.9540   -4.1170   46.7620 N.3    37  GLY37      -0.1225
     55  CA        26.3670   -3.1210   45.8790 C.3    37  GLY37       0.1811
     56  C         25.8170   -1.9170   46.6190 C.2    37  GLY37       0.2280
     57  O         25.8610   -0.7930   46.1080 O.2    37  GLY37      -0.2866
     58  N         29.2430    0.1040   48.2280 N.3    40  THR40      -0.1218
     59  CA        30.3990    0.4960   47.4300 C.3    40  THR40       0.1862
     60  C         30.1670    1.8360   46.7380 C.2    40  THR40       0.2287
     61  O         29.0950    2.0950   46.1860 O.2    40  THR40      -0.2866
     62  CB        30.7260   -0.5810   46.3960 C.3    40  THR40       0.1770
     63  OG1       30.9560   -1.8300   47.0620 O.3    40  THR40      -0.2211
     64  CG2       31.9880   -0.2050   45.6210 C.3    40  THR40       0.0375
     65  N         31.3370    3.9690   43.6660 N.3    42  PRO42      -0.2116
     66  CA        32.0940    3.8780   42.4150 C.3    42  PRO42       0.1372
     67  C         32.4990    5.2380   41.8720 C.2    42  PRO42       0.2244
     68  O         31.8600    6.2600   42.1260 O.2    42  PRO42      -0.2868
     69  CB        31.0830    3.2130   41.4730 C.3    42  PRO42       0.0268
     70  CG        29.7880    3.8340   41.9170 C.3    42  PRO42       0.0207
     71  CD        29.8830    3.9330   43.4200 C.3    42  PRO42       0.0892
     72  N         32.8010    6.7010   38.1140 N.3    44  VAL44      -0.1245
     73  CA        32.3190    6.3370   36.7860 C.3    44  VAL44       0.1561
     74  C         32.8170    7.3750   35.7910 C.2    44  VAL44       0.2260
     75  O         32.4470    8.5470   35.8740 O.2    44  VAL44      -0.2867
     76  CB        30.7840    6.2450   36.7440 C.3    44  VAL44       0.0252
     77  CG1       30.3070    5.8060   35.3680 C.3    44  VAL44       0.0019
     78  CG2       30.2760    5.2900   37.8080 C.3    44  VAL44       0.0019
     79  N         34.4330    2.0080   35.2080 N.3    57  THR57      -0.1218
     80  CA        33.9760    2.1130   36.5870 C.3    57  THR57       0.1862
     81  C         35.0630    1.5720   37.5050 C.2    57  THR57       0.2287
     82  O         35.5400    0.4490   37.3180 O.2    57  THR57      -0.2866
     83  CB        32.6550    1.3650   36.7930 C.3    57  THR57       0.1770
     84  OG1       31.6860    1.8290   35.8400 O.3    57  THR57      -0.2211
     85  CG2       32.1120    1.6140   38.1860 C.3    57  THR57       0.0375
     86  N         36.3690    0.9160   41.5350 N.3    59  SER59      -0.1217
     87  CA        35.9950    0.7720   42.9360 C.3    59  SER59       0.1889
     88  C         36.9530   -0.2050   43.5990 C.2    59  SER59       0.2288
     89  O         37.7230   -0.9020   42.9350 O.2    59  SER59      -0.2866
     90  CB        34.5510    0.2880   43.0940 C.3    59  SER59       0.2089
     91  OG        34.4660   -1.1120   42.8940 O.3    59  SER59      -0.2183
     92  N         35.8440   -2.8010   45.2830 N.3    61  PHE61      -0.1227
     93  CA        35.2810   -4.1230   45.0080 C.3    61  PHE61       0.1736
     94  C         35.8210   -4.6860   43.6990 C.2    61  PHE61       0.2595
     95  O         36.3440   -5.8060   43.6610 O.2    61  PHE61      -0.2718
     96  CB        33.7530   -4.0450   44.9810 C.3    61  PHE61       0.0547
     97  CG        33.0790   -5.3430   44.6110 C.ar   61  PHE61      -0.0202
     98  CD1       33.4710   -6.5400   45.1930 C.ar   61  PHE61      -0.0042
     99  CD2       32.0360   -5.3600   43.6940 C.ar   61  PHE61      -0.0042
    100  CE1       32.8470   -7.7300   44.8550 C.ar   61  PHE61      -0.0003
    101  CE2       31.4070   -6.5450   43.3560 C.ar   61  PHE61      -0.0003
    102  CZ        31.8130   -7.7330   43.9360 C.ar   61  PHE61      -0.0000
    103  N         35.7020   -3.9250   42.6130 N.am   62  LYS62      -0.1980
    104  CA        36.2620   -4.3250   41.3290 C.3    62  LYS62       0.1596
    105  C         36.1270   -3.1690   40.3500 C.2    62  LYS62       0.2287
    106  O         35.3740   -2.2190   40.5820 O.2    62  LYS62      -0.2864
    107  CB        35.5780   -5.5760   40.7670 C.3    62  LYS62       0.0298
    108  CG        34.1190   -5.3900   40.4120 C.3    62  LYS62       0.0038
    109  CD        33.5520   -6.6320   39.7320 C.3    62  LYS62       0.0206
    110  CE        33.5230   -7.8350   40.6650 C.3    62  LYS62       0.1093
    111  NZ        32.7700   -8.9810   40.0810 N.3    62  LYS62      -0.1314
    112  N         35.3350   -2.2080   36.2130 N.3    64  THR64      -0.1218
    113  CA        34.7090   -2.6630   34.9810 C.3    64  THR64       0.1862
    114  C         34.9990   -1.6640   33.8730 C.2    64  THR64       0.2287
    115  O         35.2740   -0.4920   34.1260 O.2    64  THR64      -0.2866
    116  CB        33.1880   -2.8260   35.1290 C.3    64  THR64       0.1770
    117  OG1       32.6010   -1.5570   35.4440 O.3    64  THR64      -0.2211
    118  CG2       32.8510   -3.8330   36.2250 C.3    64  THR64       0.0375
    119  N         28.5670   -8.1500   27.6110 N.3    76  GLU76      -0.1245
    120  CA        28.8940   -7.4110   28.8220 C.3    76  GLU76       0.1567
    121  C         28.8810   -8.3540   30.0140 C.2    76  GLU76       0.2260
    122  O         27.9260   -9.1110   30.1950 O.2    76  GLU76      -0.2867
    123  CB        27.9030   -6.2600   29.0450 C.3    76  GLU76       0.0388
    124  CG        28.1220   -5.5030   30.3470 C.3    76  GLU76       0.1160
    125  CD        27.1360   -4.3680   30.5440 C.2    76  GLU76       0.3649
    126  OE1       27.4260   -3.4750   31.3660 O.co2  76  GLU76      -0.2457
    127  OE2       26.0770   -4.3610   29.8780 O.co2  76  GLU76      -0.2457
    128  N         28.6740   -7.9990   33.8800 N.3    78  THR78      -0.1203
    129  CA        28.3550   -6.9590   34.8410 C.3    78  THR78       0.1994
    130  C         29.1330   -7.1590   36.1390 C.2    78  THR78       0.2618
    131  O         29.7360   -8.2060   36.3880 O.2    78  THR78      -0.2717
    132  CB        26.8560   -6.9450   35.1300 C.3    78  THR78       0.1784
    133  OG1       26.4780   -8.1820   35.7460 O.3    78  THR78      -0.2211
    134  CG2       26.0680   -6.7610   33.8390 C.3    78  THR78       0.0376
    135  N         29.0940   -6.1290   36.9860 N.am   79  ALA79      -0.1965
    136  CA        29.7740   -6.1990   38.2740 C.3    79  ALA79       0.1728
    137  C         29.2580   -7.3550   39.1200 C.2    79  ALA79       0.2616
    138  O         30.0020   -7.8940   39.9470 O.2    79  ALA79      -0.2715
    139  CB        29.6160   -4.8750   39.0210 C.3    79  ALA79       0.0334
    140  N         27.9880   -7.7370   38.9510 N.am   80  ASP80      -0.1971
    141  CA        27.4120   -8.8650   39.6700 C.3    80  ASP80       0.1709
    142  C         27.4860  -10.1650   38.8730 C.2    80  ASP80       0.2293
    143  O         26.7860  -11.1280   39.2060 O.2    80  ASP80      -0.2864
    144  CB        25.9600   -8.5690   40.0520 C.3    80  ASP80       0.1436
    145  CG        25.0650   -8.3400   38.8470 C.2    80  ASP80       0.3671
    146  OD1       25.4670   -7.6020   37.9250 O.co2  80  ASP80      -0.2456
    147  OD2       23.9500   -8.9020   38.8260 O.co2  80  ASP80      -0.2456
    148  N         26.6070  -11.0810   35.7820 N.3    82  ARG82      -0.1245
    149  CA        25.6700  -11.4560   34.7340 C.3    82  ARG82       0.1563
    150  C         26.3670  -11.3110   33.3890 C.2    82  ARG82       0.2260
    151  O         27.0310  -10.3030   33.1290 O.2    82  ARG82      -0.2867
    152  CB        24.4070  -10.5960   34.7800 C.3    82  ARG82       0.0307
    153  CG        23.4550  -10.9650   35.9070 C.3    82  ARG82       0.0489
    154  CD        22.3040   -9.9830   36.0070 C.3    82  ARG82       0.2205
    155  NE        22.7580   -8.6620   36.4370 N.pl3  82  ARG82      -0.0865
    156  CZ        22.6020   -7.5320   35.7480 C.cat  82  ARG82       0.5346
    157  NH1       21.9830   -7.5200   34.5710 N.pl3  82  ARG82       0.1354
    158  NH2       23.0690   -6.3970   36.2440 N.pl3  82  ARG82       0.1354
    159  N         20.0270   -4.6540   28.9800 N.3    99  GLN99      -0.1245
    160  CA        20.7900   -5.8670   29.2450 C.3    99  GLN99       0.1566
    161  C         19.8590   -7.0660   29.1860 C.2    99  GLN99       0.2260
    162  O         18.8420   -7.0950   29.8870 O.2    99  GLN99      -0.2867
    163  CB        21.4460   -5.8170   30.6260 C.3    99  GLN99       0.0367
    164  CG        22.5240   -4.7680   30.7860 C.3    99  GLN99       0.0905
    165  CD        23.0620   -4.7100   32.2010 C.2    99  GLN99       0.2608
    166  OE1       22.3860   -5.1110   33.1510 O.2    99  GLN99      -0.2717
    167  NE2       24.2940   -4.2320   32.3480 N.am   99  GLN99      -0.0878
    168  N         18.3340    0.5370   32.1190 N.3   108  PHE108     -0.1241
    169  CA        18.4810    1.7490   32.8980 C.3   108  PHE108      0.1605
    170  C         18.7590    2.9100   31.9630 C.2   108  PHE108      0.2264
    171  O         19.4070    2.7640   30.9230 O.2   108  PHE108     -0.2867
    172  CB        19.5760    1.6390   33.9690 C.3   108  PHE108      0.0534
    173  CG        20.8200    0.9360   33.5150 C.ar  108  PHE108     -0.0203
    174  CD1       20.9120   -0.4410   33.5830 C.ar  108  PHE108     -0.0042
    175  CD2       21.9120    1.6560   33.0580 C.ar  108  PHE108     -0.0042
    176  CE1       22.0630   -1.0950   33.1810 C.ar  108  PHE108     -0.0003
    177  CE2       23.0660    1.0090   32.6580 C.ar  108  PHE108     -0.0003
    178  CZ        23.1390   -0.3700   32.7200 C.ar  108  PHE108     -0.0000
    179  N         20.1180    6.8660   31.6510 N.3   110  ARG110     -0.1245
    180  CA        20.9200    7.9580   32.1790 C.3   110  ARG110      0.1563
    181  C         20.4620    9.2560   31.5340 C.2   110  ARG110      0.2260
    182  O         20.3250    9.3290   30.3090 O.2   110  ARG110     -0.2867
    183  CB        22.4040    7.7630   31.8730 C.3   110  ARG110      0.0307
    184  CG        23.0540    6.5350   32.4520 C.3   110  ARG110      0.0489
    185  CD        24.4580    6.4190   31.8810 C.3   110  ARG110      0.2205
    186  NE        25.1270    5.1740   32.2380 N.pl3 110  ARG110     -0.0865
    187  CZ        25.7980    4.9830   33.3670 C.cat 110  ARG110      0.5346
    188  NH1       25.8810    5.9530   34.2710 N.pl3 110  ARG110      0.1354
    189  NH2       26.3810    3.8160   33.5960 N.pl3 110  ARG110      0.1354
    190  N         20.1270    8.1280   36.9970 N.3   119  MET119     -0.1245
    191  CA        19.9300    6.8230   36.4010 C.3   119  MET119      0.1570
    192  C         18.6570    6.2160   36.9660 C.2   119  MET119      0.2261
    193  O         18.4930    6.1370   38.1900 O.2   119  MET119     -0.2867
    194  CB        21.1170    5.9050   36.6860 C.3   119  MET119      0.0387
    195  CG        20.9280    4.4950   36.1740 C.3   119  MET119      0.0595
    196  SD        22.1990    3.3850   36.7900 S.3   119  MET119     -0.1393
    197  CE        23.6280    3.9870   35.8910 C.3   119  MET119      0.0692
    198  N         16.5720    2.7460   36.9030 N.3   121  LEU121     -0.1245
    199  CA        16.7440    1.3290   36.6290 C.3   121  LEU121      0.1561
    200  C         15.4150    0.6120   36.7870 C.2   121  LEU121      0.2260
    201  O         14.7000    0.8250   37.7700 O.2   121  LEU121     -0.2867
    202  CB        17.7610    0.7160   37.5820 C.3   121  LEU121      0.0270
    203  CG        19.1180    1.4080   37.6030 C.3   121  LEU121      0.0019
    204  CD1       19.2150    2.4060   38.7400 C.3   121  LEU121      0.0001
    205  CD2       20.1700    0.3450   37.7250 C.3   121  LEU121      0.0001
    206  N         19.3360    6.3330   40.9770 N.3   130  ARG130     -0.1245
    207  CA        20.6420    6.6760   41.5110 C.3   130  ARG130      0.1563
    208  C         21.0770    8.0150   40.9420 C.2   130  ARG130      0.2260
    209  O         20.8870    8.2870   39.7550 O.2   130  ARG130     -0.2867
    210  CB        21.6760    5.6020   41.1810 C.3   130  ARG130      0.0307
    211  CG        21.4500    4.3240   41.9500 C.3   130  ARG130      0.0489
    212  CD        22.1430    3.1340   41.3100 C.3   130  ARG130      0.2205
    213  NE        23.5970    3.1320   41.4580 N.pl3 130  ARG130     -0.0865
    214  CZ        24.2390    2.8080   42.5780 C.cat 130  ARG130      0.5346
    215  NH1       25.5620    2.8020   42.6080 N.pl3 130  ARG130      0.1354
    216  NH2       23.5640    2.5030   43.6740 N.pl3 130  ARG130      0.1354
    217  N         24.2820   10.8390   40.5360 N.3   132  TYR132     -0.1241
    218  CA        25.7250   10.9940   40.4470 C.3   132  TYR132      0.1605
    219  C         26.0470   12.4570   40.1830 C.2   132  TYR132      0.2264
    220  O         25.2950   13.1570   39.5010 O.2   132  TYR132     -0.2867
    221  CB        26.3360   10.1500   39.3240 C.3   132  TYR132      0.0534
    222  CG        26.0270    8.6720   39.3660 C.ar  132  TYR132     -0.0201
    223  CD1       24.7920    8.1860   38.9590 C.ar  132  TYR132     -0.0009
    224  CD2       26.9830    7.7600   39.7830 C.ar  132  TYR132     -0.0009
    225  CE1       24.5160    6.8360   38.9840 C.ar  132  TYR132      0.0417
    226  CE2       26.7140    6.4010   39.8090 C.ar  132  TYR132      0.0417
    227  CZ        25.4810    5.9490   39.4090 C.ar  132  TYR132      0.1957
    228  OH        25.2050    4.6030   39.4330 O.3   132  TYR132     -0.2866
@<TRIPOS>BOND
     1   119   120    1
     2   120   123    1
     3   120   121    1
     4   159   160    1
     5   123   124    1
     6   161   160    1
     7   161   162    2
     8   160   163    1
     9   127   125   ar
    10   121   122    2
    11   182   181    2
    12   124   125    1
    13   125   126   ar
    14   163   164    1
    15   164   165    1
    16   171   170    2
    17   181   180    1
    18   179   180    1
    19   183   180    1
    20   183   184    1
    21   185   186    1
    22   185   184    1
    23   170   169    1
    24   168   169    1
    25   165   167   am
    26   165   166    2
    27   186   187    2
    28   177   178   ar
    29   177   175   ar
    30   178   176   ar
    31   169   172    1
    32   175   173   ar
    33   151   150    2
    34   176   174   ar
    35   187   189    1
    36   187   188    1
    37   150   149    1
    38   173   174   ar
    39   173   172    1
    40   134   132    1
    41   114   115    2
    42   114   113    1
    43   128   129    1
    44   157   156    1
    45   149   152    1
    46   149   148    1
    47   152   153    1
    48   129   132    1
    49   129   130    1
    50   113   116    1
    51   113   112    1
    52   116   117    1
    53   116   118    1
    54   132   133    1
    55    79    80    1
    56    77    76    1
    57   156   158    1
    58   156   155    2
    59    74    75    2
    60    74    73    1
    61    84    83    1
    62   197   196    1
    63   153   154    1
    64   154   155    1
    65   130   131    2
    66   130   135   am
    67   195   194    1
    68   195   196    1
    69   191   194    1
    70   191   192    1
    71   191   190    1
    72    23    22    1
    73    80    83    1
    74    80    81    1
    75   199   200    1
    76   199   198    1
    77   199   202    1
    78    76    73    1
    79    76    78    1
    80    73    72    1
    81   200   201    2
    82    83    85    1
    83   192   193    2
    84   135   136    1
    85    39    37    1
    86    82    81    2
    87   202   203    1
    88   203   205    1
    89   203   204    1
    90    22    20   ar
    91    22    21   ar
    92   146   145   ar
    93    20    18   ar
    94   136   139    1
    95   136   137    1
    96    38    37    1
    97    37    36    1
    98   147   145   ar
    99   145   144    1
   100   142   143    2
   101   142   141    1
   102    21    19   ar
   103   140   137   am
   104   140   141    1
   105   223   225   ar
   106   223   222   ar
   107   225   227   ar
   108   137   138    2
   109    35    34    2
   110    18    17   ar
   111   221   222    1
   112   221   218    1
   113   222   224   ar
   114    36    33    1
   115   227   228    1
   116   227   226   ar
   117   220   219    2
   118    33    34    1
   119    33    32    1
   120   141   144    1
   121   109   108    1
   122   109   110    1
   123   209   208    2
   124   224   226   ar
   125   111   110    1
   126    19    17   ar
   127   219   218    1
   128   105   106    2
   129   105   104    1
   130    17    16    1
   131   108   107    1
   132   218   217    1
   133   107   104    1
   134   208   207    1
   135   206   207    1
   136   210   207    1
   137   210   211    1
   138   212   213    1
   139   212   211    1
   140   104   103    1
   141   213   214    2
   142    69    70    1
   143    69    66    1
   144    15    14    2
   145     9    11   ar
   146     9     7   ar
   147    86    87    1
   148    16    13    1
   149    67    68    2
   150    67    66    1
   151    70    71    1
   152    11    10   ar
   153    46    44    1
   154    14    13    1
   155    14    24   am
   156     7     6   ar
   157    13    12    1
   158    66    65    1
   159   214   215    1
   160   214   216    1
   161   103    94   am
   162    27    26    2
   163    40    41    1
   164    91    90    1
   165    89    88    2
   166    87    90    1
   167    87    88    1
   168    25    24    1
   169    25    26    1
   170    25    28    1
   171    10     8   ar
   172    29    28    1
   173    29    30    1
   174   101    99   ar
   175   101   102   ar
   176    71    65    1
   177    44    41    1
   178    44    45    1
   179    41    42    1
   180    95    94    2
   181    99    97   ar
   182    94    93    1
   183     6     8   ar
   184     6     5    1
   185   102   100   ar
   186    30    31    1
   187     4     3    2
   188    53    51    1
   189    97    96    1
   190    97    98   ar
   191     5     2    1
   192     2     3    1
   193     2     1    1
   194   100    98   ar
   195    96    93    1
   196    93    92    1
   197    42    43    2
   198    64    62    1
   199    51    52    1
   200    51    48    1
   201    55    56    1
   202    55    54    1
   203    57    56    2
   204    61    60    2
   205    62    63    1
   206    62    59    1
   207    50    49    2
   208    60    59    1
   209    49    48    1
   210    48    47    1
   211    59    58    1
