@<TRIPOS>MOLECULE
tmp/5urbA00.pdb
 104 104 0 0 0
SMALL
GASTEIGER

@<TRIPOS>ATOM
      1  N         -2.0220   17.5260  -26.3780 N.3     9  ALA9       -0.1231
      2  CA        -1.6500   16.2820  -27.0290 C.3     9  ALA9        0.1694
      3  C         -1.2030   15.2520  -25.9950 C.2     9  ALA9        0.2592
      4  O         -0.5850   15.5810  -24.9760 O.2     9  ALA9       -0.2718
      5  CB        -0.5330   16.5200  -28.0470 C.3     9  ALA9        0.0304
      6  N         -1.4880   13.9910  -26.2830 N.am   10  LEU10      -0.1966
      7  CA        -1.1870   12.9120  -25.3500 C.3    10  LEU10       0.1713
      8  C          0.2290   12.4090  -25.6000 C.2    10  LEU10       0.2458
      9  O          0.5150   11.9390  -26.7080 O.2    10  LEU10      -0.2730
     10  CB        -2.1890   11.7820  -25.5310 C.3    10  LEU10       0.0310
     11  CG        -3.6620   12.1880  -25.5870 C.3    10  LEU10       0.0022
     12  CD1       -4.5250   10.9250  -25.5980 C.3    10  LEU10       0.0001
     13  CD2       -4.0550   13.1370  -24.4150 C.3    10  LEU10       0.0001
     14  N          1.1450   12.4960  -24.6400 N.am   11  PRO11      -0.2716
     15  CA         2.5070   12.0150  -24.9080 C.3    11  PRO11       0.1536
     16  C          2.5580   10.4940  -24.9350 C.2    11  PRO11       0.2598
     17  O          1.8530    9.8230  -24.1790 O.2    11  PRO11      -0.2715
     18  CB         3.3180   12.5770  -23.7370 C.3    11  PRO11       0.0310
     19  CG         2.3390   12.6920  -22.6440 C.3    11  PRO11       0.0237
     20  CD         1.0200   13.0480  -23.2790 C.3    11  PRO11       0.0939
     21  N          3.4000    9.9560  -25.8170 N.am   12  TYR12      -0.1974
     22  CA         3.6360    8.5150  -25.8440 C.3    12  TYR12       0.1639
     23  C          4.2780    8.0520  -24.5450 C.2    12  TYR12       0.2290
     24  O          5.1250    8.7420  -23.9670 O.2    12  TYR12      -0.2864
     25  CB         4.5410    8.1350  -27.0170 C.3    12  TYR12       0.0560
     26  CG         3.8100    8.0960  -28.3320 C.ar   12  TYR12      -0.0198
     27  CD1        2.6270    7.3830  -28.4590 C.ar   12  TYR12      -0.0009
     28  CD2        4.2870    8.7910  -29.4390 C.ar   12  TYR12      -0.0009
     29  CE1        1.9370    7.3480  -29.6710 C.ar   12  TYR12       0.0417
     30  CE2        3.6160    8.7600  -30.6490 C.ar   12  TYR12       0.0417
     31  CZ         2.4350    8.0490  -30.7520 C.ar   12  TYR12       0.1957
     32  OH         1.7630    8.0220  -31.9450 O.3    12  TYR12      -0.2866
     33  N         -0.4690    8.4040  -24.0730 N.3    49  ASP49      -0.1239
     34  CA        -0.7400    7.6340  -25.2880 C.3    49  ASP49       0.1674
     35  C         -0.0040    6.3020  -25.1210 C.2    49  ASP49       0.2266
     36  O          1.2160    6.2420  -25.2650 O.2    49  ASP49      -0.2867
     37  CB        -0.2630    8.4280  -26.5060 C.3    49  ASP49       0.1410
     38  CG        -0.8960    7.9800  -27.8180 C.2    49  ASP49       0.3668
     39  OD1       -1.6440    6.9820  -27.8330 O.co2  49  ASP49      -0.2456
     40  OD2       -0.6300    8.6470  -28.8500 O.co2  49  ASP49      -0.2456
     41  N         -3.0640    5.3730  -33.4320 N.3   251  TRP251     -0.1241
     42  CA        -3.6280    6.6830  -33.7370 C.3   251  TRP251      0.1605
     43  C         -5.1440    6.6710  -33.8440 C.2   251  TRP251      0.2264
     44  O         -5.7550    7.7410  -33.8190 O.2   251  TRP251     -0.2867
     45  CB        -3.0230    7.2520  -35.0270 C.3   251  TRP251      0.0550
     46  CG        -1.8570    8.1370  -34.7490 C.ar  251  TRP251      0.0003
     47  CD1       -0.5430    7.8580  -34.9640 C.ar  251  TRP251      0.0946
     48  CD2       -1.9030    9.4370  -34.1530 C.ar  251  TRP251      0.0152
     49  NE1        0.2400    8.9150  -34.5480 N.ar  251  TRP251     -0.2442
     50  CE2       -0.5700    9.8970  -34.0500 C.ar  251  TRP251      0.0810
     51  CE3       -2.9400   10.2570  -33.6940 C.ar  251  TRP251      0.0012
     52  CZ2       -0.2460   11.1420  -33.5140 C.ar  251  TRP251      0.0191
     53  CZ3       -2.6170   11.5050  -33.1690 C.ar  251  TRP251      0.0001
     54  CH2       -1.2800   11.9330  -33.0870 C.ar  251  TRP251      0.0015
     55  N         -5.9610    6.9760  -29.9270 N.3   254  ALA254     -0.1231
     56  CA        -5.2980    8.0610  -29.2020 C.3   254  ALA254      0.1679
     57  C         -6.1890    9.2860  -29.0090 C.2   254  ALA254      0.2434
     58  O         -6.3770    9.7090  -27.8570 O.2   254  ALA254     -0.2733
     59  CB        -3.9750    8.4080  -29.8920 C.3   254  ALA254      0.0304
     60  N         -6.7640    9.9060  -30.0530 N.am  255  PRO255     -0.2729
     61  CA        -7.6220   11.0710  -29.7870 C.3   255  PRO255      0.1401
     62  C         -8.8940   10.7060  -29.0580 C.2   255  PRO255      0.2269
     63  O         -9.4850   11.5740  -28.4130 O.2   255  PRO255     -0.2865
     64  CB        -7.9150   11.6330  -31.1870 C.3   255  PRO255      0.0296
     65  CG        -7.8030   10.4360  -32.0920 C.3   255  PRO255      0.0237
     66  CD        -6.6820    9.6160  -31.4980 C.3   255  PRO255      0.0939
     67  N         -9.0280   11.7040  -25.5210 N.3   258  TYR258     -0.1241
     68  CA        -9.5340   13.0030  -25.0950 C.3   258  TYR258      0.1605
     69  C        -10.9170   12.8560  -24.4820 C.2   258  TYR258      0.2264
     70  O        -11.2060   13.4180  -23.4180 O.2   258  TYR258     -0.2867
     71  CB        -9.6100   13.9680  -26.2790 C.3   258  TYR258      0.0534
     72  CG        -8.3300   14.3890  -26.9440 C.ar  258  TYR258     -0.0201
     73  CD1       -7.1930   14.6860  -26.2080 C.ar  258  TYR258     -0.0009
     74  CD2       -8.2830   14.5400  -28.3320 C.ar  258  TYR258     -0.0009
     75  CE1       -6.0240   15.1010  -26.8320 C.ar  258  TYR258      0.0417
     76  CE2       -7.1200   14.9590  -28.9750 C.ar  258  TYR258      0.0417
     77  CZ        -5.9940   15.2450  -28.2130 C.ar  258  TYR258      0.1957
     78  OH        -4.8370   15.6570  -28.8330 O.3   258  TYR258     -0.2866
     79  N          3.1720   19.0720  -36.0720 N.3   294  ASP294     -0.1225
     80  CA         3.4470   17.7590  -36.6400 C.3   294  ASP294      0.1805
     81  C          2.2550   16.7990  -36.5800 C.2   294  ASP294      0.2597
     82  O          2.2810   15.7780  -37.2750 O.2   294  ASP294     -0.2718
     83  CB         4.6450   17.1310  -35.9320 C.3   294  ASP294      0.1424
     84  CG         4.4400   17.0100  -34.4290 C.2   294  ASP294      0.3668
     85  OD1        3.8010   17.9000  -33.8240 O.co2 294  ASP294     -0.2456
     86  OD2        4.9200   16.0150  -33.8520 O.co2 294  ASP294     -0.2456
     87  N          1.2180   17.0780  -35.7890 N.am  295  ILE295     -0.1980
     88  CA         0.1020   16.1420  -35.6850 C.3   295  ILE295      0.1595
     89  C         -1.2200   16.7850  -36.1050 C.2   295  ILE295      0.2287
     90  O         -2.2870   16.3150  -35.7240 O.2   295  ILE295     -0.2864
     91  CB        -0.0020   15.5310  -34.2720 C.3   295  ILE295      0.0276
     92  CG1       -0.2590   16.6130  -33.2170 C.3   295  ILE295      0.0022
     93  CG2        1.2390   14.7320  -33.9420 C.3   295  ILE295      0.0022
     94  CD1       -0.2810   16.0720  -31.8100 C.3   295  ILE295      0.0001
     95  N         -5.5200   15.4670  -36.4040 N.3   299  HIS299     -0.1241
     96  CA        -6.5270   16.2160  -35.6600 C.3   299  HIS299      0.1621
     97  C         -7.4890   17.0060  -36.5360 C.2   299  HIS299      0.2264
     98  O         -8.5960   17.3060  -36.0870 O.2   299  HIS299     -0.2867
     99  CB        -5.8540   17.1760  -34.6730 C.3   299  HIS299      0.0745
    100  CG        -5.3000   16.4860  -33.4650 C.ar  299  HIS299      0.0817
    101  ND1       -4.0730   15.8570  -33.4720 N.ar  299  HIS299     -0.2268
    102  CD2       -5.8070   16.3160  -32.2220 C.ar  299  HIS299      0.1154
    103  CE1       -3.8440   15.3390  -32.2770 C.ar  299  HIS299      0.1986
    104  NE2       -4.8780   15.6080  -31.4990 N.ar  299  HIS299     -0.2212
@<TRIPOS>BOND
     1    82    81    2
     2    80    81    1
     3    80    79    1
     4    80    83    1
     5    81    87   am
     6    97    98    2
     7    97    96    1
     8    95    96    1
     9    89    90    2
    10    89    88    1
    11    83    84    1
    12    87    88    1
    13    88    91    1
    14    96    99    1
    15    45    46    1
    16    45    42    1
    17    47    46   ar
    18    47    49   ar
    19    46    48   ar
    20    99   100    1
    21    49    50   ar
    22    84    86   ar
    23    84    85   ar
    24    91    93    1
    25    91    92    1
    26    48    50   ar
    27    48    51   ar
    28    50    52   ar
    29    43    44    2
    30    43    42    1
    31    42    41    1
    32    51    53   ar
    33    52    54   ar
    34   101   100   ar
    35   101   103   ar
    36   100   102   ar
    37    92    94    1
    38    53    54   ar
    39   103   104   ar
    40   102   104   ar
    41    65    66    1
    42    65    64    1
    43    32    31    1
    44    66    60    1
    45    64    61    1
    46    31    30   ar
    47    31    29   ar
    48    30    28   ar
    49    60    61    1
    50    60    57   am
    51    55    56    1
    52    59    56    1
    53    61    62    1
    54    29    27   ar
    55    28    26   ar
    56    56    57    1
    57    62    63    2
    58    57    58    2
    59    76    74   ar
    60    76    77   ar
    61    40    38   ar
    62    78    77    1
    63    27    26   ar
    64    74    72   ar
    65    26    25    1
    66    77    75   ar
    67     5     2    1
    68    39    38   ar
    69    38    37    1
    70     2     1    1
    71     2     3    1
    72    25    22    1
    73    72    71    1
    74    72    73   ar
    75    75    73   ar
    76     9     8    2
    77    37    34    1
    78     6     3   am
    79     6     7    1
    80    71    68    1
    81     3     4    2
    82    22    21    1
    83    22    23    1
    84    21    16   am
    85     8     7    1
    86     8    14   am
    87    12    11    1
    88    11    10    1
    89    11    13    1
    90    10     7    1
    91    67    68    1
    92    34    35    1
    93    34    33    1
    94    36    35    2
    95    68    69    1
    96    16    15    1
    97    16    17    2
    98    15    14    1
    99    15    18    1
   100    14    20    1
   101    23    24    2
   102    69    70    2
   103    18    19    1
   104    20    19    1
