@<TRIPOS>MOLECULE
tmp/5urdA02.pdb
 164 153 0 0 0
SMALL
GASTEIGER

@<TRIPOS>ATOM
      1  N         17.2810   13.1720   14.3970 N.3   234  ARG234     -0.1245
      2  CA        17.1080   11.8060   14.8690 C.3   234  ARG234      0.1563
      3  C         16.5210   10.9310   13.7710 C.2   234  ARG234      0.2260
      4  O         16.3040   11.3780   12.6450 O.2   234  ARG234     -0.2867
      5  CB        16.1540   11.7980   16.0630 C.3   234  ARG234      0.0307
      6  CG        16.3670   12.9480   17.0300 C.3   234  ARG234      0.0489
      7  CD        15.0400   13.3790   17.6380 C.3   234  ARG234      0.2205
      8  NE        14.6310   12.5060   18.7210 N.pl3 234  ARG234     -0.0865
      9  CZ        13.4150   12.4840   19.2530 C.cat 234  ARG234      0.5346
     10  NH1       12.4610   13.2890   18.7970 N.pl3 234  ARG234      0.1354
     11  NH2       13.1620   11.6670   20.2630 N.pl3 234  ARG234      0.1354
     12  N         13.2750    8.4430   13.2380 N.3   236  LEU236     -0.1245
     13  CA        12.0410    7.8370   13.7030 C.3   236  LEU236      0.1561
     14  C         11.5210    7.0060   12.5480 C.2   236  LEU236      0.2260
     15  O         11.4720    7.4670   11.4010 O.2   236  LEU236     -0.2867
     16  CB        11.0440    8.9040   14.1420 C.3   236  LEU236      0.0270
     17  CG        11.5330    9.5060   15.4630 C.3   236  LEU236      0.0019
     18  CD1       12.0320   10.9110   15.2230 C.3   236  LEU236      0.0001
     19  CD2       10.4160    9.4780   16.4960 C.3   236  LEU236      0.0001
     20  N         11.6040    5.1940   17.7870 N.3   410  VAL410     -0.1245
     21  CA        12.7180    6.1120   17.6160 C.3   410  VAL410      0.1561
     22  C         14.0030    5.2970   17.7920 C.2   410  VAL410      0.2260
     23  O         14.1400    4.5260   18.7490 O.2   410  VAL410     -0.2867
     24  CB        12.6600    7.2930   18.6370 C.3   410  VAL410      0.0252
     25  CG1       12.5560    6.7710   20.0650 C.3   410  VAL410      0.0019
     26  CG2       13.8840    8.1750   18.4750 C.3   410  VAL410      0.0019
     27  N          2.5160   12.5400   23.0680 N.3   464  PRO464     -0.2102
     28  CA         3.5730   13.2660   22.3570 C.3   464  PRO464      0.1504
     29  C          4.7140   12.3420   21.9220 C.2   464  PRO464      0.2576
     30  O          4.9530   11.2980   22.5320 O.2   464  PRO464     -0.2718
     31  CB         4.0120   14.3200   23.3750 C.3   464  PRO464      0.0282
     32  CG         3.7880   13.6270   24.6890 C.3   464  PRO464      0.0208
     33  CD         2.4500   12.9470   24.4830 C.3   464  PRO464      0.0893
     34  N          5.4080   12.7270   20.8560 N.am  465  GLY465     -0.1943
     35  CA         6.5040   11.9180   20.3640 C.3   465  GLY465      0.2014
     36  C          6.0260   10.5340   19.9650 C.2   465  GLY465      0.2639
     37  O          4.9380   10.3860   19.3900 O.2   465  GLY465     -0.2714
     38  N          6.8180    9.5130   20.2790 N.am  466  THR466     -0.1950
     39  CA         6.4400    8.1460   19.9330 C.3   466  THR466      0.1897
     40  C          5.2100    7.6860   20.7090 C.2   466  THR466      0.2313
     41  O          4.7150    6.5800   20.4990 O.2   466  THR466     -0.2863
     42  CB         7.6020    7.1480   20.1580 C.3   466  THR466      0.1794
     43  OG1        8.0250    7.1910   21.5270 O.3   466  THR466     -0.2208
     44  CG2        8.7780    7.4850   19.2390 C.3   466  THR466      0.0378
     45  N          2.4080   15.9610   20.2890 N.3   496  GLY496     -0.1210
     46  CA         3.4810   16.9240   20.4400 C.3   496  GLY496      0.1956
     47  C          4.7890   16.4750   19.8250 C.2   496  GLY496      0.2612
     48  O          5.1280   15.2980   19.8470 O.2   496  GLY496     -0.2717
     49  N          5.5110   17.4220   19.2400 N.am  497  CYS497     -0.1956
     50  CA         6.8040   17.1430   18.6390 C.3   497  CYS497      0.1843
     51  C          7.6170   18.4250   18.7300 C.2   497  CYS497      0.2625
     52  O          7.1000   19.4500   19.1610 O.2   497  CYS497     -0.2714
     53  CB         6.6490   16.7010   17.1810 C.3   497  CYS497      0.0997
     54  SG         5.9710   17.9500   16.0930 S.3   497  CYS497     -0.0797
     55  N          8.8850   18.3700   18.3290 N.am  498  ARG498     -0.1977
     56  CA         9.7580   19.5380   18.3970 C.3   498  ARG498      0.1597
     57  C          9.4180   20.6270   17.3840 C.2   498  ARG498      0.2287
     58  O          9.1990   21.7810   17.7620 O.2   498  ARG498     -0.2864
     59  CB        11.2160   19.1070   18.2110 C.3   498  ARG498      0.0334
     60  CG        11.6740   18.0600   19.2070 C.3   498  ARG498      0.0492
     61  CD        13.1360   17.6950   18.9810 C.3   498  ARG498      0.2205
     62  NE        13.5900   16.6970   19.9410 N.pl3 498  ARG498     -0.0865
     63  CZ        14.8390   16.2430   20.0100 C.cat 498  ARG498      0.5346
     64  NH1       15.1580   15.3380   20.9170 N.pl3 498  ARG498      0.1354
     65  NH2       15.7650   16.6960   19.1730 N.pl3 498  ARG498      0.1354
     66  N         10.2130   16.5770   13.1880 N.3   503  ASP503     -0.1239
     67  CA         9.7270   15.2690   13.6170 C.3   503  ASP503      0.1674
     68  C          8.2240   15.1740   13.9040 C.2   503  ASP503      0.2266
     69  O          7.8120   14.5840   14.9120 O.2   503  ASP503     -0.2867
     70  CB        10.5100   14.8180   14.8520 C.3   503  ASP503      0.1410
     71  CG        10.5750   15.8900   15.9280 C.2   503  ASP503      0.3668
     72  OD1        9.8260   16.8880   15.8370 O.co2 503  ASP503     -0.2456
     73  OD2       11.3780   15.7270   16.8750 O.co2 503  ASP503     -0.2456
     74  N          1.3120   20.3460   19.8040 N.3   525  ALA525     -0.1245
     75  CA         2.1860   21.2430   20.5380 C.3   525  ALA525      0.1562
     76  C          3.5890   21.1420   19.9490 C.2   525  ALA525      0.2260
     77  O          4.2270   20.0990   20.0380 O.2   525  ALA525     -0.2867
     78  CB         2.2110   20.8520   22.0170 C.3   525  ALA525      0.0290
     79  N          6.9800   22.0300   20.5670 N.3   527  SER527     -0.1202
     80  CA         7.7880   22.4890   21.6890 C.3   527  SER527      0.2020
     81  C          8.9400   23.4320   21.3870 C.2   527  SER527      0.2618
     82  O          9.3110   24.2260   22.2500 O.2   527  SER527     -0.2717
     83  CB         8.3220   21.2880   22.4810 C.3   527  SER527      0.2103
     84  OG         9.2540   20.5210   21.7320 O.3   527  SER527     -0.2182
     85  N          9.4980   23.3680   20.1810 N.am  528  ARG528     -0.1979
     86  CA        10.6370   24.2260   19.8620 C.3   528  ARG528      0.1597
     87  C         10.4410   25.2500   18.7560 C.2   528  ARG528      0.2287
     88  O         11.4120   25.7610   18.2030 O.2   528  ARG528     -0.2864
     89  CB        11.8540   23.3530   19.5470 C.3   528  ARG528      0.0334
     90  CG        12.0870   22.2960   20.6110 C.3   528  ARG528      0.0492
     91  CD        13.3640   21.4950   20.4030 C.3   528  ARG528      0.2205
     92  NE        13.4880   20.4700   21.4360 N.pl3 528  ARG528     -0.0865
     93  CZ        14.5230   19.6460   21.5510 C.cat 528  ARG528      0.5346
     94  NH1       15.5330   19.7320   20.6920 N.pl3 528  ARG528      0.1354
     95  NH2       14.5430   18.7360   22.5140 N.pl3 528  ARG528      0.1354
     96  N          8.4880   26.6280   25.9200 N.3   533  LYS533     -0.1245
     97  CA         8.0610   25.2780   25.6000 C.3   533  LYS533      0.1561
     98  C          6.5470   25.2570   25.4890 C.2   533  LYS533      0.2260
     99  O          5.8550   25.8990   26.2750 O.2   533  LYS533     -0.2867
    100  CB         8.4690   24.3050   26.7070 C.3   533  LYS533      0.0271
    101  CG         9.9640   24.1400   26.8960 C.3   533  LYS533      0.0035
    102  CD        10.5960   23.5040   25.6800 C.3   533  LYS533      0.0206
    103  CE        12.0690   23.1990   25.9130 C.3   533  LYS533      0.1093
    104  NZ        12.6760   22.6060   24.6870 N.3   533  LYS533     -0.1314
    105  N          3.7870   22.3420   25.3530 N.3   535  TYR535     -0.1227
    106  CA         3.5940   20.9080   25.5000 C.3   535  TYR535      0.1736
    107  C          2.1140   20.5350   25.4530 C.2   535  TYR535      0.2595
    108  O          1.2450   21.3990   25.5510 O.2   535  TYR535     -0.2718
    109  CB         4.1740   20.4260   26.8340 C.3   535  TYR535      0.0548
    110  CG         5.6780   20.5520   26.9770 C.ar  535  TYR535     -0.0200
    111  CD1        6.5350   20.3320   25.8900 C.ar  535  TYR535     -0.0009
    112  CD2        6.2530   20.7890   28.2280 C.ar  535  TYR535     -0.0009
    113  CE1        7.9300   20.3340   26.0560 C.ar  535  TYR535      0.0417
    114  CE2        7.6360   20.7920   28.3960 C.ar  535  TYR535      0.0417
    115  CZ         8.4640   20.5600   27.3140 C.ar  535  TYR535      0.1957
    116  OH         9.8300   20.5200   27.5060 O.3   535  TYR535     -0.2866
    117  N          1.8340   19.2460   25.3260 N.am  536  VAL536     -0.1966
    118  CA         0.4540   18.8070   25.2530 C.3   536  VAL536      0.1727
    119  C         -0.3730   19.2790   26.4520 C.2   536  VAL536      0.2616
    120  O         -1.5240   19.6600   26.2840 O.2   536  VAL536     -0.2715
    121  CB         0.3360   17.2540   25.0930 C.3   536  VAL536      0.0290
    122  CG1        0.8020   16.8410   23.6970 C.3   536  VAL536      0.0023
    123  CG2        1.1510   16.5220   26.1720 C.3   536  VAL536      0.0023
    124  N          0.2050   19.2810   27.6560 N.am  537  GLN537     -0.1977
    125  CA        -0.5600   19.7170   28.8260 C.3   537  GLN537      0.1601
    126  C         -0.9730   21.1860   28.7470 C.2   537  GLN537      0.2287
    127  O         -1.9690   21.5920   29.3550 O.2   537  GLN537     -0.2864
    128  CB         0.2190   19.4710   30.1260 C.3   537  GLN537      0.0394
    129  CG         1.5880   20.1120   30.1660 C.3   537  GLN537      0.0908
    130  CD         2.6790   19.1370   29.7990 C.2   537  GLN537      0.2608
    131  OE1        2.5060   18.2980   28.9140 O.2   537  GLN537     -0.2717
    132  NE2        3.8180   19.2450   30.4740 N.am  537  GLN537     -0.0878
    133  N          6.2610    9.0790   27.4370 N.3   563  ASP563     -0.1239
    134  CA         7.1940    9.1980   28.5490 C.3   563  ASP563      0.1674
    135  C          6.5500    9.1030   29.9280 C.2   563  ASP563      0.2266
    136  O          5.7580    9.9610   30.3120 O.2   563  ASP563     -0.2867
    137  CB         7.9640   10.5150   28.4500 C.3   563  ASP563      0.1410
    138  CG         8.8440   10.7500   29.6590 C.2   563  ASP563      0.3668
    139  OD1        9.6780    9.8630   29.9600 O.co2 563  ASP563     -0.2456
    140  OD2        8.6920   11.8040   30.3110 O.co2 563  ASP563     -0.2456
    141  N          8.4010   12.1300   33.0110 N.3   566  ASN566     -0.1225
    142  CA         7.8960   13.4720   33.2510 C.3   566  ASN566      0.1785
    143  C          6.5540   13.8220   32.6040 C.2   566  ASN566      0.2597
    144  O          5.6760   14.3890   33.2590 O.2   566  ASN566     -0.2718
    145  CB         8.9330   14.5070   32.8130 C.3   566  ASN566      0.1169
    146  CG        10.2420   14.4030   33.6020 C.2   566  ASN566      0.2627
    147  OD1       11.0920   13.5560   33.3270 O.2   566  ASN566     -0.2716
    148  ND2       10.3960   15.2660   34.5900 N.am  566  ASN566     -0.0877
    149  N          6.4000   13.4990   31.3230 N.am  567  MET567     -0.1979
    150  CA         5.1790   13.8350   30.6070 C.3   567  MET567      0.1605
    151  C          3.9110   13.3090   31.2730 C.2   567  MET567      0.2287
    152  O          3.0000   14.0810   31.5550 O.2   567  MET567     -0.2864
    153  CB         5.2650   13.3460   29.1590 C.3   567  MET567      0.0413
    154  CG         4.0600   13.7200   28.2890 C.3   567  MET567      0.0598
    155  SD         2.6180   12.6260   28.4990 S.3   567  MET567     -0.1393
    156  CE         3.2670   11.0810   27.8450 C.3   567  MET567      0.0692
    157  N          3.0890   15.2620   34.4240 N.3   570  ASP570     -0.1239
    158  CA         2.7020   16.6460   34.1600 C.3   570  ASP570      0.1674
    159  C          1.2850   16.6960   33.5860 C.2   570  ASP570      0.2266
    160  O          0.5150   17.6130   33.8760 O.2   570  ASP570     -0.2867
    161  CB         3.6760   17.3200   33.1830 C.3   570  ASP570      0.1410
    162  CG         5.0330   17.6140   33.8090 C.2   570  ASP570      0.3668
    163  OD1        5.1000   17.7730   35.0470 O.co2 570  ASP570     -0.2456
    164  OD2        6.0330   17.7050   33.0610 O.co2 570  ASP570     -0.2456
@<TRIPOS>BOND
     1    15    14    2
     2    14    13    1
     3     4     3    2
     4    66    67    1
     5    12    13    1
     6    67    68    1
     7    67    70    1
     8    13    16    1
     9     3     2    1
    10    68    69    2
    11    16    17    1
    12     1     2    1
    13    70    71    1
    14     2     5    1
    15    18    17    1
    16    17    19    1
    17    72    71   ar
    18    71    73   ar
    19     5     6    1
    20    54    53    1
    21     6     7    1
    22    53    50    1
    23    57    58    2
    24    57    56    1
    25    21    20    1
    26    21    22    1
    27    21    24    1
    28     7     8    1
    29    22    23    2
    30    88    87    2
    31    59    56    1
    32    59    60    1
    33    55    56    1
    34    55    51   am
    35    26    24    1
    36    24    25    1
    37    50    51    1
    38    50    49    1
    39     8     9    2
    40    51    52    2
    41    87    86    1
    42    10     9    1
    43    61    60    1
    44    61    62    1
    45    65    63    1
    46    44    42    1
    47    49    47   am
    48     9    11    1
    49    37    36    2
    50    89    86    1
    51    89    90    1
    52    74    75    1
    53    47    48    2
    54    47    46    1
    55    86    85    1
    56    39    42    1
    57    39    38    1
    58    39    40    1
    59    62    63    2
    60    76    77    2
    61    76    75    1
    62    36    38   am
    63    36    35    1
    64    63    64    1
    65    42    43    1
    66    85    81   am
    67    45    46    1
    68    35    34    1
    69    91    90    1
    70    91    92    1
    71    41    40    2
    72    75    78    1
    73    79    80    1
    74    94    93    1
    75    34    29   am
    76    81    80    1
    77    81    82    2
    78    92    93    2
    79    93    95    1
    80    80    83    1
    81    84    83    1
    82    29    28    1
    83    29    30    2
    84    28    27    1
    85    28    31    1
    86    27    33    1
    87    31    32    1
    88   122   121    1
    89    33    32    1
    90   104   103    1
    91   121   118    1
    92   121   123    1
    93   118   117    1
    94   118   119    1
    95   117   107   am
    96   105   106    1
    97   107   106    1
    98   107   108    2
    99    98    97    1
   100    98    99    2
   101   106   109    1
   102    97    96    1
   103    97   100    1
   104   102   103    1
   105   102   101    1
   106   111   113   ar
   107   111   110   ar
   108   113   115   ar
   109   120   119    2
   110   119   124   am
   111   100   101    1
   112   109   110    1
   113   110   112   ar
   114   115   116    1
   115   115   114   ar
   116   133   134    1
   117   124   125    1
   118   156   155    1
   119   112   114   ar
   120   154   155    1
   121   154   153    1
   122   137   134    1
   123   137   138    1
   124   134   135    1
   125   126   125    1
   126   126   127    2
   127   125   128    1
   128   131   130    2
   129   153   150    1
   130   138   139   ar
   131   138   140   ar
   132   130   129    1
   133   130   132   am
   134   135   136    2
   135   128   129    1
   136   150   151    1
   137   150   149    1
   138   151   152    2
   139   149   143   am
   140   143   142    1
   141   143   144    2
   142   145   142    1
   143   145   146    1
   144   141   142    1
   145   164   162   ar
   146   161   162    1
   147   161   158    1
   148   147   146    2
   149   159   160    2
   150   159   158    1
   151   146   148   am
   152   162   163   ar
   153   158   157    1
