@<TRIPOS>MOLECULE
tmp/5urdB02.pdb
 210 199 0 0 0
SMALL
GASTEIGER

@<TRIPOS>ATOM
      1  N         33.1720   13.3070   14.8350 N.3   230  ARG230     -0.1245
      2  CA        33.4020   14.6110   15.4380 C.3   230  ARG230      0.1563
      3  C         33.8870   15.5820   14.3620 C.2   230  ARG230      0.2260
      4  O         34.0450   15.2040   13.1970 O.2   230  ARG230     -0.2867
      5  CB        34.4640   14.5020   16.5350 C.3   230  ARG230      0.0307
      6  CG        34.1170   13.5180   17.6400 C.3   230  ARG230      0.0489
      7  CD        35.1590   13.5660   18.7290 C.3   230  ARG230      0.2205
      8  NE        36.4740   13.1850   18.2260 N.pl3 230  ARG230     -0.0865
      9  CZ        37.6030   13.3490   18.9070 C.cat 230  ARG230      0.5346
     10  NH1       37.5690   13.8900   20.1190 N.pl3 230  ARG230      0.1354
     11  NH2       38.7610   12.9700   18.3820 N.pl3 230  ARG230      0.1354
     12  N         36.9860   18.2340   13.7200 N.3   232  LEU232     -0.1245
     13  CA        38.2510   18.8240   14.1180 C.3   232  LEU232      0.1561
     14  C         38.6290   19.7800   12.9990 C.2   232  LEU232      0.2260
     15  O         38.5220   19.4460   11.8120 O.2   232  LEU232     -0.2867
     16  CB        39.3150   17.7470   14.3480 C.3   232  LEU232      0.0270
     17  CG        39.0890   17.0410   15.6940 C.3   232  LEU232      0.0019
     18  CD1       38.1870   15.8390   15.4980 C.3   232  LEU232      0.0001
     19  CD2       40.4190   16.6170   16.3020 C.3   232  LEU232      0.0001
     20  N         38.9930   20.9840   18.3650 N.3   406  VAL406     -0.1245
     21  CA        37.8880   20.0580   18.2150 C.3   406  VAL406      0.1561
     22  C         36.6140   20.8070   18.5910 C.2   406  VAL406      0.2260
     23  O         36.5460   21.4620   19.6380 O.2   406  VAL406     -0.2867
     24  CB        38.0740   18.7850   19.0910 C.3   406  VAL406      0.0252
     25  CG1       38.3630   19.1560   20.5460 C.3   406  VAL406      0.0019
     26  CG2       36.8200   17.9020   18.9910 C.3   406  VAL406      0.0019
     27  N         33.0910   21.6030   20.0220 N.3   408  VAL408     -0.1245
     28  CA        32.3600   21.0590   21.1550 C.3   408  VAL408      0.1561
     29  C         30.8790   21.0850   20.8280 C.2   408  VAL408      0.2260
     30  O         30.3090   22.1380   20.5560 O.2   408  VAL408     -0.2867
     31  CB        32.6360   21.8700   22.4430 C.3   408  VAL408      0.0252
     32  CG1       31.7330   21.3890   23.5710 C.3   408  VAL408      0.0019
     33  CG2       34.1020   21.7070   22.8400 C.3   408  VAL408      0.0019
     34  N         48.4630   13.1770   21.9690 N.3   460  PRO460     -0.2102
     35  CA        47.3570   12.5160   21.2620 C.3   460  PRO460      0.1504
     36  C         46.1760   13.4580   21.0260 C.2   460  PRO460      0.2576
     37  O         45.9940   14.4290   21.7580 O.2   460  PRO460     -0.2718
     38  CB        47.0100   11.3440   22.1820 C.3   460  PRO460      0.0282
     39  CG        47.3480   11.8550   23.5240 C.3   460  PRO460      0.0208
     40  CD        48.6430   12.6110   23.3160 C.3   460  PRO460      0.0893
     41  N         45.3790   13.1690   19.9970 N.am  461  GLY461     -0.1943
     42  CA        44.2420   14.0090   19.6690 C.3   461  GLY461      0.2014
     43  C         44.6550   15.4430   19.3690 C.2   461  GLY461      0.2640
     44  O         45.6400   15.6670   18.6650 O.2   461  GLY461     -0.2714
     45  N         43.9160   16.4170   19.9020 N.am  462  THR462     -0.1936
     46  CA        44.2400   17.8270   19.6770 C.3   462  THR462      0.2028
     47  C         45.5330   18.2190   20.3860 C.2   462  THR462      0.2642
     48  O         46.0200   19.3340   20.2280 O.2   462  THR462     -0.2714
     49  CB        43.1070   18.7720   20.1510 C.3   462  THR462      0.1808
     50  OG1       42.7810   18.4850   21.5160 O.3   462  THR462     -0.2208
     51  CG2       41.8660   18.5980   19.2880 C.3   462  THR462      0.0379
     52  N         46.0800   17.3050   21.1840 N.am  463  GLY463     -0.1954
     53  CA        47.3340   17.5800   21.8590 C.3   463  GLY463      0.1869
     54  C         48.4610   17.6970   20.8380 C.2   463  GLY463      0.2309
     55  O         49.5810   18.0740   21.1720 O.2   463  GLY463     -0.2863
     56  N         48.3990    9.9790   19.0040 N.3   492  GLY492     -0.1210
     57  CA        47.3560    8.9770   19.1270 C.3   492  GLY492      0.1956
     58  C         46.0230    9.4870   18.6160 C.2   492  GLY492      0.2612
     59  O         45.7180   10.6790   18.7210 O.2   492  GLY492     -0.2717
     60  N         45.2290    8.5870   18.0440 N.am  493  CYS493     -0.1956
     61  CA        43.9130    8.9420   17.5320 C.3   493  CYS493      0.1843
     62  C         43.0930    7.6590   17.4730 C.2   493  CYS493      0.2625
     63  O         43.6300    6.5810   17.7140 O.2   493  CYS493     -0.2714
     64  CB        44.0280    9.5760   16.1460 C.3   493  CYS493      0.0997
     65  SG        44.6570    8.4750   14.8690 S.3   493  CYS493     -0.0797
     66  N         41.8030    7.7640   17.1660 N.am  494  ARG494     -0.1977
     67  CA        40.9580    6.5750   17.1190 C.3   494  ARG494      0.1597
     68  C         41.2790    5.6220   15.9710 C.2   494  ARG494      0.2287
     69  O         41.5270    4.4330   16.1930 O.2   494  ARG494     -0.2864
     70  CB        39.4910    6.9790   17.0500 C.3   494  ARG494      0.0334
     71  CG        39.0450    7.8060   18.2420 C.3   494  ARG494      0.0492
     72  CD        37.5920    8.1930   18.1020 C.3   494  ARG494      0.2205
     73  NE        37.1180    8.9530   19.2540 N.pl3 494  ARG494     -0.0865
     74  CZ        35.8650    9.3730   19.4010 C.cat 494  ARG494      0.5346
     75  NH1       35.5250   10.0540   20.4820 N.pl3 494  ARG494      0.1354
     76  NH2       34.9500    9.1110   18.4660 N.pl3 494  ARG494      0.1354
     77  N         40.1840   10.1300   12.4210 N.3   499  ASP499     -0.1239
     78  CA        40.7050   11.3770   12.9750 C.3   499  ASP499      0.1674
     79  C         42.2250   11.4290   13.1450 C.2   499  ASP499      0.2266
     80  O         42.7410   11.8460   14.1900 O.2   499  ASP499     -0.2867
     81  CB        40.0220   11.6650   14.3160 C.3   499  ASP499      0.1410
     82  CG        40.1040   10.4860   15.2790 C.2   499  ASP499      0.3668
     83  OD1       40.8480    9.5210   14.9890 O.co2 499  ASP499     -0.2456
     84  OD2       39.4200   10.5300   16.3270 O.co2 499  ASP499     -0.2456
     85  N         49.5510    5.6560   17.9170 N.3   521  ALA521     -0.1245
     86  CA        48.7160    4.6810   18.6000 C.3   521  ALA521      0.1562
     87  C         47.2780    4.8640   18.1160 C.2   521  ALA521      0.2260
     88  O         46.6670    5.9060   18.3670 O.2   521  ALA521     -0.2867
     89  CB        48.7820    4.9030   20.1100 C.3   521  ALA521      0.0290
     90  N         43.8720    3.9000   18.8290 N.3   523  SER523     -0.1202
     91  CA        43.1140    3.2910   19.9220 C.3   523  SER523      0.2020
     92  C         41.9110    2.4300   19.5820 C.2   523  SER523      0.2618
     93  O         41.5150    1.5870   20.3910 O.2   523  SER523     -0.2717
     94  CB        42.6760    4.3700   20.9180 C.3   523  SER523      0.2103
     95  OG        41.7770    5.2920   20.3280 O.3   523  SER523     -0.2182
     96  N         41.3190    2.6300   18.4110 N.am  524  ARG524     -0.1979
     97  CA        40.1420    1.8490   18.0590 C.3   524  ARG524      0.1597
     98  C         40.2700    1.0710   16.7540 C.2   524  ARG524      0.2287
     99  O         39.2780    0.8670   16.0590 O.2   524  ARG524     -0.2864
    100  CB        38.9150    2.7670   18.0170 C.3   524  ARG524      0.0334
    101  CG        38.7570    3.6100   19.2850 C.3   524  ARG524      0.0492
    102  CD        37.4870    4.4280   19.3050 C.3   524  ARG524      0.2205
    103  NE        37.4650    5.3180   20.4650 N.pl3 524  ARG524     -0.0865
    104  CZ        36.4280    6.0700   20.8200 C.cat 524  ARG524      0.5346
    105  NH1       35.3100    6.0460   20.1030 N.pl3 524  ARG524      0.1354
    106  NH2       36.5080    6.8490   21.8960 N.pl3 524  ARG524      0.1354
    107  N         42.5370   -1.3230   23.4890 N.3   529  LYS529     -0.1245
    108  CA        43.0370    0.0380   23.3440 C.3   529  LYS529      0.1561
    109  C         44.5480    0.0450   23.1830 C.2   529  LYS529      0.2260
    110  O         45.2460   -0.7850   23.7600 O.2   529  LYS529     -0.2867
    111  CB        42.6890    0.8740   24.5810 C.3   529  LYS529      0.0271
    112  CG        41.2110    1.0760   24.8310 C.3   529  LYS529      0.0035
    113  CD        40.5870    2.0200   23.8220 C.3   529  LYS529      0.0206
    114  CE        39.1710    2.3870   24.2560 C.3   529  LYS529      0.1093
    115  NZ        38.4780    3.2640   23.2940 N.3   529  LYS529     -0.1314
    116  N         47.4250    3.0600   23.3680 N.3   531  TYR531     -0.1227
    117  CA        47.6280    4.4830   23.6510 C.3   531  TYR531      0.1736
    118  C         49.0910    4.8880   23.5540 C.2   531  TYR531      0.2595
    119  O         49.9780    4.0350   23.5340 O.2   531  TYR531     -0.2718
    120  CB        47.1240    4.8360   25.0560 C.3   531  TYR531      0.0548
    121  CG        45.6370    4.6570   25.2900 C.ar  531  TYR531     -0.0200
    122  CD1       44.7020    4.9530   24.2930 C.ar  531  TYR531     -0.0009
    123  CD2       45.1600    4.3030   26.5510 C.ar  531  TYR531     -0.0009
    124  CE1       43.3310    4.9140   24.5520 C.ar  531  TYR531      0.0417
    125  CE2       43.7900    4.2650   26.8230 C.ar  531  TYR531      0.0417
    126  CZ        42.8840    4.5750   25.8290 C.ar  531  TYR531      0.1957
    127  OH        41.5370    4.6030   26.1260 O.3   531  TYR531     -0.2866
    128  N         49.3500    6.1920   23.5160 N.am  532  VAL532     -0.1966
    129  CA        50.7260    6.6450   23.4010 C.3   532  VAL532      0.1727
    130  C         51.6390    6.0580   24.4680 C.2   532  VAL532      0.2616
    131  O         52.7820    5.7360   24.1690 O.2   532  VAL532     -0.2715
    132  CB        50.8460    8.1990   23.4160 C.3   532  VAL532      0.0290
    133  CG1       50.3650    8.7730   22.0780 C.3   532  VAL532      0.0023
    134  CG2       50.0460    8.7880   24.5720 C.3   532  VAL532      0.0023
    135  N         51.1510    5.8940   25.7000 N.am  533  GLN533     -0.1977
    136  CA        52.0100    5.3480   26.7540 C.3   533  GLN533      0.1601
    137  C         52.4440    3.9000   26.5050 C.2   533  GLN533      0.2287
    138  O         53.4450    3.4460   27.0660 O.2   533  GLN533     -0.2864
    139  CB        51.3450    5.4510   28.1330 C.3   533  GLN533      0.0394
    140  CG        49.9620    4.8380   28.2170 C.3   533  GLN533      0.0908
    141  CD        48.8850    5.8640   27.9790 C.2   533  GLN533      0.2608
    142  OE1       49.0130    6.7140   27.1040 O.2   533  GLN533     -0.2717
    143  NE2       47.8070    5.7870   28.7560 N.am  533  GLN533     -0.0878
    144  N         47.6990   18.0230   25.6080 N.3   558  GLY558     -0.1210
    145  CA        46.4070   17.3820   25.4400 C.3   558  GLY558      0.1956
    146  C         45.6050   17.2650   26.7220 C.2   558  GLY558      0.2611
    147  O         45.6790   18.1390   27.5900 O.2   558  GLY558     -0.2717
    148  N         44.8450   16.1770   26.8340 N.am  559  ASP559     -0.1973
    149  CA        43.9870   15.9200   27.9910 C.3   559  ASP559      0.1709
    150  C         44.7280   15.8900   29.3310 C.2   559  ASP559      0.2293
    151  O         45.6060   15.0560   29.5430 O.2   559  ASP559     -0.2864
    152  CB        43.2460   14.5930   27.7980 C.3   559  ASP559      0.1436
    153  CG        42.4920   14.1670   29.0440 C.2   559  ASP559      0.3671
    154  OD1       41.6180   14.9370   29.4830 O.co2 559  ASP559     -0.2456
    155  OD2       42.7780   13.0760   29.5870 O.co2 559  ASP559     -0.2456
    156  N         43.1780   15.4970   32.3850 N.3   561  ARG561     -0.1231
    157  CA        42.4750   14.5870   33.2860 C.3   561  ARG561      0.1694
    158  C         43.0490   13.1790   33.4100 C.2   561  ARG561      0.2592
    159  O         43.3390   12.7140   34.5180 O.2   561  ARG561     -0.2718
    160  CB        41.0040   14.5060   32.8750 C.3   561  ARG561      0.0321
    161  CG        40.3770   15.8750   33.1650 C.3   561  ARG561      0.0489
    162  CD        38.9210   15.9280   32.7760 C.3   561  ARG561      0.2205
    163  NE        38.7990   15.7930   31.3090 N.pl3 561  ARG561     -0.0865
    164  CZ        38.4320   14.5820   30.9190 C.cat 561  ARG561      0.5346
    165  NH1       38.3160   13.6880   31.8890 N.pl3 561  ARG561      0.1354
    166  NH2       38.4250   14.3060   29.6720 N.pl3 561  ARG561      0.1354
    167  N         43.2060   12.4900   32.2850 N.am  562  ASN562     -0.1960
    168  CA        43.7140   11.1290   32.3310 C.3   562  ASN562      0.1819
    169  C         44.9940   10.8720   31.5570 C.2   562  ASN562      0.2621
    170  O         45.9280   10.2820   32.0900 O.2   562  ASN562     -0.2715
    171  CB        42.6340   10.1580   31.8560 C.3   562  ASN562      0.1195
    172  CG        41.3680   10.2420   32.6950 C.2   562  ASN562      0.2630
    173  OD1       40.4420   10.9890   32.3750 O.2   562  ASN562     -0.2716
    174  ND2       41.3350    9.4870   33.7880 N.am  562  ASN562     -0.0877
    175  N         45.0380   11.3020   30.3000 N.am  563  MET563     -0.1977
    176  CA        46.2240   11.0700   29.4810 C.3   563  MET563      0.1605
    177  C         47.5040   11.6200   30.1080 C.2   563  MET563      0.2287
    178  O         48.4890   10.8960   30.2560 O.2   563  MET563     -0.2864
    179  CB        46.0280   11.6760   28.0850 C.3   563  MET563      0.0413
    180  CG        47.2050   11.4770   27.1210 C.3   563  MET563      0.0598
    181  SD        48.6170   12.5690   27.3680 S.3   563  MET563     -0.1393
    182  CE        47.9410   14.1200   26.8380 C.3   563  MET563      0.0692
    183  N         48.5470    9.4760   33.0860 N.3   566  ASP566     -0.1239
    184  CA        48.9750    8.1380   32.6930 C.3   566  ASP566      0.1674
    185  C         50.3640    8.2050   32.0470 C.2   566  ASP566      0.2266
    186  O         51.1930    7.3220   32.2550 O.2   566  ASP566     -0.2867
    187  CB        47.9910    7.5070   31.7020 C.3   566  ASP566      0.1410
    188  CG        46.7040    7.0430   32.3620 C.2   566  ASP566      0.3668
    189  OD1       46.7170    6.7460   33.5770 O.co2 566  ASP566     -0.2456
    190  OD2       45.6770    6.9580   31.6600 O.co2 566  ASP566     -0.2456
    191  N         44.9700   20.6270   29.1430 N.3   604  TRP604     -0.1227
    192  CA        43.7250   21.2920   29.5160 C.3   604  TRP604      0.1737
    193  C         42.5700   20.2990   29.6320 C.2   604  TRP604      0.2596
    194  O         42.7060   19.1200   29.2760 O.2   604  TRP604     -0.2718
    195  CB        43.3800   22.3730   28.4840 C.3   604  TRP604      0.0564
    196  CG        43.0940   21.8420   27.1080 C.ar  604  TRP604      0.0003
    197  CD1       41.8770   21.4380   26.6140 C.ar  604  TRP604      0.0946
    198  CD2       44.0410   21.6360   26.0500 C.ar  604  TRP604      0.0152
    199  NE1       42.0130   21.0000   25.3190 N.ar  604  TRP604     -0.2442
    200  CE2       43.3290   21.1080   24.9470 C.ar  604  TRP604      0.0810
    201  CE3       45.4240   21.8480   25.9260 C.ar  604  TRP604      0.0012
    202  CZ2       43.9510   20.7870   23.7330 C.ar  604  TRP604      0.0191
    203  CZ3       46.0450   21.5300   24.7140 C.ar  604  TRP604      0.0001
    204  CH2       45.3030   21.0020   23.6350 C.ar  604  TRP604      0.0015
    205  N         41.4360   20.7880   30.1300 N.am  605  SER605     -0.1952
    206  CA        40.2470   19.9630   30.3090 C.3   605  SER605      0.1924
    207  C         39.1200   20.4180   29.3980 C.2   605  SER605      0.2314
    208  O         39.2510   21.4750   28.7450 O.2   605  SER605     -0.2863
    209  CB        39.7640   20.0270   31.7620 C.3   605  SER605      0.2116
    210  OG        40.7650   19.5830   32.6630 O.3   605  SER605     -0.2180
@<TRIPOS>BOND
     1    15    14    2
     2    77    78    1
     3    78    79    1
     4    78    81    1
     5    14    13    1
     6    79    80    2
     7     4     3    2
     8    12    13    1
     9    13    16    1
    10    81    82    1
    11    16    17    1
    12     3     2    1
    13     1     2    1
    14    65    64    1
    15    83    82   ar
    16    82    84   ar
    17     2     5    1
    18    18    17    1
    19    17    19    1
    20    68    69    2
    21    68    67    1
    22    99    98    2
    23    64    61    1
    24     5     6    1
    25    98    97    1
    26    70    67    1
    27    70    71    1
    28    67    66    1
    29    66    62   am
    30    62    61    1
    31    62    63    2
    32    61    60    1
    33     6     7    1
    34    85    86    1
    35   100    97    1
    36   100   101    1
    37    60    58   am
    38    97    96    1
    39    72    71    1
    40    72    73    1
    41    87    88    2
    42    87    86    1
    43    21    20    1
    44    21    22    1
    45    21    24    1
    46     8     7    1
    47     8     9    2
    48    11     9    1
    49    96    92   am
    50    76    74    1
    51    22    23    2
    52    86    89    1
    53    58    59    2
    54    58    57    1
    55    44    43    2
    56    90    91    1
    57     9    10    1
    58    26    24    1
    59    56    57    1
    60    24    25    1
    61    73    74    2
    62   101   102    1
    63    51    49    1
    64   102   103    1
    65    43    42    1
    66    43    45   am
    67    74    75    1
    68    92    91    1
    69    92    93    2
    70    42    41    1
    71    46    45    1
    72    46    49    1
    73    46    47    1
    74    91    94    1
    75    41    36   am
    76    27    28    1
    77   105   104    1
    78    49    50    1
    79    48    47    2
    80    95    94    1
    81    47    52   am
    82   103   104    2
    83    30    29    2
    84   104   106    1
    85    29    28    1
    86    54    55    2
    87    54    53    1
    88    36    35    1
    89    36    37    2
    90    28    31    1
    91    52    53    1
    92    35    34    1
    93    35    38    1
    94    34    40    1
    95   133   132    1
    96    38    39    1
    97    31    33    1
    98    31    32    1
    99   109   108    1
   100   109   110    2
   101   115   114    1
   102    40    39    1
   103   108   107    1
   104   108   111    1
   105   116   117    1
   106   129   132    1
   107   129   128    1
   108   129   130    1
   109   132   134    1
   110   128   118   am
   111   119   118    2
   112   118   117    1
   113   204   202   ar
   114   204   203   ar
   115   117   120    1
   116   202   200   ar
   117   113   114    1
   118   113   112    1
   119   131   130    2
   120   122   124   ar
   121   122   121   ar
   122   130   135   am
   123   124   126   ar
   124   111   112    1
   125   203   201   ar
   126   200   199   ar
   127   200   198   ar
   128   120   121    1
   129   121   123   ar
   130   199   197   ar
   131   145   144    1
   132   145   146    1
   133   135   136    1
   134   126   127    1
   135   126   125   ar
   136   201   198   ar
   137   198   196   ar
   138   137   136    1
   139   137   138    2
   140   123   125   ar
   141   197   196   ar
   142   146   148   am
   143   146   147    2
   144   136   139    1
   145   148   149    1
   146   182   181    1
   147   142   141    2
   148   196   195    1
   149   180   181    1
   150   180   179    1
   151   152   149    1
   152   152   153    1
   153   141   140    1
   154   141   143   am
   155   149   150    1
   156   179   176    1
   157   139   140    1
   158   195   192    1
   159   208   207    2
   160   153   154   ar
   161   153   155   ar
   162   191   192    1
   163   194   193    2
   164   150   151    2
   165   207   206    1
   166   176   177    1
   167   176   175    1
   168   192   193    1
   169   193   205   am
   170   166   164    1
   171   177   178    2
   172   205   206    1
   173   175   169   am
   174   206   209    1
   175   164   163    2
   176   164   165    1
   177   163   162    1
   178   169   170    2
   179   169   168    1
   180   190   188   ar
   181   187   188    1
   182   187   184    1
   183   209   210    1
   184   171   168    1
   185   171   172    1
   186   185   186    2
   187   185   184    1
   188   167   168    1
   189   167   158   am
   190   188   189   ar
   191   173   172    2
   192   156   157    1
   193   184   183    1
   194   172   174   am
   195   162   161    1
   196   160   161    1
   197   160   157    1
   198   157   158    1
   199   158   159    2
