@<TRIPOS>MOLECULE
tmp/5urgB02.pdb
 174 164 0 0 0
SMALL
GASTEIGER

@<TRIPOS>ATOM
      1  N         33.0520   13.8640   15.7330 N.3   229  ARG229     -0.1245
      2  CA        33.2850   15.1360   16.3990 C.3   229  ARG229      0.1563
      3  C         33.7160   16.1410   15.3400 C.2   229  ARG229      0.2260
      4  O         33.8190   15.8120   14.1530 O.2   229  ARG229     -0.2867
      5  CB        34.3950   15.0050   17.4410 C.3   229  ARG229      0.0307
      6  CG        34.0720   14.1100   18.6220 C.3   229  ARG229      0.0489
      7  CD        35.1920   14.1930   19.6540 C.3   229  ARG229      0.2205
      8  NE        36.4510   13.7130   19.1030 N.pl3 229  ARG229     -0.0865
      9  CZ        37.6500   14.0140   19.5890 C.cat 229  ARG229      0.5346
     10  NH1       37.7600   14.8070   20.6440 N.pl3 229  ARG229      0.1354
     11  NH2       38.7400   13.5050   19.0290 N.pl3 229  ARG229      0.1354
     12  N         38.7680   21.5020   19.2900 N.3   405  VAL405     -0.1245
     13  CA        37.6670   20.5790   19.1390 C.3   405  VAL405      0.1561
     14  C         36.4510   21.4110   19.4930 C.2   405  VAL405      0.2260
     15  O         36.4660   22.1290   20.4900 O.2   405  VAL405     -0.2867
     16  CB        37.7580   19.3870   20.1180 C.3   405  VAL405      0.0252
     17  CG1       37.8480   19.8890   21.5710 C.3   405  VAL405      0.0019
     18  CG2       36.5300   18.4990   19.9450 C.3   405  VAL405      0.0019
     19  N         48.3560   13.6980   23.2670 N.3   459  PRO459     -0.2102
     20  CA        47.2190   12.9540   22.7160 C.3   459  PRO459      0.1504
     21  C         46.0460   13.8670   22.3240 C.2   459  PRO459      0.2576
     22  O         45.8630   14.9440   22.8970 O.2   459  PRO459     -0.2718
     23  CB        46.8660   11.9900   23.8480 C.3   459  PRO459      0.0282
     24  CG        47.2970   12.7380   25.0870 C.3   459  PRO459      0.0208
     25  CD        48.6160   13.3110   24.6670 C.3   459  PRO459      0.0893
     26  N         45.2650   13.4420   21.3350 N.am  460  GLY460     -0.1943
     27  CA        44.1230   14.2360   20.9040 C.3   460  GLY460      0.2014
     28  C         44.4580   15.6690   20.5020 C.2   460  GLY460      0.2640
     29  O         45.5000   15.9200   19.8870 O.2   460  GLY460     -0.2714
     30  N         43.5880   16.6180   20.8410 N.am  461  THR461     -0.1936
     31  CA        43.8530   18.0090   20.4850 C.3   461  THR461      0.2028
     32  C         45.1140   18.5290   21.1850 C.2   461  THR461      0.2642
     33  O         45.5610   19.6390   20.9070 O.2   461  THR461     -0.2714
     34  CB        42.6790   18.9330   20.8440 C.3   461  THR461      0.1808
     35  OG1       42.6340   19.0990   22.2600 O.3   461  THR461     -0.2208
     36  CG2       41.3640   18.3330   20.3850 C.3   461  THR461      0.0379
     37  N         45.6790   17.7220   22.0860 N.am  462  GLY462     -0.1954
     38  CA        46.8950   18.1040   22.7880 C.3   462  GLY462      0.1869
     39  C         48.0650   18.2650   21.8300 C.2   462  GLY462      0.2309
     40  O         49.1650   18.6920   22.2140 O.2   462  GLY462     -0.2863
     41  N         48.2710   10.8160   19.9050 N.3   491  GLY491     -0.1210
     42  CA        47.2790    9.7750   20.0650 C.3   491  GLY491      0.1956
     43  C         45.9220   10.1870   19.5340 C.2   491  GLY491      0.2612
     44  O         45.5080   11.3350   19.6680 O.2   491  GLY491     -0.2717
     45  N         45.2220    9.2500   18.9150 N.am  492  CYS492     -0.1956
     46  CA        43.9030    9.5470   18.3990 C.3   492  CYS492      0.1843
     47  C         43.1010    8.2570   18.4550 C.2   492  CYS492      0.2625
     48  O         43.6440    7.2080   18.7910 O.2   492  CYS492     -0.2714
     49  CB        44.0070   10.0730   16.9620 C.3   492  CYS492      0.0997
     50  SG        44.4610    8.8300   15.7430 S.3   492  CYS492     -0.0797
     51  N         41.8120    8.3350   18.1480 N.am  493  ARG493     -0.1977
     52  CA        40.9450    7.1610   18.1650 C.3   493  ARG493      0.1597
     53  C         41.1560    6.2380   16.9560 C.2   493  ARG493      0.2287
     54  O         41.3540    5.0330   17.1170 O.2   493  ARG493     -0.2864
     55  CB        39.4940    7.6170   18.2290 C.3   493  ARG493      0.0334
     56  CG        39.2980    8.6840   19.2720 C.3   493  ARG493      0.0492
     57  CD        37.8540    9.0270   19.5090 C.3   493  ARG493      0.2205
     58  NE        37.7730    9.9570   20.6290 N.pl3 493  ARG493     -0.0865
     59  CZ        36.6530   10.5170   21.0690 C.cat 493  ARG493      0.5346
     60  NH1       35.4970   10.2350   20.4800 N.pl3 493  ARG493      0.1354
     61  NH2       36.6970   11.3640   22.0970 N.pl3 493  ARG493      0.1354
     62  N         39.8800   10.7160   13.4320 N.3   498  ASP498     -0.1239
     63  CA        40.4110   11.9710   13.9440 C.3   498  ASP498      0.1674
     64  C         41.9260   12.0160   14.0860 C.2   498  ASP498      0.2266
     65  O         42.4460   12.3490   15.1510 O.2   498  ASP498     -0.2867
     66  CB        39.7630   12.3030   15.2950 C.3   498  ASP498      0.1410
     67  CG        39.9330   11.1910   16.3170 C.2   498  ASP498      0.3668
     68  OD1       40.7380   10.2720   16.0640 O.co2 498  ASP498     -0.2456
     69  OD2       39.2710   11.2390   17.3770 O.co2 498  ASP498     -0.2456
     70  N         49.4470    6.4360   18.8790 N.3   520  ALA520     -0.1245
     71  CA        48.6250    5.4300   19.5420 C.3   520  ALA520      0.1562
     72  C         47.1920    5.5600   19.0190 C.2   520  ALA520      0.2260
     73  O         46.5560    6.6050   19.1760 O.2   520  ALA520     -0.2867
     74  CB        48.6470    5.6320   21.0650 C.3   520  ALA520      0.0290
     75  N         43.8200    4.5350   19.7270 N.3   522  SER522     -0.1202
     76  CA        43.0470    3.9930   20.8350 C.3   522  SER522      0.2020
     77  C         41.8920    3.0630   20.5030 C.2   522  SER522      0.2618
     78  O         41.5890    2.1570   21.2780 O.2   522  SER522     -0.2717
     79  CB        42.5240    5.1330   21.7110 C.3   522  SER522      0.2103
     80  OG        41.5180    5.8690   21.0470 O.3   522  SER522     -0.2182
     81  N         41.2550    3.2620   19.3560 N.am  523  ARG523     -0.1979
     82  CA        40.1050    2.4350   19.0070 C.3   523  ARG523      0.1597
     83  C         40.2660    1.6390   17.7280 C.2   523  ARG523      0.2287
     84  O         39.2750    1.3030   17.0760 O.2   523  ARG523     -0.2864
     85  CB        38.8600    3.3250   18.9190 C.3   523  ARG523      0.0334
     86  CG        38.7790    4.2900   20.0920 C.3   523  ARG523      0.0492
     87  CD        37.5420    5.1680   20.1160 C.3   523  ARG523      0.2205
     88  NE        37.5130    5.9160   21.3690 N.pl3 523  ARG523     -0.0865
     89  CZ        36.5150    6.7000   21.7630 C.cat 523  ARG523      0.5346
     90  NH1       35.4490    6.8490   20.9970 N.pl3 523  ARG523      0.1354
     91  NH2       36.5760    7.3130   22.9390 N.pl3 523  ARG523      0.1354
     92  N         42.4830   -0.9740   24.2640 N.3   528  LYS528     -0.1245
     93  CA        42.9650    0.4000   24.1720 C.3   528  LYS528      0.1561
     94  C         44.4750    0.4930   23.9620 C.2   528  LYS528      0.2260
     95  O         45.2320   -0.3370   24.4590 O.2   528  LYS528     -0.2867
     96  CB        42.6130    1.1740   25.4500 C.3   528  LYS528      0.0271
     97  CG        41.1260    1.4390   25.6920 C.3   528  LYS528      0.0035
     98  CD        40.5300    2.3370   24.6120 C.3   528  LYS528      0.0206
     99  CE        39.0960    2.7380   24.9430 C.3   528  LYS528      0.1093
    100  NZ        38.4150    3.3630   23.7730 N.3   528  LYS528     -0.1314
    101  N         47.1420    3.6580   24.2490 N.3   530  TYR530     -0.1227
    102  CA        47.4020    5.0660   24.5050 C.3   530  TYR530      0.1736
    103  C         48.8860    5.3900   24.3410 C.2   530  TYR530      0.2595
    104  O         49.7180    4.4890   24.2010 O.2   530  TYR530     -0.2718
    105  CB        46.9530    5.4390   25.9280 C.3   530  TYR530      0.0548
    106  CG        45.4720    5.2360   26.2060 C.ar  530  TYR530     -0.0200
    107  CD1       44.5080    5.5540   25.2440 C.ar  530  TYR530     -0.0009
    108  CD2       45.0330    4.7630   27.4430 C.ar  530  TYR530     -0.0009
    109  CE1       43.1490    5.4060   25.5070 C.ar  530  TYR530      0.0417
    110  CE2       43.6690    4.6130   27.7190 C.ar  530  TYR530      0.0417
    111  CZ        42.7350    4.9380   26.7460 C.ar  530  TYR530      0.1957
    112  OH        41.3890    4.8200   27.0150 O.3   530  TYR530     -0.2866
    113  N         49.2110    6.6780   24.3710 N.am  531  VAL531     -0.1966
    114  CA        50.5900    7.1130   24.2260 C.3   531  VAL531      0.1727
    115  C         51.5530    6.5150   25.2460 C.2   531  VAL531      0.2616
    116  O         52.6530    6.1100   24.8710 O.2   531  VAL531     -0.2715
    117  CB        50.7260    8.6620   24.2860 C.3   531  VAL531      0.0290
    118  CG1       50.2890    9.2810   22.9650 C.3   531  VAL531      0.0023
    119  CG2       49.9090    9.2160   25.4440 C.3   531  VAL531      0.0023
    120  N         51.1670    6.4500   26.5220 N.am  532  GLN532     -0.1977
    121  CA        52.0780    5.8970   27.5240 C.3   532  GLN532      0.1601
    122  C         52.4840    4.4650   27.1770 C.2   532  GLN532      0.2287
    123  O         53.5550    4.0020   27.5750 O.2   532  GLN532     -0.2864
    124  CB        51.4850    5.9600   28.9430 C.3   532  GLN532      0.0394
    125  CG        50.1190    5.3140   29.1150 C.3   532  GLN532      0.0908
    126  CD        48.9930    6.2250   28.6780 C.2   532  GLN532      0.2608
    127  OE1       49.1050    6.9370   27.6760 O.2   532  GLN532     -0.2717
    128  NE2       47.8930    6.2000   29.4220 N.am  532  GLN532     -0.0878
    129  N         44.0060   17.6540   27.4530 N.3   558  PHE558     -0.1227
    130  CA        42.8750   17.9560   28.3140 C.3   558  PHE558      0.1736
    131  C         42.8830   17.2060   29.6390 C.2   558  PHE558      0.2595
    132  O         43.0090   17.8060   30.6960 O.2   558  PHE558     -0.2718
    133  CB        41.5640   17.6240   27.5930 C.3   558  PHE558      0.0547
    134  CG        41.0620   18.7150   26.6920 C.ar  558  PHE558     -0.0202
    135  CD1       40.6360   19.9280   27.2200 C.ar  558  PHE558     -0.0042
    136  CD2       40.9780   18.5120   25.3120 C.ar  558  PHE558     -0.0042
    137  CE1       40.1300   20.9270   26.3870 C.ar  558  PHE558     -0.0003
    138  CE2       40.4740   19.5030   24.4680 C.ar  558  PHE558     -0.0003
    139  CZ        40.0490   20.7120   25.0030 C.ar  558  PHE558     -0.0000
    140  N         42.7300   15.8890   29.5560 N.am  559  ALA559     -0.1980
    141  CA        42.6470   15.0080   30.7180 C.3   559  ALA559      0.1597
    142  C         43.7420   15.1450   31.7700 C.2   559  ALA559      0.2287
    143  O         44.9110   14.8670   31.5060 O.2   559  ALA559     -0.2864
    144  CB        42.5580   13.5610   30.2460 C.3   559  ALA559      0.0319
    145  N         44.1100   13.3040   34.2890 N.3   561  ASN561     -0.1225
    146  CA        44.5930   11.9870   34.6730 C.3   561  ASN561      0.1785
    147  C         45.4740   11.4100   33.5560 C.2   561  ASN561      0.2597
    148  O         46.3250   10.5520   33.8110 O.2   561  ASN561     -0.2718
    149  CB        43.4200   11.0530   35.0040 C.3   561  ASN561      0.1169
    150  CG        42.4790   10.8660   33.8470 C.2   561  ASN561      0.2627
    151  OD1       42.0100   11.8390   33.2500 O.2   561  ASN561     -0.2716
    152  ND2       42.1790    9.6080   33.5250 N.am  561  ASN561     -0.0877
    153  N         45.2690   11.8860   32.3250 N.am  562  MET562     -0.1979
    154  CA        46.0800   11.4540   31.1840 C.3   562  MET562      0.1605
    155  C         47.4900   11.9110   31.5030 C.2   562  MET562      0.2287
    156  O         48.4520   11.1470   31.4130 O.2   562  MET562     -0.2864
    157  CB        45.6060   12.1340   29.8900 C.3   562  MET562      0.0413
    158  CG        46.5510   12.0090   28.6850 C.3   562  MET562      0.0598
    159  SD        48.0380   13.0750   28.7030 S.3   562  MET562     -0.1393
    160  CE        47.3190   14.6900   28.5110 C.3   562  MET562      0.0692
    161  N         48.9240    9.7010   34.1030 N.3   565  ASP565     -0.1239
    162  CA        49.2640    8.3490   33.6790 C.3   565  ASP565      0.1674
    163  C         50.5950    8.4620   32.9430 C.2   565  ASP565      0.2266
    164  O         51.4390    7.5710   33.0220 O.2   565  ASP565     -0.2867
    165  CB        48.2120    7.7640   32.7290 C.3   565  ASP565      0.1410
    166  CG        46.9350    7.3540   33.4380 C.2   565  ASP565      0.3668
    167  OD1       46.9700    7.1690   34.6700 O.co2 565  ASP565     -0.2456
    168  OD2       45.8990    7.1980   32.7550 O.co2 565  ASP565     -0.2456
    169  N         42.9440   21.2070   32.0210 N.3   604  SER604     -0.1217
    170  CA        41.9400   20.9900   33.0520 C.3   604  SER604      0.1889
    171  C         42.5220   21.2250   34.4430 C.2   604  SER604      0.2288
    172  O         43.6560   21.7430   34.5280 O.2   604  SER604     -0.2866
    173  CB        41.4040   19.5700   32.9440 C.3   604  SER604      0.2089
    174  OG        41.0110   19.3080   31.6100 O.3   604  SER604     -0.2183
@<TRIPOS>BOND
     1    62    63    1
     2    63    64    1
     3    63    66    1
     4    64    65    2
     5     4     3    2
     6    66    67    1
     7     3     2    1
     8     1     2    1
     9    50    49    1
    10    68    67   ar
    11    67    69   ar
    12     2     5    1
    13    53    54    2
    14    53    52    1
    15    49    46    1
    16    84    83    2
    17     5     6    1
    18    83    82    1
    19    51    52    1
    20    51    47   am
    21    52    55    1
    22    55    56    1
    23    46    47    1
    24    46    45    1
    25    47    48    2
    26     6     7    1
    27    70    71    1
    28    45    43   am
    29    85    82    1
    30    85    86    1
    31    82    81    1
    32    72    73    2
    33    72    71    1
    34    11     9    1
    35     8     9    2
    36     8     7    1
    37    13    12    1
    38    13    14    1
    39    13    16    1
    40    56    57    1
    41    81    77   am
    42    14    15    2
    43    57    58    1
    44    43    44    2
    45    43    42    1
    46    71    74    1
    47     9    10    1
    48    75    76    1
    49    29    28    2
    50    41    42    1
    51    18    16    1
    52    86    87    1
    53    87    88    1
    54    16    17    1
    55    36    34    1
    56    60    59    1
    57    31    30    1
    58    31    34    1
    59    31    32    1
    60    28    30   am
    61    28    27    1
    62    77    76    1
    63    77    78    2
    64    58    59    2
    65    76    79    1
    66    34    35    1
    67    27    26    1
    68    33    32    2
    69    90    89    1
    70    80    79    1
    71    59    61    1
    72    32    37   am
    73    26    21   am
    74    88    89    2
    75    89    91    1
    76    39    40    2
    77    39    38    1
    78    37    38    1
    79    21    20    1
    80    21    22    2
    81    20    19    1
    82    20    23    1
    83   118   117    1
    84    19    25    1
    85   100    99    1
    86    23    24    1
    87    94    93    1
    88    94    95    2
    89    93    92    1
    90    93    96    1
    91   104   103    2
    92   114   117    1
    93   114   113    1
    94   114   115    1
    95   101   102    1
    96   117   119    1
    97   103   113   am
    98   103   102    1
    99   138   139   ar
   100   138   136   ar
   101   102   105    1
   102    98    99    1
   103    98    97    1
   104    25    24    1
   105   116   115    2
   106   139   137   ar
   107   107   109   ar
   108   107   106   ar
   109   115   120   am
   110   136   134   ar
   111    96    97    1
   112   109   111   ar
   113   105   106    1
   114   106   108   ar
   115   137   135   ar
   116   120   121    1
   117   134   135   ar
   118   134   133    1
   119   111   112    1
   120   111   110   ar
   121   122   121    1
   122   122   123    2
   123   108   110   ar
   124   129   130    1
   125   121   124    1
   126   133   130    1
   127   127   126    2
   128   130   131    1
   129   160   159    1
   130   126   125    1
   131   126   128   am
   132   158   159    1
   133   158   157    1
   134   124   125    1
   135   140   131   am
   136   140   141    1
   137   131   132    2
   138   157   154    1
   139   144   141    1
   140   141   142    1
   141   154   155    1
   142   154   153    1
   143   156   155    2
   144   143   142    2
   145   174   173    1
   146   169   170    1
   147   153   147   am
   148   165   166    1
   149   165   162    1
   150   168   166   ar
   151   163   164    2
   152   163   162    1
   153   173   170    1
   154   170   171    1
   155   151   150    2
   156   166   167   ar
   157   152   150   am
   158   147   148    2
   159   147   146    1
   160   162   161    1
   161   150   149    1
   162   145   146    1
   163   171   172    2
   164   146   149    1
