@<TRIPOS>MOLECULE
tmp/5uriB02.pdb
 126 119 0 0 0
SMALL
GASTEIGER

@<TRIPOS>ATOM
      1  N        -17.3810  -13.4450   43.9650 N.3   227  ARG227     -0.1245
      2  CA       -17.1130  -14.7390   43.3660 C.3   227  ARG227      0.1563
      3  C        -16.6980  -15.7100   44.4760 C.2   227  ARG227      0.2260
      4  O        -16.6410  -15.3440   45.6560 O.2   227  ARG227     -0.2867
      5  CB       -15.9950  -14.6200   42.3300 C.3   227  ARG227      0.0307
      6  CG       -16.2860  -13.6400   41.2160 C.3   227  ARG227      0.0489
      7  CD       -15.2210  -13.7230   40.1560 C.3   227  ARG227      0.2205
      8  NE       -13.9010  -13.4730   40.7190 N.pl3 227  ARG227     -0.0865
      9  CZ       -12.7620  -13.6190   40.0490 C.cat 227  ARG227      0.5346
     10  NH1      -12.7820  -14.0160   38.7840 N.pl3 227  ARG227      0.1354
     11  NH2      -11.6020  -13.3770   40.6460 N.pl3 227  ARG227      0.1354
     12  N         -2.3080  -13.4930   36.7410 N.3   458  PRO458     -0.2102
     13  CA        -3.4170  -12.8090   37.4090 C.3   458  PRO458      0.1504
     14  C         -4.5540  -13.7750   37.7290 C.2   458  PRO458      0.2576
     15  O         -4.7520  -14.7600   37.0230 O.2   458  PRO458     -0.2718
     16  CB        -3.8270  -11.7570   36.3870 C.3   458  PRO458      0.0282
     17  CG        -3.6060  -12.4630   35.1040 C.3   458  PRO458      0.0208
     18  CD        -2.2490  -13.1080   35.3200 C.3   458  PRO458      0.0893
     19  N         -5.2880  -13.4830   38.7990 N.am  459  GLY459     -0.1957
     20  CA        -6.3990  -14.3240   39.2000 C.3   459  GLY459      0.1869
     21  C         -5.9980  -15.7430   39.5630 C.2   459  GLY459      0.2309
     22  O         -5.0190  -15.9730   40.2760 O.2   459  GLY459     -0.2863
     23  N         -2.3010  -10.3450   39.7710 N.3   490  GLY490     -0.1210
     24  CA        -3.3330   -9.3360   39.6390 C.3   490  GLY490      0.1956
     25  C         -4.6700   -9.8060   40.1830 C.2   490  GLY490      0.2612
     26  O         -5.0220  -10.9750   40.0530 O.2   490  GLY490     -0.2717
     27  N         -5.4040   -8.8950   40.8150 N.am  491  CYS491     -0.1956
     28  CA        -6.7230   -9.1950   41.3580 C.3   491  CYS491      0.1843
     29  C         -7.5080   -7.8930   41.4210 C.2   491  CYS491      0.2625
     30  O         -6.9730   -6.8330   41.1200 O.2   491  CYS491     -0.2714
     31  CB        -6.6290   -9.8460   42.7530 C.3   491  CYS491      0.0997
     32  SG        -6.0700   -8.7900   44.0930 S.3   491  CYS491     -0.0797
     33  N         -8.7700   -7.9620   41.8250 N.am  492  ARG492     -0.1977
     34  CA        -9.5980   -6.7700   41.8600 C.3   492  ARG492      0.1597
     35  C         -9.3650   -5.8420   43.0340 C.2   492  ARG492      0.2287
     36  O         -9.1030   -4.6520   42.8550 O.2   492  ARG492     -0.2864
     37  CB       -11.0630   -7.1760   41.7830 C.3   492  ARG492      0.0334
     38  CG       -11.3580   -8.0080   40.5470 C.3   492  ARG492      0.0492
     39  CD       -12.7890   -8.4530   40.5270 C.3   492  ARG492      0.2205
     40  NE       -13.1040   -9.3010   39.3830 N.pl3 492  ARG492     -0.0865
     41  CZ       -14.3280   -9.7520   39.1200 C.cat 492  ARG492      0.5346
     42  NH1      -14.5380  -10.5200   38.0630 N.pl3 492  ARG492      0.1354
     43  NH2      -15.3470   -9.4310   39.9130 N.pl3 492  ARG492      0.1354
     44  N         -0.9610   -6.0370   40.8830 N.3   519  ALA519     -0.1245
     45  CA        -1.7990   -5.0490   40.2170 C.3   519  ALA519      0.1562
     46  C         -3.2230   -5.2080   40.7230 C.2   519  ALA519      0.2260
     47  O         -3.8040   -6.2880   40.5990 O.2   519  ALA519     -0.2867
     48  CB        -1.7540   -5.2630   38.7210 C.3   519  ALA519      0.0290
     49  N         -6.6530   -4.2210   39.9190 N.3   521  SER521     -0.1202
     50  CA        -7.5000   -3.6570   38.8760 C.3   521  SER521      0.2020
     51  C         -8.6860   -2.7680   39.2740 C.2   521  SER521      0.2618
     52  O         -9.0850   -1.9050   38.4900 O.2   521  SER521     -0.2717
     53  CB        -8.0000   -4.7760   37.9520 C.3   521  SER521      0.2103
     54  OG        -8.9170   -5.6290   38.6060 O.3   521  SER521     -0.2182
     55  N         -9.2490   -2.9470   40.4650 N.am  522  ARG522     -0.1979
     56  CA       -10.4090   -2.1360   40.8340 C.3   522  ARG522      0.1597
     57  C        -10.3070   -1.3400   42.1340 C.2   522  ARG522      0.2287
     58  O        -11.2980   -1.1950   42.8510 O.2   522  ARG522     -0.2864
     59  CB       -11.6690   -3.0160   40.8700 C.3   522  ARG522      0.0334
     60  CG       -11.8320   -3.8980   39.6410 C.3   522  ARG522      0.0492
     61  CD       -13.1630   -4.6310   39.5960 C.3   522  ARG522      0.2205
     62  NE       -13.1770   -5.5720   38.4830 N.pl3 522  ARG522     -0.0865
     63  CZ       -14.2240   -6.3020   38.1100 C.cat 522  ARG522      0.5346
     64  NH1      -15.3760   -6.2120   38.7580 N.pl3 522  ARG522      0.1354
     65  NH2      -14.1140   -7.1390   37.0850 N.pl3 522  ARG522      0.1354
     66  N         -7.9980    1.0020   35.5330 N.3   527  LYS527     -0.1245
     67  CA        -7.5430   -0.3710   35.6970 C.3   527  LYS527      0.1561
     68  C         -6.0200   -0.4170   35.8230 C.2   527  LYS527      0.2260
     69  O         -5.3150    0.3780   35.1940 O.2   527  LYS527     -0.2867
     70  CB        -7.9450   -1.2110   34.4770 C.3   527  LYS527      0.0271
     71  CG        -9.4230   -1.2550   34.1670 C.3   527  LYS527      0.0035
     72  CD       -10.2070   -2.1800   35.0850 C.3   527  LYS527      0.0206
     73  CE       -11.5980   -2.4550   34.4990 C.3   527  LYS527      0.1093
     74  NZ       -12.4670   -3.3400   35.3320 N.3   527  LYS527     -0.1314
     75  N         -3.2590   -3.4020   35.5100 N.3   529  TYR529     -0.1227
     76  CA        -3.0410   -4.8130   35.2540 C.3   529  TYR529      0.1736
     77  C         -1.5880   -5.1920   35.3830 C.2   529  TYR529      0.2595
     78  O         -0.7180   -4.3270   35.4470 O.2   529  TYR529     -0.2718
     79  CB        -3.5530   -5.1680   33.8610 C.3   529  TYR529      0.0548
     80  CG        -5.0390   -4.9460   33.6880 C.ar  529  TYR529     -0.0200
     81  CD1       -5.9350   -5.3100   34.6890 C.ar  529  TYR529     -0.0009
     82  CD2       -5.5570   -4.4520   32.4940 C.ar  529  TYR529     -0.0009
     83  CE1       -7.3030   -5.2000   34.5020 C.ar  529  TYR529      0.0417
     84  CE2       -6.9290   -4.3410   32.2960 C.ar  529  TYR529      0.0417
     85  CZ        -7.7920   -4.7230   33.3000 C.ar  529  TYR529      0.1957
     86  OH        -9.1470   -4.6900   33.0940 O.3   529  TYR529     -0.2866
     87  N         -1.3230   -6.4900   35.4130 N.am  530  VAL530     -0.1966
     88  CA         0.0460   -6.9590   35.5410 C.3   530  VAL530      0.1727
     89  C          1.0210   -6.3430   34.5440 C.2   530  VAL530      0.2616
     90  O          2.1380   -5.9830   34.9210 O.2   530  VAL530     -0.2715
     91  CB         0.1320   -8.4940   35.4210 C.3   530  VAL530      0.0290
     92  CG1       -0.4550   -9.1500   36.6860 C.3   530  VAL530      0.0023
     93  CG2       -0.5860   -8.9580   34.1560 C.3   530  VAL530      0.0023
     94  N          0.6140   -6.2080   33.2840 N.am  531  GLN531     -0.1977
     95  CA         1.4990   -5.6450   32.2600 C.3   531  GLN531      0.1601
     96  C          1.9860   -4.2130   32.5350 C.2   531  GLN531      0.2287
     97  O          3.0830   -3.8360   32.1200 O.2   531  GLN531     -0.2864
     98  CB         0.8310   -5.7090   30.8820 C.3   531  GLN531      0.0394
     99  CG        -0.5280   -5.0580   30.8150 C.3   531  GLN531      0.0908
    100  CD        -1.6450   -6.0300   31.0970 C.2   531  GLN531      0.2608
    101  OE1       -1.5760   -6.8030   32.0460 O.2   531  GLN531     -0.2717
    102  NE2       -2.6880   -5.9940   30.2770 N.am  531  GLN531     -0.0878
    103  N         -6.7320  -12.9050   26.1320 N.3   560  ASN560     -0.1225
    104  CA        -6.6970  -11.4500   25.9840 C.3   560  ASN560      0.1785
    105  C         -5.5940  -10.8900   26.8950 C.2   560  ASN560      0.2597
    106  O         -4.9390   -9.9110   26.5580 O.2   560  ASN560     -0.2718
    107  CB        -8.0530  -10.8260   26.3450 C.3   560  ASN560      0.1169
    108  CG        -8.1530   -9.3560   25.9340 C.2   560  ASN560      0.2627
    109  OD1       -8.0150   -9.0160   24.7580 O.2   560  ASN560     -0.2716
    110  ND2       -8.3970   -8.4820   26.9070 N.am  560  ASN560     -0.0877
    111  N         -5.3940  -11.5290   28.0450 N.am  561  MET561     -0.1979
    112  CA        -4.3640  -11.1210   28.9990 C.3   561  MET561      0.1605
    113  C         -2.9950  -11.6270   28.5510 C.2   561  MET561      0.2287
    114  O         -2.0030  -10.8960   28.5890 O.2   561  MET561     -0.2864
    115  CB        -4.6910  -11.6750   30.3900 C.3   561  MET561      0.0413
    116  CG        -3.6080  -11.4600   31.4620 C.3   561  MET561      0.0598
    117  SD        -2.2940  -12.7290   31.5220 S.3   561  MET561     -0.1393
    118  CE        -3.2650  -14.2120   31.8290 C.3   561  MET561      0.0692
    119  N         -1.7370   -9.4650   25.7480 N.3   564  ASP564     -0.1239
    120  CA        -1.2310   -8.1850   26.2240 C.3   564  ASP564      0.1674
    121  C          0.1290   -8.3480   26.9010 C.2   564  ASP564      0.2266
    122  O          1.0090   -7.4940   26.7480 O.2   564  ASP564     -0.2867
    123  CB        -2.2210   -7.5410   27.1960 C.3   564  ASP564      0.1410
    124  CG        -3.4340   -6.9850   26.4980 C.2   564  ASP564      0.3668
    125  OD1       -3.2520   -6.3030   25.4660 O.co2 564  ASP564     -0.2456
    126  OD2       -4.5630   -7.2170   26.9840 O.co2 564  ASP564     -0.2456
@<TRIPOS>BOND
     1   109   108    2
     2   125   124   ar
     3   119   120    1
     4   108   107    1
     5   108   110   am
     6   104   103    1
     7   104   107    1
     8   104   105    1
     9   120   121    1
    10   120   123    1
    11   124   126   ar
    12   124   123    1
    13   106   105    2
    14   122   121    2
    15   105   111   am
    16   111   112    1
    17   113   114    2
    18   113   112    1
    19   112   115    1
    20   102   100   am
    21   115   116    1
    22    99    98    1
    23    99   100    1
    24    98    95    1
    25   100   101    2
    26   116   117    1
    27   117   118    1
    28    97    96    2
    29    95    96    1
    30    95    94    1
    31    84    82   ar
    32    84    85   ar
    33    82    80   ar
    34    86    85    1
    35    94    89   am
    36    85    83   ar
    37    80    79    1
    38    80    81   ar
    39    79    76    1
    40    93    91    1
    41    71    70    1
    42    71    72    1
    43    70    67    1
    44    73    72    1
    45    73    74    1
    46    83    81   ar
    47    89    90    2
    48    89    88    1
    49    17    18    1
    50    17    16    1
    51    69    68    2
    52    76    77    1
    53    76    75    1
    54    18    12    1
    55    77    87   am
    56    77    78    2
    57    87    88    1
    58    91    88    1
    59    91    92    1
    60    66    67    1
    61    67    68    1
    62    16    13    1
    63    12    13    1
    64    15    14    2
    65    65    63    1
    66    13    14    1
    67    14    19   am
    68    53    54    1
    69    53    50    1
    70    42    41    1
    71    63    62    2
    72    63    64    1
    73    62    61    1
    74    52    51    2
    75    48    45    1
    76    10     9    1
    77    19    20    1
    78    50    51    1
    79    50    49    1
    80    41    40    2
    81    41    43    1
    82    20    21    1
    83    51    55   am
    84    40    39    1
    85    21    22    2
    86    61    60    1
    87    24    23    1
    88    24    25    1
    89    60    59    1
    90     9    11    1
    91     9     8    2
    92    26    25    2
    93     7     8    1
    94     7     6    1
    95    25    27   am
    96    45    46    1
    97    45    44    1
    98    55    56    1
    99    39    38    1
   100    38    37    1
   101    47    46    2
   102    27    28    1
   103    56    59    1
   104    56    57    1
   105    30    29    2
   106     6     5    1
   107    28    29    1
   108    28    31    1
   109    29    33   am
   110    37    34    1
   111    33    34    1
   112    34    35    1
   113    57    58    2
   114     5     2    1
   115    31    32    1
   116    36    35    2
   117     2     1    1
   118     2     3    1
   119     3     4    2
