@<TRIPOS>MOLECULE
tmp/5uroA00.pdb
 119 115 0 0 0
SMALL
GASTEIGER

@<TRIPOS>ATOM
      1  N         18.1570   27.2620   35.5820 N.3    15  TYR15      -0.1227
      2  CA        16.9320   26.4690   35.5970 C.3    15  TYR15       0.1736
      3  C         15.7960   27.3840   36.0240 C.2    15  TYR15       0.2595
      4  O         15.6670   27.7350   37.2020 O.2    15  TYR15      -0.2718
      5  CB        17.0830   25.2510   36.5310 C.3    15  TYR15       0.0548
      6  CG        18.2620   24.3940   36.1510 C.ar   15  TYR15      -0.0200
      7  CD1       19.5250   24.6380   36.6810 C.ar   15  TYR15      -0.0009
      8  CD2       18.1250   23.3570   35.2340 C.ar   15  TYR15      -0.0009
      9  CE1       20.6120   23.8630   36.3160 C.ar   15  TYR15       0.0417
     10  CE2       19.2020   22.5930   34.8590 C.ar   15  TYR15       0.0417
     11  CZ        20.4440   22.8420   35.4080 C.ar   15  TYR15       0.1957
     12  OH        21.5230   22.0780   35.0250 O.3    15  TYR15      -0.2866
     13  N         14.9860   27.7960   35.0510 N.am   16  GLU16      -0.1965
     14  CA        13.9830   28.8180   35.2950 C.3    16  GLU16       0.1733
     15  C         12.5950   28.3600   34.8850 C.2    16  GLU16       0.2617
     16  O         12.4360   27.3310   34.2230 O.2    16  GLU16      -0.2715
     17  CB        14.3450   30.1010   34.5360 C.3    16  GLU16       0.0429
     18  CG        15.7240   30.6540   34.8780 C.3    16  GLU16       0.1163
     19  CD        16.0110   31.9970   34.2030 C.2    16  GLU16       0.3649
     20  OE1       15.2800   32.3830   33.2560 O.co2  16  GLU16      -0.2457
     21  OE2       16.9820   32.6640   34.6220 O.co2  16  GLU16      -0.2457
     22  N         11.5920   29.1180   35.3140 N.am   17  THR17      -0.1951
     23  CA        10.2440   28.9930   34.7900 C.3    17  THR17       0.1897
     24  C          9.6850   30.3540   34.3860 C.2    17  THR17       0.2313
     25  O         10.1460   31.4050   34.8620 O.2    17  THR17      -0.2863
     26  CB         9.2700   28.3670   35.8060 C.3    17  THR17       0.1794
     27  OG1        9.0260   29.3050   36.8650 O.3    17  THR17      -0.2208
     28  CG2        9.8340   27.0640   36.3800 C.3    17  THR17       0.0378
     29  N          8.8500   25.1780   32.5120 N.3    26  SER26      -0.1202
     30  CA        10.2050   25.1350   33.0330 C.3    26  SER26       0.2020
     31  C         11.1730   24.9480   31.8790 C.2    26  SER26       0.2619
     32  O         10.8220   24.3430   30.8590 O.2    26  SER26      -0.2717
     33  CB        10.3530   24.0080   34.0580 C.3    26  SER26       0.2103
     34  OG        10.2170   22.7570   33.4310 O.3    26  SER26      -0.2182
     35  N         12.3880   25.4680   32.0260 N.am   27  TYR27      -0.1961
     36  CA        13.3700   25.3660   30.9560 C.3    27  TYR27       0.1771
     37  C         14.8000   25.5230   31.4450 C.2    27  TYR27       0.2619
     38  O         15.0630   26.1070   32.5000 O.2    27  TYR27      -0.2715
     39  CB        13.1000   26.4140   29.8600 C.3    27  TYR27       0.0574
     40  CG        13.0510   27.8270   30.3930 C.ar   27  TYR27      -0.0198
     41  CD1       14.2050   28.5870   30.5010 C.ar   27  TYR27      -0.0009
     42  CD2       11.8490   28.3940   30.7950 C.ar   27  TYR27      -0.0009
     43  CE1       14.1630   29.8760   31.0030 C.ar   27  TYR27       0.0417
     44  CE2       11.7990   29.6820   31.3040 C.ar   27  TYR27       0.0417
     45  CZ        12.9610   30.4130   31.3990 C.ar   27  TYR27       0.1957
     46  OH        12.9260   31.6900   31.8980 O.3    27  TYR27      -0.2866
     47  N         15.7170   24.9950   30.6440 N.am   28  ILE28      -0.1977
     48  CA        17.1340   25.2370   30.8050 C.3    28  ILE28       0.1596
     49  C         17.4940   26.4640   29.9790 C.2    28  ILE28       0.2287
     50  O         17.1050   26.5700   28.8110 O.2    28  ILE28      -0.2864
     51  CB        17.9910   24.0390   30.3400 C.3    28  ILE28       0.0276
     52  CG1       17.6870   22.7880   31.1690 C.3    28  ILE28       0.0022
     53  CG2       19.4770   24.4060   30.3940 C.3    28  ILE28       0.0022
     54  CD1       18.4350   21.5570   30.6840 C.3    28  ILE28       0.0001
     55  N         13.4950   14.9610   27.9250 N.3    49  MET49      -0.1230
     56  CA        13.2610   16.2380   28.6000 C.3    49  MET49       0.1702
     57  C         14.3420   17.2000   28.1250 C.2    49  MET49       0.2592
     58  O         15.1230   16.8490   27.2450 O.2    49  MET49      -0.2718
     59  CB        13.2570   16.0840   30.1340 C.3    49  MET49       0.0401
     60  CG        14.5130   15.4820   30.7210 C.3    49  MET49       0.0596
     61  SD        14.2970   14.9450   32.4420 S.3    49  MET49      -0.1393
     62  CE        16.0070   14.6250   32.8610 C.3    49  MET49       0.0692
     63  N         14.3690   18.4230   28.6610 N.am   50  ALA50      -0.1966
     64  CA        15.3330   19.4230   28.2120 C.3    50  ALA50       0.1728
     65  C         16.7590   18.8880   28.2780 C.2    50  ALA50       0.2616
     66  O         17.5650   19.1310   27.3860 O.2    50  ALA50      -0.2715
     67  CB        15.2040   20.7010   29.0530 C.3    50  ALA50       0.0334
     68  N         17.0370   18.1370   29.3420 N.am   51  PHE51      -0.1974
     69  CA        18.3410   17.5140   29.5940 C.3    51  PHE51       0.1639
     70  C         18.7500   16.5630   28.4590 C.2    51  PHE51       0.2290
     71  O         19.9300   16.2600   28.2880 O.2    51  PHE51      -0.2864
     72  CB        18.2850   16.7810   30.9350 C.3    51  PHE51       0.0560
     73  CG        19.6000   16.2010   31.3990 C.ar   51  PHE51      -0.0200
     74  CD1       20.6470   17.0320   31.7790 C.ar   51  PHE51      -0.0042
     75  CD2       19.7610   14.8230   31.5180 C.ar   51  PHE51      -0.0042
     76  CE1       21.8450   16.5080   32.2320 C.ar   51  PHE51      -0.0003
     77  CE2       20.9550   14.2880   31.9830 C.ar   51  PHE51      -0.0003
     78  CZ        22.0040   15.1400   32.3400 C.ar   51  PHE51      -0.0000
     79  N         11.3790   22.0940   29.1260 N.3    71  ASN71      -0.1240
     80  CA        10.6810   20.8430   29.3730 C.3    71  ASN71       0.1653
     81  C          9.2900   21.0500   28.7870 C.2    71  ASN71       0.2266
     82  O          8.5710   21.9850   29.1800 O.2    71  ASN71      -0.2867
     83  CB        10.6480   20.5110   30.8660 C.3    71  ASN71       0.1155
     84  CG        12.0380   20.2440   31.4420 C.2    71  ASN71       0.2627
     85  OD1       12.7840   19.4030   30.9340 O.2    71  ASN71      -0.2716
     86  ND2       12.3970   20.9830   32.4860 N.am   71  ASN71      -0.0877
     87  N          9.4810   19.7620   35.2440 N.3    77  GLY77      -0.1225
     88  CA         8.9980   20.9490   35.9370 C.3    77  GLY77       0.1811
     89  C          7.8810   21.7390   35.2670 C.2    77  GLY77       0.2280
     90  O          7.4300   22.7640   35.7950 O.2    77  GLY77      -0.2866
     91  N         18.7560   11.1360   37.1660 N.3   232  TYR232     -0.1241
     92  CA        18.2480   12.4860   36.9270 C.3   232  TYR232      0.1605
     93  C         16.9230   12.3980   36.1640 C.2   232  TYR232      0.2264
     94  O         15.9840   13.1200   36.4580 O.2   232  TYR232     -0.2867
     95  CB        19.2810   13.3190   36.1680 C.3   232  TYR232      0.0534
     96  CG        18.9870   14.8050   36.1080 C.ar  232  TYR232     -0.0201
     97  CD1       18.7480   15.5320   37.2640 C.ar  232  TYR232     -0.0009
     98  CD2       18.9690   15.4750   34.8930 C.ar  232  TYR232     -0.0009
     99  CE1       18.4940   16.8950   37.2140 C.ar  232  TYR232      0.0417
    100  CE2       18.7150   16.8510   34.8290 C.ar  232  TYR232      0.0417
    101  CZ        18.4730   17.5440   35.9920 C.ar  232  TYR232      0.1957
    102  OH        18.2210   18.9010   35.9430 O.3   232  TYR232     -0.2866
    103  N         13.4570   13.8770   37.6960 N.3   236  GLN236     -0.1245
    104  CA        12.7220   14.9420   37.0080 C.3   236  GLN236      0.1566
    105  C         11.3220   14.4760   36.6280 C.2   236  GLN236      0.2260
    106  O         10.3580   15.2200   36.7630 O.2   236  GLN236     -0.2867
    107  CB        13.4990   15.4190   35.7780 C.3   236  GLN236      0.0367
    108  CG        14.7710   16.1800   36.1310 C.3   236  GLN236      0.0905
    109  CD        14.4700   17.5630   36.7090 C.2   236  GLN236      0.2608
    110  OE1       13.7630   18.3570   36.0930 O.2   236  GLN236     -0.2717
    111  NE2       14.9990   17.8440   37.8920 N.am  236  GLN236     -0.0878
    112  N          8.7280   14.6910   39.3230 N.3   239  LEU239     -0.1245
    113  CA         8.1820   16.0110   39.6590 C.3   239  LEU239      0.1561
    114  C          6.7120   16.0880   39.2680 C.2   239  LEU239      0.2260
    115  O          5.9530   16.8700   39.8260 O.2   239  LEU239     -0.2867
    116  CB         8.9760   17.1320   38.9640 C.3   239  LEU239      0.0270
    117  CG        10.4400   17.3010   39.3910 C.3   239  LEU239      0.0019
    118  CD1       11.1660   18.2750   38.4560 C.3   239  LEU239      0.0001
    119  CD2       10.5120   17.7810   40.8450 C.3   239  LEU239      0.0001
@<TRIPOS>BOND
     1    58    57    2
     2    66    65    2
     3    55    56    1
     4    57    56    1
     5    57    63   am
     6    64    65    1
     7    64    63    1
     8    64    67    1
     9    65    68   am
    10    71    70    2
    11    70    69    1
    12    56    59    1
    13    81    82    2
    14    81    80    1
    15    50    49    2
    16    79    80    1
    17    68    69    1
    18    80    83    1
    19    69    72    1
    20    39    40    1
    21    39    36    1
    22    49    48    1
    23    59    60    1
    24    51    53    1
    25    51    48    1
    26    51    52    1
    27    40    41   ar
    28    40    42   ar
    29    41    43   ar
    30    47    48    1
    31    47    37   am
    32    54    52    1
    33    60    61    1
    34    42    44   ar
    35    32    31    2
    36    83    84    1
    37    85    84    2
    38    72    73    1
    39    36    37    1
    40    36    35    1
    41    43    45   ar
    42    44    45   ar
    43    45    46    1
    44    73    75   ar
    45    73    74   ar
    46    84    86   am
    47    37    38    2
    48    75    77   ar
    49    74    76   ar
    50    31    35   am
    51    31    30    1
    52    77    78   ar
    53    76    78   ar
    54    61    62    1
    55    29    30    1
    56    30    33    1
    57    20    19   ar
    58    34    33    1
    59    19    21   ar
    60    19    18    1
    61    16    15    2
    62    24    23    1
    63    24    25    2
    64    17    18    1
    65    17    14    1
    66    23    22    1
    67    23    26    1
    68   100    98   ar
    69   100   101   ar
    70    10     8   ar
    71    10    11   ar
    72    15    14    1
    73    15    22   am
    74    98    96   ar
    75    12    11    1
    76    13    14    1
    77    13     3   am
    78     8     6   ar
    79    87    88    1
    80    89    90    2
    81    89    88    1
    82    11     9   ar
    83     1     2    1
    84     2     3    1
    85     2     5    1
    86   107   108    1
    87   107   104    1
    88    26    28    1
    89    26    27    1
    90   102   101    1
    91   101    99   ar
    92     3     4    2
    93   110   109    2
    94    96    95    1
    95    96    97   ar
    96   108   109    1
    97     6     5    1
    98     6     7   ar
    99    93    94    2
   100    93    92    1
   101    95    92    1
   102     9     7   ar
   103   105   106    2
   104   105   104    1
   105   109   111   am
   106    92    91    1
   107   104   103    1
   108    99    97   ar
   109   118   117    1
   110   116   117    1
   111   116   113    1
   112   114   113    1
   113   114   115    2
   114   112   113    1
   115   117   119    1
