@<TRIPOS>MOLECULE
tmp/5urqA00.pdb
 157 148 0 0 0
SMALL
GASTEIGER

@<TRIPOS>ATOM
      1  N         30.1410   -2.1670   -1.2140 N.3    47  ALA47      -0.1231
      2  CA        29.0390   -1.4140   -0.6200 C.3    47  ALA47       0.1694
      3  C         27.7660   -2.2550   -0.4420 C.2    47  ALA47       0.2592
      4  O         27.5050   -3.2060   -1.1710 O.2    47  ALA47      -0.2718
      5  CB        28.7370   -0.1800   -1.4750 C.3    47  ALA47       0.0304
      6  N         26.9440   -1.8520    0.5240 N.am   48  ALA48      -0.1966
      7  CA        25.7110   -2.5600    0.8870 C.3    48  ALA48       0.1728
      8  C         24.5580   -2.0820    0.0090 C.2    48  ALA48       0.2616
      9  O         23.5780   -1.5060    0.4820 O.2    48  ALA48      -0.2715
     10  CB        25.3840   -2.3560    2.3640 C.3    48  ALA48       0.0334
     11  N         24.6970   -2.3350   -1.2930 N.am   49  MET49      -0.1977
     12  CA        23.7120   -1.9240   -2.2870 C.3    49  MET49       0.1605
     13  C         23.2780   -3.1200   -3.1320 C.2    49  MET49       0.2287
     14  O         24.0900   -3.9900   -3.4680 O.2    49  MET49      -0.2864
     15  CB        24.2580   -0.8210   -3.1920 C.3    49  MET49       0.0413
     16  CG        24.8600    0.3690   -2.4570 C.3    49  MET49       0.0598
     17  SD        25.7700    1.5340   -3.5350 S.3    49  MET49      -0.1393
     18  CE        24.3980    2.3240   -4.3870 C.3    49  MET49       0.0692
     19  N         25.2170    6.7610    8.2660 N.3   162  ASN162     -0.1240
     20  CA        26.4480    7.4550    7.9340 C.3   162  ASN162      0.1653
     21  C         26.4570    8.7990    8.6200 C.2   162  ASN162      0.2266
     22  O         25.4200    9.4110    8.8020 O.2   162  ASN162     -0.2867
     23  CB        26.6010    7.6360    6.4200 C.3   162  ASN162      0.1155
     24  CG        27.0760    6.3730    5.7320 C.2   162  ASN162      0.2627
     25  OD1       26.8690    5.2550    6.2400 O.2   162  ASN162     -0.2716
     26  ND2       27.7090    6.5320    4.5640 N.am  162  ASN162     -0.0877
     27  N         30.8870    4.8030    9.8670 N.3   181  LYS181     -0.1245
     28  CA        30.9490    5.0550    8.4280 C.3   181  LYS181      0.1561
     29  C         30.6890    6.5360    8.1590 C.2   181  LYS181      0.2260
     30  O         29.7160    7.1120    8.6680 O.2   181  LYS181     -0.2867
     31  CB        29.9170    4.2230    7.6620 C.3   181  LYS181      0.0271
     32  CG        30.3740    2.8580    7.1520 C.3   181  LYS181      0.0035
     33  CD        29.6540    2.4400    5.8470 C.3   181  LYS181      0.0206
     34  CE        28.1550    2.4620    6.0240 C.3   181  LYS181      0.1093
     35  NZ        27.3880    2.0610    4.8140 N.3   181  LYS181     -0.1314
     36  N         28.5450    9.9290   -2.7210 N.3   187  GLY187     -0.1210
     37  CA        28.4030    8.7880   -3.5960 C.3   187  GLY187      0.1956
     38  C         28.0010    9.1770   -5.0050 C.2   187  GLY187      0.2613
     39  O         27.2270   10.0980   -5.2280 O.2   187  GLY187     -0.2717
     40  N         28.5100    8.4130   -5.9700 N.am  188  SER188     -0.1938
     41  CA        28.2850    8.7400   -7.3710 C.3   188  SER188      0.2055
     42  C         26.8020    8.8250   -7.7070 C.2   188  SER188      0.2643
     43  O         26.4070    9.6520   -8.5360 O.2   188  SER188     -0.2714
     44  CB        28.9710    7.7100   -8.2570 C.3   188  SER188      0.2130
     45  OG        28.3910    6.4450   -8.0650 O.3   188  SER188     -0.2179
     46  N         25.9680    7.9960   -7.0660 N.am  189  ILE189     -0.1963
     47  CA        24.5370    7.8920   -7.3680 C.3   189  ILE189      0.1727
     48  C         23.6750    8.7010   -6.3980 C.2   189  ILE189      0.2616
     49  O         22.4440    8.5800   -6.4250 O.2   189  ILE189     -0.2715
     50  CB        24.0700    6.4240   -7.3750 C.3   189  ILE189      0.0290
     51  CG1       24.7720    5.6180   -6.2770 C.3   189  ILE189      0.0022
     52  CG2       24.3170    5.7740   -8.7150 C.3   189  ILE189      0.0023
     53  CD1       24.3200    5.9440   -4.8450 C.3   189  ILE189      0.0001
     54  N         24.2900    9.5060   -5.5290 N.am  190  CYS190     -0.1968
     55  CA        23.5920   10.1850   -4.4370 C.3   190  CYS190      0.1712
     56  C         23.1550   11.5840   -4.8540 C.2   190  CYS190      0.2296
     57  O         23.9340   12.3310   -5.4430 O.2   190  CYS190     -0.2864
     58  CB        24.5200   10.2660   -3.2210 C.3   190  CYS190      0.0983
     59  SG        24.0130   11.3460   -1.8430 S.3   190  CYS190     -0.0798
     60  N         21.4650   13.5820   -2.3950 N.3   192  THR192     -0.1218
     61  CA        21.1390   14.2230   -1.1240 C.3   192  THR192      0.1862
     62  C         21.5010   15.7050   -1.1010 C.2   192  THR192      0.2287
     63  O         20.6560   16.5510   -0.7980 O.2   192  THR192     -0.2866
     64  CB        21.8470   13.5130    0.0250 C.3   192  THR192      0.1770
     65  OG1       21.3340   12.1840    0.1530 O.3   192  THR192     -0.2211
     66  CG2       21.6080   14.2680    1.3110 C.3   192  THR192      0.0375
     67  N         33.1290    6.2250    3.2640 N.3   223  ASP223     -0.1225
     68  CA        32.0750    5.6310    2.4420 C.3   223  ASP223      0.1805
     69  C         31.6620    6.6020    1.3440 C.2   223  ASP223      0.2598
     70  O         31.0330    7.6280    1.6320 O.2   223  ASP223     -0.2718
     71  CB        30.8750    5.2580    3.3200 C.3   223  ASP223      0.1424
     72  CG        29.8040    4.4290    2.5770 C.2   223  ASP223      0.3668
     73  OD1       30.0000    4.1020    1.3740 O.co2 223  ASP223     -0.2456
     74  OD2       28.7570    4.1150    3.2120 O.co2 223  ASP223     -0.2456
     75  N         31.9830    6.2680    0.0980 N.am  224  GLY224     -0.1942
     76  CA        31.4280    6.9170   -1.0800 C.3   224  GLY224      0.2014
     77  C         32.3380    7.9820   -1.6700 C.2   224  GLY224      0.2639
     78  O         33.1680    8.5890   -0.9770 O.2   224  GLY224     -0.2714
     79  N         32.1880    8.2050   -2.9850 N.am  225  GLY225     -0.1939
     80  CA        32.9350    9.2130   -3.6960 C.3   225  GLY225      0.2014
     81  C         34.3220    8.8160   -4.1630 C.2   225  GLY225      0.2638
     82  O         35.0610    9.6790   -4.6700 O.2   225  GLY225     -0.2714
     83  N         34.7110    7.5510   -3.9970 N.am  226  ILE226     -0.1977
     84  CA        35.9520    7.0370   -4.5670 C.3   226  ILE226      0.1596
     85  C         35.7630    6.8780   -6.0730 C.2   226  ILE226      0.2287
     86  O         34.8780    6.1500   -6.5270 O.2   226  ILE226     -0.2864
     87  CB        36.3200    5.7050   -3.9000 C.3   226  ILE226      0.0276
     88  CG1       36.5480    5.8920   -2.3900 C.3   226  ILE226      0.0022
     89  CG2       37.4520    4.9800   -4.6320 C.3   226  ILE226      0.0022
     90  CD1       37.6600    6.7980   -2.0110 C.3   226  ILE226      0.0001
     91  N         34.8070    2.1640    1.8560 N.3   244  MET244     -0.1230
     92  CA        33.6480    1.4680    1.2980 C.3   244  MET244      0.1702
     93  C         33.3820    1.9910   -0.1100 C.2   244  MET244      0.2592
     94  O         33.3180    3.2100   -0.3160 O.2   244  MET244     -0.2718
     95  CB        32.4020    1.6570    2.1630 C.3   244  MET244      0.0401
     96  CG        31.1600    1.0860    1.4930 C.3   244  MET244      0.0596
     97  SD        29.6890    0.7190    2.4950 S.3   244  MET244     -0.1393
     98  CE        30.2660   -0.5760    3.6040 C.3   244  MET244      0.0692
     99  N         33.2250    1.0770   -1.0700 N.am  245  ILE245     -0.1966
    100  CA        33.2080    1.4050   -2.4940 C.3   245  ILE245      0.1727
    101  C         32.0000    0.7590   -3.1410 C.2   245  ILE245      0.2617
    102  O         31.7360   -0.4290   -2.9230 O.2   245  ILE245     -0.2715
    103  CB        34.4790    0.9150   -3.2060 C.3   245  ILE245      0.0290
    104  CG1       35.6880    1.7440   -2.8260 C.3   245  ILE245      0.0022
    105  CG2       34.3210    0.9810   -4.6980 C.3   245  ILE245      0.0023
    106  CD1       36.9600    1.0380   -3.2660 C.3   245  ILE245      0.0001
    107  N         31.2930    1.5190   -3.9670 N.am  246  GLY246     -0.1940
    108  CA        30.1880    0.9630   -4.7190 C.3   246  GLY246      0.2014
    109  C         30.3290    1.0380   -6.2280 C.2   246  GLY246      0.2639
    110  O         30.3870    0.0040   -6.8970 O.2   246  GLY246     -0.2714
    111  N         30.3970    2.2470   -6.7820 N.am  247  SER247     -0.1949
    112  CA        30.3030    2.3990   -8.2310 C.3   247  SER247      0.1924
    113  C         31.3810    1.6010   -8.9780 C.2   247  SER247      0.2314
    114  O         31.1150    1.0720  -10.0610 O.2   247  SER247     -0.2863
    115  CB        30.3910    3.8760   -8.5970 C.3   247  SER247      0.2116
    116  OG        31.7270    4.2920   -8.4580 O.3   247  SER247     -0.2180
    117  N         23.4220    0.3350  -12.1270 N.3   270  TYR270     -0.1241
    118  CA        23.8680    0.7450  -10.7960 C.3   270  TYR270      0.1605
    119  C         22.8890    1.8050  -10.3060 C.2   270  TYR270      0.2264
    120  O         22.5910    2.7580  -11.0360 O.2   270  TYR270     -0.2867
    121  CB        25.3240    1.2810  -10.8310 C.3   270  TYR270      0.0534
    122  CG        25.8720    1.7840   -9.5020 C.ar  270  TYR270     -0.0201
    123  CD1       25.8050    1.0040   -8.3530 C.ar  270  TYR270     -0.0009
    124  CD2       26.4630    3.0330   -9.4050 C.ar  270  TYR270     -0.0009
    125  CE1       26.3060    1.4560   -7.1390 C.ar  270  TYR270      0.0417
    126  CE2       26.9540    3.5090   -8.2060 C.ar  270  TYR270      0.0417
    127  CZ        26.8870    2.7170   -7.0680 C.ar  270  TYR270      0.1957
    128  OH        27.3800    3.1990   -5.8580 O.3   270  TYR270     -0.2866
    129  N         21.1310    4.0240   -6.6850 N.3   272  GLY272     -0.1210
    130  CA        21.1700    4.3400   -5.2730 C.3   272  GLY272      0.1956
    131  C         20.0950    3.5880   -4.5110 C.2   272  GLY272      0.2612
    132  O         19.0530    3.1960   -5.0560 O.2   272  GLY272     -0.2717
    133  N         20.3560    3.3850   -3.2350 N.am  273  MET273     -0.1965
    134  CA        19.4160    2.7310   -2.3570 C.3   273  MET273      0.1736
    135  C         18.2050    3.6180   -2.1000 C.2   273  MET273      0.2617
    136  O         17.1230    3.1300   -1.8110 O.2   273  MET273     -0.2715
    137  CB        20.0960    2.3200   -1.0610 C.3   273  MET273      0.0427
    138  CG        21.0470    1.1510   -1.2360 C.3   273  MET273      0.0599
    139  SD        20.3040   -0.2330   -2.1070 S.3   273  MET273     -0.1393
    140  CE        19.6500   -1.1660   -0.7390 C.3   273  MET273      0.0692
    141  N         18.4060    4.9300   -2.1790 N.am  274  GLY274     -0.1955
    142  CA        17.3520    5.8850   -1.9210 C.3   274  GLY274      0.1869
    143  C         16.6910    6.3540   -3.1970 C.2   274  GLY274      0.2309
    144  O         15.9930    7.3720   -3.1880 O.2   274  GLY274     -0.2863
    145  N         16.5240   10.2760   -2.9270 N.3   284  GLU284     -0.1231
    146  CA        17.8060   10.9300   -2.7520 C.3   284  GLU284      0.1699
    147  C         18.8950   10.2340   -3.5610 C.2   284  GLU284      0.2592
    148  O         20.0860   10.5160   -3.3650 O.2   284  GLU284     -0.2718
    149  CB        18.1700   10.9940   -1.2580 C.3   284  GLU284      0.0402
    150  CG        17.2820   11.9830   -0.4660 C.3   284  GLU284      0.1161
    151  CD        17.6870   12.1700    1.0030 C.2   284  GLU284      0.3649
    152  OE1       18.8750   12.4090    1.2990 O.co2 284  GLU284     -0.2457
    153  OE2       16.7960   12.0880    1.8740 O.co2 284  GLU284     -0.2457
    154  N         18.5240    9.3620   -4.4910 N.am  285  GLY285     -0.1957
    155  CA        19.4890    8.7410   -5.3710 C.3   285  GLY285      0.1869
    156  C         18.9080    8.6000   -6.7620 C.2   285  GLY285      0.2309
    157  O         17.7070    8.7860   -6.9720 O.2   285  GLY285     -0.2863
@<TRIPOS>BOND
     1   117   118    1
     2   120   119    2
     3   121   118    1
     4   121   122    1
     5   118   119    1
     6   114   113    2
     7   122   124   ar
     8   122   123   ar
     9   124   126   ar
    10   113   112    1
    11    52    50    1
    12   115   116    1
    13   115   112    1
    14    43    42    2
    15   123   125   ar
    16    44    45    1
    17    44    41    1
    18   112   111    1
    19   126   127   ar
    20    42    41    1
    21    42    46   am
    22    50    47    1
    23    50    51    1
    24    41    40    1
    25    47    46    1
    26    47    48    1
    27   125   127   ar
    28   127   128    1
    29   157   156    2
    30   110   109    2
    31   111   109   am
    32   156   155    1
    33   129   130    1
    34    86    85    2
    35    49    48    2
    36    48    54   am
    37    51    53    1
    38   109   108    1
    39    85    84    1
    40    40    38   am
    41    54    55    1
    42    57    56    2
    43   155   154    1
    44   130   131    1
    45    39    38    2
    46   132   131    2
    47    38    37    1
    48    56    55    1
    49   108   107    1
    50   105   103    1
    51    82    81    2
    52    89    87    1
    53    84    83    1
    54    84    87    1
    55   131   133   am
    56   154   147   am
    57    55    58    1
    58    18    17    1
    59    81    83   am
    60    81    80    1
    61   107   101   am
    62    87    88    1
    63    80    79    1
    64    37    36    1
    65   147   148    2
    66   147   146    1
    67    17    16    1
    68    14    13    2
    69   106   104    1
    70   133   134    1
    71    58    59    1
    72   103   104    1
    73   103   100    1
    74   143   144    2
    75   143   142    1
    76    15    16    1
    77    15    12    1
    78   101   102    2
    79   101   100    1
    80    13    12    1
    81    79    77   am
    82   145   146    1
    83   146   149    1
    84   100    99    1
    85    60    61    1
    86    88    90    1
    87   134   135    1
    88   134   137    1
    89    12    11    1
    90   141   135   am
    91   141   142    1
    92   139   138    1
    93   139   140    1
    94   135   136    2
    95    77    76    1
    96    77    78    2
    97     5     2    1
    98    11     8   am
    99   149   150    1
   100   138   137    1
   101     1     2    1
   102     4     3    2
   103    61    62    1
   104    61    64    1
   105    62    63    2
   106    76    75    1
   107    99    93   am
   108     2     3    1
   109   150   151    1
   110     3     6   am
   111    94    93    2
   112    93    92    1
   113     8     9    2
   114     8     7    1
   115    64    65    1
   116    64    66    1
   117    75    69   am
   118     6     7    1
   119     7    10    1
   120   151   152   ar
   121   151   153   ar
   122    92    91    1
   123    92    95    1
   124    69    70    2
   125    69    68    1
   126    73    72   ar
   127    96    95    1
   128    96    97    1
   129    68    67    1
   130    68    71    1
   131    97    98    1
   132    72    74   ar
   133    72    71    1
   134    26    24   am
   135    35    34    1
   136    24    25    2
   137    24    23    1
   138    33    34    1
   139    33    32    1
   140    23    20    1
   141    32    31    1
   142    31    28    1
   143    20    19    1
   144    20    21    1
   145    29    28    1
   146    29    30    2
   147    28    27    1
   148    21    22    2
