@<TRIPOS>MOLECULE
tmp/5urqA01.pdb
 120 113 0 0 0
SMALL
GASTEIGER

@<TRIPOS>ATOM
      1  N         20.2280   -4.8480    2.4820 N.3    72  LYS72      -0.1245
      2  CA        19.0470   -5.1300    3.2860 C.3    72  LYS72       0.1561
      3  C         17.7520   -4.9610    2.5080 C.2    72  LYS72       0.2260
      4  O         16.6650   -5.1010    3.0890 O.2    72  LYS72      -0.2867
      5  CB        19.0250   -4.2190    4.5180 C.3    72  LYS72       0.0271
      6  CG        18.6910   -2.7760    4.1640 C.3    72  LYS72       0.0035
      7  CD        18.9120   -1.8340    5.3300 C.3    72  LYS72       0.0206
      8  CE        18.4630   -0.4610    4.9510 C.3    72  LYS72       0.1093
      9  NZ        18.4940    0.4300    6.1210 N.3    72  LYS72      -0.1314
     10  N         17.2000    0.8170   11.2310 N.3   113  VAL113     -0.1245
     11  CA        16.8190    1.1250   12.6080 C.3   113  VAL113      0.1561
     12  C         15.6810    0.2280   13.0440 C.2   113  VAL113      0.2260
     13  O         14.7640   -0.0650   12.2660 O.2   113  VAL113     -0.2867
     14  CB        16.3820    2.5910   12.7720 C.3   113  VAL113      0.0252
     15  CG1       17.5200    3.5060   12.5410 C.3   113  VAL113      0.0019
     16  CG2       15.2150    2.9200   11.8370 C.3   113  VAL113      0.0019
     17  N         22.0010    4.1820    7.6870 N.3   134  SER134     -0.1202
     18  CA        20.8840    5.0990    7.5890 C.3   134  SER134      0.2020
     19  C         21.2850    6.2330    6.6610 C.2   134  SER134      0.2619
     20  O         22.4580    6.3710    6.2890 O.2   134  SER134     -0.2717
     21  CB        20.4960    5.6320    8.9690 C.3   134  SER134      0.2103
     22  OG        19.6830    6.7780    8.8610 O.3   134  SER134     -0.2182
     23  N         20.2970    7.0490    6.2650 N.am  135  ALA135     -0.1965
     24  CA        20.6410    8.2680    5.5450 C.3   135  ALA135      0.1728
     25  C         21.1990    9.3150    6.4860 C.2   135  ALA135      0.2616
     26  O         21.9170   10.2180    6.0360 O.2   135  ALA135     -0.2715
     27  CB        19.4360    8.8310    4.7960 C.3   135  ALA135      0.0334
     28  N         20.9080    9.1900    7.7830 N.am  136  HIS136     -0.1973
     29  CA        21.3360   10.1620    8.7910 C.3   136  HIS136      0.1656
     30  C         21.5930    9.3930   10.0880 C.2   136  HIS136      0.2291
     31  O         20.6800    9.1680   10.8820 O.2   136  HIS136     -0.2864
     32  CB        20.3030   11.2560    8.9890 C.3   136  HIS136      0.0771
     33  CG        20.7170   12.2930    9.9810 C.ar  136  HIS136      0.0820
     34  ND1       22.0310   12.4880   10.3430 N.ar  136  HIS136     -0.2267
     35  CD2       19.9950   13.1920   10.6890 C.ar  136  HIS136      0.1154
     36  CE1       22.1010   13.4690   11.2250 C.ar  136  HIS136      0.1986
     37  NE2       20.8810   13.9120   11.4530 N.ar  136  HIS136     -0.2212
     38  N         21.2220   10.4330   14.7270 N.3   139  SER139     -0.1202
     39  CA        19.7920   10.5170   15.0170 C.3   139  SER139      0.2020
     40  C         19.4270    9.6400   16.2110 C.2   139  SER139      0.2619
     41  O         20.0960    8.6470   16.5120 O.2   139  SER139     -0.2717
     42  CB        18.9480   10.0980   13.8070 C.3   139  SER139      0.2103
     43  OG        19.2640    8.7780   13.4010 O.3   139  SER139     -0.2182
     44  N         18.3140   10.0080   16.8660 N.am  140  LYS140     -0.1965
     45  CA        17.8720    9.3080   18.0690 C.3   140  LYS140      0.1728
     46  C         17.5350    7.8430   17.7910 C.2   140  LYS140      0.2617
     47  O         17.7780    6.9740   18.6370 O.2   140  LYS140     -0.2715
     48  CB        16.6620   10.0210   18.6600 C.3   140  LYS140      0.0311
     49  CG        16.2200    9.5000   20.0240 C.3   140  LYS140      0.0038
     50  CD        14.8040    9.9390   20.3190 C.3   140  LYS140      0.0206
     51  CE        14.3690    9.5100   21.7120 C.3   140  LYS140      0.1093
     52  NZ        14.4060    8.0370   21.8810 N.3   140  LYS140     -0.1314
     53  N         16.9480    7.5500   16.6280 N.am  141  GLY141     -0.1940
     54  CA        16.6170    6.1720   16.3160 C.3   141  GLY141      0.2014
     55  C         17.8500    5.3030   16.1700 C.2   141  GLY141      0.2638
     56  O         17.8710    4.1440   16.5990 O.2   141  GLY141     -0.2714
     57  N         18.8990    5.8530   15.5630 N.am  142  ILE142     -0.1977
     58  CA        20.1010    5.0720   15.3150 C.3   142  ILE142      0.1596
     59  C         20.8500    4.8270   16.6160 C.2   142  ILE142      0.2287
     60  O         21.2790    3.7030   16.8960 O.2   142  ILE142     -0.2864
     61  CB        20.9770    5.7750   14.2660 C.3   142  ILE142      0.0276
     62  CG1       20.3610    5.5980   12.8730 C.3   142  ILE142      0.0022
     63  CG2       22.4340    5.2670   14.3370 C.3   142  ILE142      0.0022
     64  CD1       20.8170    4.3310   12.1820 C.3   142  ILE142      0.0001
     65  N         24.2900    9.5060   -5.5290 N.3   190  CYS190     -0.1235
     66  CA        23.5920   10.1850   -4.4370 C.3   190  CYS190      0.1677
     67  C         23.1550   11.5840   -4.8540 C.2   190  CYS190      0.2270
     68  O         23.9340   12.3310   -5.4430 O.2   190  CYS190     -0.2867
     69  CB        24.5200   10.2660   -3.2210 C.3   190  CYS190      0.0956
     70  SG        24.0130   11.3460   -1.8430 S.3   190  CYS190     -0.0801
     71  N         21.4650   13.5820   -2.3950 N.3   192  THR192     -0.1218
     72  CA        21.1390   14.2230   -1.1240 C.3   192  THR192      0.1862
     73  C         21.5010   15.7050   -1.1010 C.2   192  THR192      0.2287
     74  O         20.6560   16.5510   -0.7980 O.2   192  THR192     -0.2866
     75  CB        21.8470   13.5130    0.0250 C.3   192  THR192      0.1770
     76  OG1       21.3340   12.1840    0.1530 O.3   192  THR192     -0.2211
     77  CG2       21.6080   14.2680    1.3110 C.3   192  THR192      0.0375
     78  N         20.3560    3.3850   -3.2350 N.3   273  MET273     -0.1230
     79  CA        19.4160    2.7310   -2.3570 C.3   273  MET273      0.1702
     80  C         18.2050    3.6180   -2.1000 C.2   273  MET273      0.2592
     81  O         17.1230    3.1300   -1.8110 O.2   273  MET273     -0.2718
     82  CB        20.0960    2.3200   -1.0610 C.3   273  MET273      0.0401
     83  CG        21.0470    1.1510   -1.2360 C.3   273  MET273      0.0596
     84  SD        20.3040   -0.2330   -2.1070 S.3   273  MET273     -0.1393
     85  CE        19.6500   -1.1660   -0.7390 C.3   273  MET273      0.0692
     86  N         18.4060    4.9300   -2.1790 N.am  274  GLY274     -0.1957
     87  CA        17.3520    5.8850   -1.9210 C.3   274  GLY274      0.1869
     88  C         16.6910    6.3540   -3.1970 C.2   274  GLY274      0.2309
     89  O         15.9930    7.3720   -3.1880 O.2   274  GLY274     -0.2863
     90  N         13.3240    1.6150   -3.9220 N.3   279  MET279     -0.1245
     91  CA        12.3040    1.7080   -2.8810 C.3   279  MET279      0.1570
     92  C         10.9800    1.0640   -3.2850 C.2   279  MET279      0.2261
     93  O          9.9460    1.3850   -2.6940 O.2   279  MET279     -0.2867
     94  CB        12.0830    3.1720   -2.4730 C.3   279  MET279      0.0387
     95  CG        13.3560    3.8610   -1.9780 C.3   279  MET279      0.0595
     96  SD        13.1400    5.4810   -1.1940 S.3   279  MET279     -0.1393
     97  CE        12.7010    6.5270   -2.5830 C.3   279  MET279      0.0692
     98  N         10.0290   10.6290   -2.0010 N.3   282  VAL282     -0.1231
     99  CA        11.0070   11.6970   -2.2730 C.3   282  VAL282      0.1678
    100  C         12.4310   11.1370   -2.2830 C.2   282  VAL282      0.2434
    101  O         13.1050   11.0710   -1.2430 O.2   282  VAL282     -0.2733
    102  CB        10.8610   12.8500   -1.2690 C.3   282  VAL282      0.0265
    103  CG1       12.0330   13.8090   -1.3970 C.3   282  VAL282      0.0020
    104  CG2        9.5560   13.5910   -1.5200 C.3   282  VAL282      0.0020
    105  N         12.9360   10.7300   -3.4340 N.am  283  PRO283     -0.2718
    106  CA        14.2020   10.0110   -3.4670 C.3   283  PRO283      0.1535
    107  C         15.4070   10.9210   -3.2600 C.2   283  PRO283      0.2598
    108  O         15.3540   12.1410   -3.4200 O.2   283  PRO283     -0.2715
    109  CB        14.2080    9.4050   -4.8750 C.3   283  PRO283      0.0310
    110  CG        13.3860   10.3490   -5.6800 C.3   283  PRO283      0.0237
    111  CD        12.3430   10.8800   -4.7710 C.3   283  PRO283      0.0939
    112  N         16.5240   10.2760   -2.9270 N.am  284  GLU284     -0.1978
    113  CA        17.8060   10.9300   -2.7520 C.3   284  GLU284      0.1602
    114  C         18.8950   10.2340   -3.5610 C.2   284  GLU284      0.2287
    115  O         20.0860   10.5160   -3.3650 O.2   284  GLU284     -0.2864
    116  CB        18.1700   10.9940   -1.2580 C.3   284  GLU284      0.0415
    117  CG        17.2820   11.9830   -0.4660 C.3   284  GLU284      0.1163
    118  CD        17.6870   12.1700    1.0030 C.2   284  GLU284      0.3649
    119  OE1       18.8750   12.4090    1.2990 O.co2 284  GLU284     -0.2457
    120  OE2       16.7960   12.0880    1.8740 O.co2 284  GLU284     -0.2457
@<TRIPOS>BOND
     1   110   109    1
     2   110   111    1
     3    65    66    1
     4    68    67    2
     5   109   106    1
     6    67    66    1
     7   111   105    1
     8    66    69    1
     9    90    91    1
    10   114   115    2
    11   114   113    1
    12   106   105    1
    13   106   107    1
    14   105   100   am
    15   108   107    2
    16    92    91    1
    17    92    93    2
    18   107   112   am
    19    78    79    1
    20    69    70    1
    21    88    89    2
    22    88    87    1
    23   112   113    1
    24    91    94    1
    25   113   116    1
    26    97    96    1
    27    94    95    1
    28    71    72    1
    29    79    80    1
    30    79    82    1
    31   100    99    1
    32   100   101    2
    33    99    98    1
    34    99   102    1
    35    86    80   am
    36    86    87    1
    37    84    83    1
    38    84    85    1
    39    80    81    2
    40    95    96    1
    41   104   102    1
    42   103   102    1
    43   116   117    1
    44    83    82    1
    45    72    73    1
    46    72    75    1
    47    73    74    2
    48   117   118    1
    49    75    76    1
    50    75    77    1
    51   118   119   ar
    52   118   120   ar
    53     1     2    1
    54     3     4    2
    55     3     2    1
    56     2     5    1
    57     6     5    1
    58     6     7    1
    59    27    24    1
    60     8     7    1
    61     8     9    1
    62    24    23    1
    63    24    25    1
    64    26    25    2
    65    23    19   am
    66    20    19    2
    67    25    28   am
    68    19    18    1
    69    18    17    1
    70    18    21    1
    71    28    29    1
    72    29    32    1
    73    29    30    1
    74    22    21    1
    75    32    33    1
    76    33    34   ar
    77    33    35   ar
    78    30    31    2
    79    34    36   ar
    80    35    37   ar
    81    36    37   ar
    82    10    11    1
    83    16    14    1
    84    64    62    1
    85    13    12    2
    86    15    14    1
    87    11    14    1
    88    11    12    1
    89    62    61    1
    90    43    42    1
    91    42    39    1
    92    61    63    1
    93    61    58    1
    94    38    39    1
    95    39    40    1
    96    58    57    1
    97    58    59    1
    98    57    55   am
    99    55    54    1
   100    55    56    2
   101    40    41    2
   102    40    44   am
   103    54    53    1
   104    59    60    2
   105    53    46   am
   106    44    45    1
   107    46    45    1
   108    46    47    2
   109    45    48    1
   110    48    49    1
   111    49    50    1
   112    50    51    1
   113    51    52    1
