@<TRIPOS>MOLECULE
tmp/5urrE02.pdb
 112 101 0 0 0
SMALL
GASTEIGER

@<TRIPOS>ATOM
      1  N          8.6120   32.6330   49.9270 N.3    78  LYS78      -0.1245
      2  CA         8.3870   34.0670   49.8150 C.3    78  LYS78       0.1561
      3  C          8.5460   34.5920   48.3940 C.2    78  LYS78       0.2260
      4  O          8.4850   35.8070   48.1870 O.2    78  LYS78      -0.2867
      5  CB         9.3360   34.8190   50.7510 C.3    78  LYS78       0.0271
      6  CG        10.8090   34.5560   50.4770 C.3    78  LYS78       0.0035
      7  CD        11.7020   35.3580   51.4100 C.3    78  LYS78       0.0206
      8  CE        13.1720   35.0570   51.1570 C.3    78  LYS78       0.1093
      9  NZ        13.5670   35.3430   49.7490 N.3    78  LYS78      -0.1314
     10  N         14.7450   39.5930   54.9660 N.3   106  VAL106     -0.1245
     11  CA        15.1450   40.7560   55.7570 C.3   106  VAL106      0.1561
     12  C         15.2440   41.9290   54.7870 C.2   106  VAL106      0.2260
     13  O         16.2880   42.1840   54.1830 O.2   106  VAL106     -0.2867
     14  CB        16.4510   40.5130   56.5100 C.3   106  VAL106      0.0252
     15  CG1       16.7490   41.6780   57.4370 C.3   106  VAL106      0.0019
     16  CG2       16.3740   39.2120   57.2950 C.3   106  VAL106      0.0019
     17  N         17.3050   33.8290   55.8390 N.3   129  THR129     -0.1203
     18  CA        18.3380   34.6090   55.1740 C.3   129  THR129      0.1994
     19  C         19.5870   33.7520   55.0270 C.2   129  THR129      0.2618
     20  O         19.6980   32.6700   55.6100 O.2   129  THR129     -0.2717
     21  CB        18.6540   35.8980   55.9400 C.3   129  THR129      0.1784
     22  OG1       19.5420   36.7110   55.1620 O.3   129  THR129     -0.2211
     23  CG2       19.3090   35.5720   57.2680 C.3   129  THR129      0.0376
     24  N         20.5380   34.2570   54.2370 N.am  130  ALA130     -0.1965
     25  CA        21.7570   33.5000   53.9720 C.3   130  ALA130      0.1728
     26  C         22.7030   33.5300   55.1650 C.2   130  ALA130      0.2616
     27  O         23.3510   32.5230   55.4760 O.2   130  ALA130     -0.2715
     28  CB        22.4520   34.0450   52.7260 C.3   130  ALA130      0.0334
     29  N         22.8010   34.6730   55.8440 N.am  131  HIS131     -0.1973
     30  CA        23.7180   34.8550   56.9700 C.3   131  HIS131      0.1656
     31  C         22.9130   35.3690   58.1610 C.2   131  HIS131      0.2291
     32  O         22.7140   36.5770   58.3140 O.2   131  HIS131     -0.2864
     33  CB        24.8520   35.8050   56.6010 C.3   131  HIS131      0.0771
     34  CG        25.9700   35.8220   57.5940 C.ar  131  HIS131      0.0820
     35  ND1       26.2440   34.7560   58.4240 N.ar  131  HIS131     -0.2267
     36  CD2       26.8800   36.7780   57.8960 C.ar  131  HIS131      0.1154
     37  CE1       27.2770   35.0530   59.1920 C.ar  131  HIS131      0.1986
     38  NE2       27.6820   36.2750   58.8920 N.ar  131  HIS131     -0.2212
     39  N         24.0120   38.2570   60.8850 N.3   134  SER134     -0.1217
     40  CA        24.1740   39.6360   60.4550 C.3   134  SER134      0.1889
     41  C         23.4460   40.5740   61.4100 C.2   134  SER134      0.2288
     42  O         22.4820   40.1880   62.0760 O.2   134  SER134     -0.2866
     43  CB        23.6500   39.8250   59.0310 C.3   134  SER134      0.2089
     44  OG        24.3000   40.9090   58.3900 O.3   134  SER134     -0.2183
     45  N         21.6540   43.1740   60.5810 N.3   136  GLY136     -0.1210
     46  CA        20.3190   43.4490   60.0790 C.3   136  GLY136      0.1956
     47  C         19.3090   42.3880   60.4650 C.2   136  GLY136      0.2611
     48  O         18.1350   42.6950   60.6940 O.2   136  GLY136     -0.2717
     49  N         19.7450   41.1310   60.5470 N.am  137  VAL137     -0.1979
     50  CA        18.8480   40.0600   60.9670 C.3   137  VAL137      0.1595
     51  C         18.5430   40.1750   62.4540 C.2   137  VAL137      0.2287
     52  O         17.4020   39.9680   62.8850 O.2   137  VAL137     -0.2864
     53  CB        19.4570   38.6910   60.6150 C.3   137  VAL137      0.0276
     54  CG1       18.5250   37.5670   61.0390 C.3   137  VAL137      0.0022
     55  CG2       19.7510   38.6180   59.1290 C.3   137  VAL137      0.0022
     56  N         19.7540   31.3790   58.6160 N.3   157  ASN157     -0.1240
     57  CA        20.4000   30.1780   59.1320 C.3   157  ASN157      0.1653
     58  C         21.7170   30.5250   59.8160 C.2   157  ASN157      0.2266
     59  O         22.3550   31.5240   59.4820 O.2   157  ASN157     -0.2867
     60  CB        20.6510   29.1750   58.0060 C.3   157  ASN157      0.1155
     61  CG        19.3740   28.5700   57.4650 C.2   157  ASN157      0.2627
     62  OD1       18.2730   29.0030   57.8040 O.2   157  ASN157     -0.2716
     63  ND2       19.5160   27.5590   56.6130 N.am  157  ASN157     -0.0877
     64  N         22.9620   23.4520   46.9930 N.3   185  CYS185     -0.1235
     65  CA        23.6880   24.6050   47.5030 C.3   185  CYS185      0.1677
     66  C         25.1400   24.5790   47.0430 C.2   185  CYS185      0.2270
     67  O         25.7850   23.5270   47.0390 O.2   185  CYS185     -0.2867
     68  CB        23.6230   24.6390   49.0320 C.3   185  CYS185      0.0956
     69  SG        24.7380   25.8230   49.8070 S.3   185  CYS185     -0.0801
     70  N         27.1300   27.3950   48.2300 N.3   187  THR187     -0.1218
     71  CA        27.6910   28.4720   49.0430 C.3   187  THR187      0.1862
     72  C         29.1070   28.1460   49.4970 C.2   187  THR187      0.2287
     73  O         29.9970   29.0020   49.4410 O.2   187  THR187     -0.2866
     74  CB        26.7940   28.7400   50.2530 C.3   187  THR187      0.1770
     75  OG1       25.5230   29.2330   49.8110 O.3   187  THR187     -0.2211
     76  CG2       27.4370   29.7620   51.1860 C.3   187  THR187      0.0375
     77  N         16.9880   28.4300   45.9720 N.3   268  MET268     -0.1230
     78  CA        16.4710   29.7940   46.0130 C.3   268  MET268      0.1702
     79  C         17.5320   30.8190   45.6380 C.2   268  MET268      0.2592
     80  O         17.1870   31.9410   45.2510 O.2   268  MET268     -0.2718
     81  CB        15.9090   30.1040   47.4020 C.3   268  MET268      0.0401
     82  CG        14.7080   29.2530   47.7830 C.3   268  MET268      0.0596
     83  SD        13.2990   29.5140   46.6840 S.3   268  MET268     -0.1393
     84  CE        12.7970   31.1640   47.1670 C.3   268  MET268      0.0692
     85  N         18.8090   30.4580   45.7390 N.am  269  GLY269     -0.1957
     86  CA        19.8860   31.3380   45.3360 C.3   269  GLY269      0.1869
     87  C         20.4460   31.0000   43.9700 C.2   269  GLY269      0.2309
     88  O         21.5600   31.4110   43.6360 O.2   269  GLY269     -0.2863
     89  N         16.0340   33.4810   41.1650 N.3   274  MET274     -0.1245
     90  CA        16.1090   34.9100   41.4470 C.3   274  MET274      0.1570
     91  C         15.5130   35.7470   40.3220 C.2   274  MET274      0.2261
     92  O         15.0810   36.8800   40.5620 O.2   274  MET274     -0.2867
     93  CB        17.5580   35.3180   41.7090 C.3   274  MET274      0.0387
     94  CG        18.0020   35.0900   43.1450 C.3   274  MET274      0.0595
     95  SD        19.7450   35.4510   43.4070 S.3   274  MET274     -0.1393
     96  CE        20.5160   34.1920   42.3980 C.3   274  MET274      0.0692
     97  N         25.5200   36.9180   41.1310 N.3   278  VAL278     -0.1245
     98  CA        26.3670   35.7850   41.4860 C.3   278  VAL278      0.1561
     99  C         25.5260   34.7960   42.2920 C.2   278  VAL278      0.2260
    100  O         25.2060   35.0640   43.4600 O.2   278  VAL278     -0.2867
    101  CB        27.6040   36.2350   42.2750 C.3   278  VAL278      0.0252
    102  CG1       28.4820   35.0410   42.6140 C.3   278  VAL278      0.0019
    103  CG2       28.3830   37.2720   41.4830 C.3   278  VAL278      0.0019
    104  N         24.3050   31.3380   44.4320 N.3   280  GLU280     -0.1245
    105  CA        24.8320   30.4090   45.4260 C.3   280  GLU280      0.1567
    106  C         24.0530   29.0990   45.4280 C.2   280  GLU280      0.2260
    107  O         24.0540   28.3800   46.4330 O.2   280  GLU280     -0.2867
    108  CB        24.8270   31.0380   46.8220 C.3   280  GLU280      0.0388
    109  CG        25.8980   32.1000   47.0090 C.3   280  GLU280      0.1160
    110  CD        25.9530   32.6400   48.4230 C.2   280  GLU280      0.3649
    111  OE1       26.2710   33.8370   48.5870 O.co2 280  GLU280     -0.2457
    112  OE2       25.6840   31.8700   49.3700 O.co2 280  GLU280     -0.2457
@<TRIPOS>BOND
     1    91    92    2
     2    91    90    1
     3    97    98    1
     4    89    90    1
     5    90    93    1
     6   103   101    1
     7    98   101    1
     8    98    99    1
     9    93    94    1
    10   101   102    1
    11    99   100    2
    12    96    95    1
    13    94    95    1
    14    88    87    2
    15    87    86    1
    16   104   105    1
    17    80    79    2
    18    86    85    1
    19   105   106    1
    20   105   108    1
    21   106   107    2
    22    79    85   am
    23    79    78    1
    24    77    78    1
    25    78    81    1
    26    83    84    1
    27    83    82    1
    28   108   109    1
    29    64    65    1
    30   109   110    1
    31    67    66    2
    32    66    65    1
    33    81    82    1
    34    65    68    1
    35     4     3    2
    36    70    71    1
    37     3     2    1
    38   110   111   ar
    39   110   112   ar
    40    68    69    1
    41    71    72    1
    42    71    74    1
    43    73    72    2
    44     9     8    1
    45    75    74    1
    46     2     1    1
    47     2     5    1
    48    74    76    1
    49     6     5    1
    50     6     7    1
    51     8     7    1
    52    28    25    1
    53    25    24    1
    54    25    26    1
    55    13    12    2
    56    24    19   am
    57    12    11    1
    58    10    11    1
    59    19    18    1
    60    19    20    2
    61    22    21    1
    62    26    27    2
    63    26    29   am
    64    18    17    1
    65    18    21    1
    66    11    14    1
    67    29    30    1
    68    21    23    1
    69    14    16    1
    70    14    15    1
    71    33    30    1
    72    33    34    1
    73    63    61   am
    74    30    31    1
    75    61    62    2
    76    61    60    1
    77    34    36   ar
    78    34    35   ar
    79    36    38   ar
    80    60    57    1
    81    31    32    2
    82    44    43    1
    83    35    37   ar
    84    56    57    1
    85    38    37   ar
    86    43    40    1
    87    55    53    1
    88    57    58    1
    89    59    58    2
    90    46    47    1
    91    46    45    1
    92    40    39    1
    93    40    41    1
    94    47    49   am
    95    47    48    2
    96    49    50    1
    97    53    50    1
    98    53    54    1
    99    50    51    1
   100    41    42    2
   101    51    52    2
