@<TRIPOS>MOLECULE
tmp/5ursH02.pdb
 112 102 0 0 0
SMALL
GASTEIGER

@<TRIPOS>ATOM
      1  N         -8.4800   32.4310  -49.7220 N.3    76  LYS76      -0.1245
      2  CA        -8.2170   33.8690  -49.5860 C.3    76  LYS76       0.1561
      3  C         -8.5320   34.4170  -48.2020 C.2    76  LYS76       0.2260
      4  O         -8.4270   35.6300  -47.9910 O.2    76  LYS76      -0.2867
      5  CB        -9.0200   34.6800  -50.6230 C.3    76  LYS76       0.0271
      6  CG       -10.4640   34.9810  -50.1790 C.3    76  LYS76       0.0035
      7  CD       -11.2330   35.8180  -51.1830 C.3    76  LYS76       0.0206
      8  CE       -12.3050   35.0060  -51.8840 C.3    76  LYS76       0.1093
      9  NZ       -13.5300   34.7190  -51.0710 N.3    76  LYS76      -0.1314
     10  N        -14.8400   39.3970  -55.2310 N.3   104  VAL104     -0.1245
     11  CA       -15.1820   40.6160  -55.9800 C.3   104  VAL104      0.1561
     12  C        -15.2480   41.7420  -54.9480 C.2   104  VAL104      0.2260
     13  O        -16.2840   41.9960  -54.3240 O.2   104  VAL104     -0.2867
     14  CB       -16.4700   40.4540  -56.7940 C.3   104  VAL104      0.0252
     15  CG1      -17.5660   39.7910  -55.9890 C.3   104  VAL104      0.0019
     16  CG2      -16.9440   41.7900  -57.3190 C.3   104  VAL104      0.0019
     17  N        -14.1590   33.5920  -56.8270 N.3   126  ASP126     -0.1225
     18  CA       -15.0840   32.7090  -56.1300 C.3   126  ASP126      0.1805
     19  C        -16.0640   33.5680  -55.3350 C.2   126  ASP126      0.2598
     20  O        -15.6590   34.3110  -54.4320 O.2   126  ASP126     -0.2718
     21  CB       -14.3020   31.7420  -55.2320 C.3   126  ASP126      0.1424
     22  CG       -15.0550   30.4340  -54.9470 C.2   126  ASP126      0.3668
     23  OD1      -16.1160   30.4400  -54.2780 O.co2 126  ASP126     -0.2456
     24  OD2      -14.5560   29.3780  -55.4000 O.co2 126  ASP126     -0.2456
     25  N        -17.3490   33.4570  -55.6590 N.am  127  THR127     -0.1939
     26  CA       -18.3880   34.2270  -54.9900 C.3   127  THR127      0.2028
     27  C        -19.6250   33.3550  -54.7950 C.2   127  THR127      0.2642
     28  O        -19.7280   32.2500  -55.3380 O.2   127  THR127     -0.2714
     29  CB       -18.7240   35.4850  -55.7890 C.3   127  THR127      0.1808
     30  OG1      -19.5660   36.3380  -55.0040 O.3   127  THR127     -0.2208
     31  CG2      -19.4340   35.0970  -57.0770 C.3   127  THR127      0.0379
     32  N        -20.5350   33.8180  -53.9310 N.am  128  ALA128     -0.1963
     33  CA       -21.7630   33.0700  -53.6970 C.3   128  ALA128      0.1728
     34  C        -22.6920   33.1120  -54.9070 C.2   128  ALA128      0.2616
     35  O        -23.4240   32.1520  -55.1670 O.2   128  ALA128     -0.2715
     36  CB       -22.4660   33.5840  -52.4430 C.3   128  ALA128      0.0334
     37  N        -22.7360   34.2340  -55.6210 N.am  129  HIS129     -0.1973
     38  CA       -23.6460   34.4170  -56.7580 C.3   129  HIS129      0.1656
     39  C        -22.8640   34.9750  -57.9500 C.2   129  HIS129      0.2291
     40  O        -22.8010   36.1940  -58.1480 O.2   129  HIS129     -0.2864
     41  CB       -24.8150   35.3230  -56.3350 C.3   129  HIS129      0.0771
     42  CG       -25.9410   35.4010  -57.3240 C.ar  129  HIS129      0.0820
     43  ND1      -26.2220   34.4010  -58.2320 N.ar  129  HIS129     -0.2267
     44  CD2      -26.8690   36.3690  -57.5360 C.ar  129  HIS129      0.1154
     45  CE1      -27.2640   34.7550  -58.9690 C.ar  129  HIS129      0.1986
     46  NE2      -27.6760   35.9440  -58.5660 N.ar  129  HIS129     -0.2212
     47  N        -23.8920   37.8450  -61.0620 N.3   132  SER132     -0.1217
     48  CA       -24.1700   39.1810  -60.5590 C.3   132  SER132      0.1889
     49  C        -23.3090   40.1870  -61.3060 C.2   132  SER132      0.2288
     50  O        -22.2540   39.8510  -61.8530 O.2   132  SER132     -0.2866
     51  CB       -23.9450   39.2860  -59.0520 C.3   132  SER132      0.2089
     52  OG       -22.5730   39.1350  -58.7730 O.3   132  SER132     -0.2183
     53  N        -21.5280   42.5490  -60.2530 N.3   134  GLY134     -0.1210
     54  CA       -20.1980   42.7110  -59.6810 C.3   134  GLY134      0.1956
     55  C        -19.2060   41.6810  -60.1960 C.2   134  GLY134      0.2611
     56  O        -18.0810   42.0210  -60.5820 O.2   134  GLY134     -0.2717
     57  N        -19.6310   40.4170  -60.2580 N.am  135  VAL135     -0.1979
     58  CA       -18.7810   39.3670  -60.8030 C.3   135  VAL135      0.1595
     59  C        -18.4840   39.6590  -62.2600 C.2   135  VAL135      0.2287
     60  O        -17.3200   39.6770  -62.6900 O.2   135  VAL135     -0.2864
     61  CB       -19.4680   37.9970  -60.6420 C.3   135  VAL135      0.0276
     62  CG1      -18.5950   36.8700  -61.1880 C.3   135  VAL135      0.0022
     63  CG2      -19.8230   37.7650  -59.2070 C.3   135  VAL135      0.0022
     64  N        -22.9610   23.1460  -46.8040 N.3   183  CYS183     -0.1235
     65  CA       -23.6680   24.3070  -47.3200 C.3   183  CYS183      0.1677
     66  C        -25.1330   24.2890  -46.8770 C.2   183  CYS183      0.2270
     67  O        -25.7600   23.2270  -46.8290 O.2   183  CYS183     -0.2867
     68  CB       -23.5560   24.3230  -48.8490 C.3   183  CYS183      0.0956
     69  SG       -24.6370   25.5100  -49.6550 S.3   183  CYS183     -0.0801
     70  N        -27.1020   27.1450  -48.0810 N.3   185  THR185     -0.1218
     71  CA       -27.6550   28.2040  -48.9190 C.3   185  THR185      0.1862
     72  C        -29.0850   27.8890  -49.3390 C.2   185  THR185      0.2287
     73  O        -29.9720   28.7470  -49.2310 O.2   185  THR185     -0.2866
     74  CB       -26.7420   28.4200  -50.1340 C.3   185  THR185      0.1770
     75  OG1      -25.5080   29.0060  -49.6910 O.3   185  THR185     -0.2211
     76  CG2      -27.3900   29.3030  -51.2190 C.3   185  THR185      0.0375
     77  N        -17.0340   28.1110  -46.0080 N.3   266  MET266     -0.1230
     78  CA       -16.4910   29.4570  -45.9410 C.3   266  MET266      0.1702
     79  C        -17.5750   30.4760  -45.6260 C.2   266  MET266      0.2592
     80  O        -17.2460   31.6000  -45.2510 O.2   266  MET266     -0.2718
     81  CB       -15.7590   29.8120  -47.2510 C.3   266  MET266      0.0401
     82  CG       -14.5620   28.8610  -47.5440 C.3   266  MET266      0.0596
     83  SD       -13.2270   28.8920  -46.3220 S.3   266  MET266     -0.1393
     84  CE       -12.6760   30.6000  -46.4260 C.3   266  MET266      0.0692
     85  N        -18.8480   30.1060  -45.7430 N.am  267  GLY267     -0.1957
     86  CA       -19.9330   30.9630  -45.3280 C.3   267  GLY267      0.1869
     87  C        -20.4730   30.7200  -43.9310 C.2   267  GLY267      0.2309
     88  O        -21.5230   31.2730  -43.5920 O.2   267  GLY267     -0.2863
     89  N        -16.1270   33.1810  -41.1280 N.3   272  MET272     -0.1245
     90  CA       -16.2610   34.6060  -41.4160 C.3   272  MET272      0.1570
     91  C        -15.6360   35.5060  -40.3540 C.2   272  MET272      0.2261
     92  O        -15.4140   36.6900  -40.6260 O.2   272  MET272     -0.2867
     93  CB       -17.7420   34.9510  -41.6230 C.3   272  MET272      0.0387
     94  CG       -18.2930   34.4430  -42.9510 C.3   272  MET272      0.0595
     95  SD       -19.8960   35.1470  -43.3980 S.3   272  MET272     -0.1393
     96  CE       -20.8750   34.6060  -42.0040 C.3   272  MET272      0.0692
     97  N        -25.6020   36.4710  -41.1510 N.3   276  VAL276     -0.1245
     98  CA       -26.4940   35.3800  -41.5250 C.3   276  VAL276      0.1561
     99  C        -25.6940   34.3820  -42.3500 C.2   276  VAL276      0.2260
    100  O        -25.4700   34.6030  -43.5460 O.2   276  VAL276     -0.2867
    101  CB       -27.7190   35.9010  -42.2920 C.3   276  VAL276      0.0252
    102  CG1      -28.4590   34.7630  -42.9730 C.3   276  VAL276      0.0019
    103  CG2      -28.6530   36.6310  -41.3570 C.3   276  VAL276      0.0019
    104  N        -24.3880   30.8700  -44.3990 N.3   278  GLU278     -0.1245
    105  CA       -24.9410   29.9210  -45.3640 C.3   278  GLU278      0.1567
    106  C        -24.1880   28.5950  -45.3360 C.2   278  GLU278      0.2260
    107  O        -24.1980   27.8330  -46.3110 O.2   278  GLU278     -0.2867
    108  CB       -24.9400   30.5210  -46.7620 C.3   278  GLU278      0.0388
    109  CG       -25.8330   31.7490  -46.8280 C.3   278  GLU278      0.1160
    110  CD       -26.0100   32.2840  -48.2170 C.2   278  GLU278      0.3649
    111  OE1      -26.0790   33.5270  -48.3450 O.co2 278  GLU278     -0.2457
    112  OE2      -25.9840   31.4860  -49.1820 O.co2 278  GLU278     -0.2457
@<TRIPOS>BOND
     1    60    59    2
     2    59    58    1
     3    50    49    2
     4    49    48    1
     5    62    61    1
     6    47    48    1
     7    58    61    1
     8    58    57    1
     9    61    63    1
    10    56    55    2
    11    48    51    1
    12    57    55   am
    13    53    54    1
    14    55    54    1
    15    51    52    1
    16    45    46   ar
    17    45    43   ar
    18    46    44   ar
    19    43    42   ar
    20    40    39    2
    21    39    38    1
    22    44    42   ar
    23    42    41    1
    24    16    14    1
    25    31    29    1
    26    17    18    1
    27    14    15    1
    28    14    11    1
    29    38    41    1
    30    38    37    1
    31    18    19    1
    32    18    21    1
    33    11    10    1
    34    11    12    1
    35    29    30    1
    36    29    26    1
    37    25    19   am
    38    25    26    1
    39    37    34   am
    40    24    22   ar
    41    28    27    2
    42    19    20    2
    43    21    22    1
    44    35    34    2
    45    26    27    1
    46    12    13    2
    47    22    23   ar
    48    34    33    1
    49    27    32   am
    50    32    33    1
    51    33    36    1
    52     8     7    1
    53     8     9    1
    54    76    74    1
    55     7     6    1
    56     5     6    1
    57     5     2    1
    58    74    75    1
    59    74    71    1
    60     1     2    1
    61    69    68    1
    62     2     3    1
    63    72    73    2
    64    72    71    1
    65   112   110   ar
    66    71    70    1
    67    68    65    1
    68   111   110   ar
    69   110   109    1
    70     3     4    2
    71    82    81    1
    72    82    83    1
    73    65    66    1
    74    65    64    1
    75    81    78    1
    76    66    67    2
    77   109   108    1
    78   108   105    1
    79    84    83    1
    80   107   106    2
    81    77    78    1
    82    78    79    1
    83    85    79   am
    84    85    86    1
    85    79    80    2
    86   105   106    1
    87   105   104    1
    88    86    87    1
    89    87    88    2
    90   100    99    2
    91    95    94    1
    92    95    96    1
    93   102   101    1
    94    94    93    1
    95    99    98    1
    96   101    98    1
    97   101   103    1
    98    93    90    1
    99    98    97    1
   100    90    89    1
   101    90    91    1
   102    92    91    2
