@<TRIPOS>MOLECULE
tmp/5uryB00.pdb
 109 110 0 0 0
SMALL
GASTEIGER

@<TRIPOS>ATOM
      1  N        -42.1210   68.6120    9.1340 N.3    39  GLN39      -0.1231
      2  CA       -40.9460   67.8860    9.6300 C.3    39  GLN39       0.1698
      3  C        -41.0430   66.3870    9.3120 C.2    39  GLN39       0.2592
      4  O        -40.0410   65.6870    9.3050 O.2    39  GLN39      -0.2718
      5  CB       -40.7700   68.0890   11.1360 C.3    39  GLN39       0.0381
      6  CG       -40.5540   69.5730   11.5350 C.3    39  GLN39       0.0905
      7  CD       -40.5550   69.7970   13.0450 C.2    39  GLN39       0.2608
      8  OE1      -40.4110   68.8530   13.8190 O.2    39  GLN39      -0.2717
      9  NE2      -40.7170   71.0580   13.4650 N.am   39  GLN39      -0.0878
     10  N        -42.2520   65.9100    9.0470 N.am   40  PHE40      -0.1962
     11  CA       -42.4810   64.5120    8.6610 C.3    40  PHE40       0.1771
     12  C        -42.3620   64.2820    7.1600 C.2    40  PHE40       0.2620
     13  O        -42.4680   63.1520    6.6880 O.2    40  PHE40      -0.2715
     14  CB       -43.8720   64.0460    9.1050 C.3    40  PHE40       0.0574
     15  CG       -44.0140   63.8660   10.5890 C.ar   40  PHE40      -0.0200
     16  CD1      -43.6260   62.6820   11.1940 C.ar   40  PHE40      -0.0042
     17  CD2      -44.5440   64.8750   11.3740 C.ar   40  PHE40      -0.0042
     18  CE1      -43.7580   62.5110   12.5660 C.ar   40  PHE40      -0.0003
     19  CE2      -44.6820   64.7130   12.7430 C.ar   40  PHE40      -0.0003
     20  CZ       -44.2920   63.5240   13.3400 C.ar   40  PHE40      -0.0000
     21  N        -42.1590   65.3490    6.4040 N.am   41  TRP41      -0.1960
     22  CA       -42.1660   65.2260    4.9530 C.3    41  TRP41       0.1756
     23  C        -41.2060   64.1640    4.3910 C.2    41  TRP41       0.2462
     24  O        -41.5770   63.4660    3.4480 O.2    41  TRP41      -0.2730
     25  CB       -41.8830   66.5790    4.2750 C.3    41  TRP41       0.0590
     26  CG       -41.8900   66.4070    2.8070 C.ar   41  TRP41       0.0006
     27  CD1      -40.7980   66.3870    1.9840 C.ar   41  TRP41       0.0946
     28  CD2      -43.0260   66.1140    1.9730 C.ar   41  TRP41       0.0152
     29  NE1      -41.1890   66.1450    0.6880 N.ar   41  TRP41      -0.2442
     30  CE2      -42.5490   65.9640    0.6570 C.ar   41  TRP41       0.0810
     31  CE3      -44.3940   65.9780    2.2080 C.ar   41  TRP41       0.0012
     32  CZ2      -43.3960   65.6920   -0.4150 C.ar   41  TRP41       0.0191
     33  CZ3      -45.2300   65.7050    1.1410 C.ar   41  TRP41       0.0001
     34  CH2      -44.7290   65.5690   -0.1510 C.ar   41  TRP41       0.0015
     35  N        -39.9840   64.0260    4.9540 N.am   42  PRO42      -0.2716
     36  CA       -39.1210   62.9520    4.4300 C.3    42  PRO42       0.1536
     37  C        -39.7520   61.5590    4.5540 C.2    42  PRO42       0.2598
     38  O        -39.5010   60.7050    3.6970 O.2    42  PRO42      -0.2715
     39  CB       -37.8580   63.0540    5.3010 C.3    42  PRO42       0.0310
     40  CG       -37.7990   64.4930    5.6720 C.3    42  PRO42       0.0237
     41  CD       -39.2370   64.9380    5.8410 C.3    42  PRO42       0.0939
     42  N        -40.5580   61.3450    5.5950 N.am   43  LEU43      -0.1978
     43  CA       -41.2270   60.0620    5.7990 C.3    43  LEU43       0.1596
     44  C        -42.2670   59.8080    4.7190 C.2    43  LEU43       0.2287
     45  O        -42.5150   58.6660    4.3370 O.2    43  LEU43      -0.2864
     46  CB       -41.8950   60.0110    7.1700 C.3    43  LEU43       0.0297
     47  CG       -41.2700   59.2890    8.3520 C.3    43  LEU43       0.0022
     48  CD1      -42.3720   59.0480    9.3840 C.3    43  LEU43       0.0001
     49  CD2      -40.5850   57.9850    7.9580 C.3    43  LEU43       0.0001
     50  N        -41.9990   60.8830    1.4970 N.3    45  GLU45      -0.1231
     51  CA       -41.2260   60.4520    0.3250 C.3    45  GLU45       0.1699
     52  C        -40.6190   59.0530    0.4860 C.2    45  GLU45       0.2592
     53  O        -40.3690   58.3570   -0.4890 O.2    45  GLU45      -0.2718
     54  CB       -40.1190   61.4650    0.0260 C.3    45  GLU45       0.0402
     55  CG       -40.6810   62.8340   -0.3020 C.3    45  GLU45       0.1161
     56  CD       -39.6860   63.7530   -0.9950 C.2    45  GLU45       0.3649
     57  OE1      -40.0760   64.8780   -1.3490 O.co2  45  GLU45      -0.2457
     58  OE2      -38.5270   63.3560   -1.1950 O.co2  45  GLU45      -0.2457
     59  N        -40.3710   58.6440    1.7230 N.am   46  ILE46      -0.1980
     60  CA       -39.8370   57.3100    1.9610 C.3    46  ILE46       0.1595
     61  C        -40.9060   56.2350    1.6750 C.2    46  ILE46       0.2287
     62  O        -40.5820   55.1220    1.2570 O.2    46  ILE46      -0.2864
     63  CB       -39.2950   57.2190    3.4140 C.3    46  ILE46       0.0276
     64  CG1      -37.8820   57.8150    3.4790 C.3    46  ILE46       0.0022
     65  CG2      -39.3230   55.7940    3.9430 C.3    46  ILE46       0.0022
     66  CD1      -37.4150   58.1630    4.9190 C.3    46  ILE46       0.0001
     67  N        -39.0570   54.7630   11.8030 N.3    90  MET90      -0.1245
     68  CA       -38.8910   55.8180   12.7800 C.3    90  MET90       0.1570
     69  C        -38.0760   55.3630   13.9920 C.2    90  MET90       0.2261
     70  O        -37.1920   56.0840   14.4450 O.2    90  MET90      -0.2867
     71  CB       -40.2550   56.3180   13.2290 C.3    90  MET90       0.0387
     72  CG       -41.0450   56.8630   12.0780 C.3    90  MET90       0.0595
     73  SD       -42.4870   57.7180   12.6680 S.3    90  MET90      -0.1393
     74  CE       -41.6280   59.0130   13.5850 C.3    90  MET90       0.0692
     75  N        -34.4790   54.9450   13.0900 N.3    93  TYR93      -0.1241
     76  CA       -33.7890   56.2260   12.9000 C.3    93  TYR93       0.1605
     77  C        -33.7080   57.0610   14.1900 C.2    93  TYR93       0.2264
     78  O        -33.1250   58.1530   14.1900 O.2    93  TYR93      -0.2867
     79  CB       -34.4800   57.0490   11.7960 C.3    93  TYR93       0.0534
     80  CG       -34.3950   56.4600   10.3970 C.ar   93  TYR93      -0.0201
     81  CD1      -33.4540   55.5080   10.0810 C.ar   93  TYR93      -0.0009
     82  CD2      -35.2730   56.8740    9.3920 C.ar   93  TYR93      -0.0009
     83  CE1      -33.3720   54.9700    8.8080 C.ar   93  TYR93       0.0417
     84  CE2      -35.2000   56.3480    8.1050 C.ar   93  TYR93       0.0417
     85  CZ       -34.2470   55.4020    7.8240 C.ar   93  TYR93       0.1957
     86  OH       -34.1650   54.8690    6.5670 O.3    93  TYR93      -0.2866
     87  N        -36.4220   58.0590   16.2130 N.3    95  PHE95      -0.1227
     88  CA       -37.5730   58.9250   16.4550 C.3    95  PHE95       0.1736
     89  C        -38.7260   58.0710   16.9660 C.2    95  PHE95       0.2595
     90  O        -39.2330   57.1950   16.2500 O.2    95  PHE95      -0.2718
     91  CB       -37.9900   59.6660   15.1690 C.3    95  PHE95       0.0547
     92  CG       -36.9280   60.5890   14.6270 C.ar   95  PHE95      -0.0202
     93  CD1      -35.9060   60.0990   13.8250 C.ar   95  PHE95      -0.0042
     94  CD2      -36.9590   61.9450   14.9200 C.ar   95  PHE95      -0.0042
     95  CE1      -34.9130   60.9520   13.3190 C.ar   95  PHE95      -0.0003
     96  CE2      -35.9870   62.7970   14.4220 C.ar   95  PHE95      -0.0003
     97  CZ       -34.9620   62.2950   13.6200 C.ar   95  PHE95      -0.0000
     98  N        -39.1310   58.3040   18.2020 N.am   96  ALA96      -0.1980
     99  CA       -40.2150   57.5210   18.7730 C.3    96  ALA96       0.1597
    100  C        -41.5460   57.9250   18.1390 C.2    96  ALA96       0.2287
    101  O        -41.7590   59.0980   17.8220 O.2    96  ALA96      -0.2864
    102  CB       -40.2650   57.6990   20.2920 C.3    96  ALA96       0.0319
    103  N        -44.6220   59.4300   18.2540 N.3    98  PRO98      -0.2116
    104  CA       -45.0270   60.4400   19.2470 C.3    98  PRO98       0.1372
    105  C        -46.3760   60.0910   19.9120 C.2    98  PRO98       0.2244
    106  O        -47.2690   59.5110   19.2750 O.2    98  PRO98      -0.2868
    107  CB       -45.1260   61.7340   18.4280 C.3    98  PRO98       0.0268
    108  CG       -44.4440   61.4470   17.1340 C.3    98  PRO98       0.0207
    109  CD       -44.5910   59.9750   16.8910 C.3    98  PRO98       0.0892
@<TRIPOS>BOND
     1    57    56   ar
     2    58    56   ar
     3    56    55    1
     4    53    52    2
     5    32    34   ar
     6    32    30   ar
     7    55    54    1
     8    34    33   ar
     9    54    51    1
    10    51    52    1
    11    51    50    1
    12    52    59   am
    13    30    29   ar
    14    30    28   ar
    15    29    27   ar
    16    33    31   ar
    17    62    61    2
    18    61    60    1
    19    59    60    1
    20    60    63    1
    21    28    31   ar
    22    28    26   ar
    23    27    26   ar
    24    26    25    1
    25    63    64    1
    26    63    65    1
    27    24    23    2
    28    64    66    1
    29    38    37    2
    30    25    22    1
    31    45    44    2
    32    23    22    1
    33    23    35   am
    34    36    37    1
    35    36    35    1
    36    36    39    1
    37    37    42   am
    38    44    43    1
    39    22    21    1
    40    35    41    1
    41    39    40    1
    42    42    43    1
    43    40    41    1
    44    43    46    1
    45    21    12   am
    46    86    85    1
    47    13    12    2
    48    12    11    1
    49    46    47    1
    50    85    84   ar
    51    85    83   ar
    52    49    47    1
    53    84    82   ar
    54    47    48    1
    55    11    10    1
    56    11    14    1
    57    83    81   ar
    58    10     3   am
    59    14    15    1
    60     1     2    1
    61     4     3    2
    62     3     2    1
    63    82    80   ar
    64     2     5    1
    65    81    80   ar
    66    80    79    1
    67    15    16   ar
    68    15    17   ar
    69     5     6    1
    70    16    18   ar
    71    17    19   ar
    72     6     7    1
    73    79    76    1
    74    67    68    1
    75    72    73    1
    76    72    71    1
    77    18    20   ar
    78    73    74    1
    79    19    20   ar
    80    68    71    1
    81    68    69    1
    82    76    75    1
    83    76    77    1
    84     7     9   am
    85     7     8    2
    86    95    97   ar
    87    95    93   ar
    88    97    96   ar
    89    93    92   ar
    90    69    70    2
    91    78    77    2
    92    96    94   ar
    93    92    94   ar
    94    92    91    1
    95    91    88    1
    96    87    88    1
    97    90    89    2
    98    88    89    1
    99   109   108    1
   100   109   103    1
   101    89    98   am
   102   108   107    1
   103   101   100    2
   104   100    99    1
   105    98    99    1
   106   103   104    1
   107   107   104    1
   108    99   102    1
   109   104   105    1
   110   106   105    2
