@<TRIPOS>MOLECULE
tmp/5urzB00.pdb
 118 114 0 0 0
SMALL
GASTEIGER

@<TRIPOS>ATOM
      1  N        -44.7930   72.3000   11.8030 N.3    34  GLU34      -0.1245
      2  CA       -44.5800   71.0640   12.5360 C.3    34  GLU34       0.1567
      3  C        -44.7930   69.8200   11.6530 C.2    34  GLU34       0.2260
      4  O        -43.9520   68.9270   11.6270 O.2    34  GLU34      -0.2867
      5  CB       -45.4880   71.0150   13.7600 C.3    34  GLU34       0.0388
      6  CG       -45.1160   69.9050   14.7110 C.3    34  GLU34       0.1160
      7  CD       -45.7430   70.0710   16.0720 C.2    34  GLU34       0.3649
      8  OE1      -45.7190   71.2070   16.6050 O.co2  34  GLU34      -0.2457
      9  OE2      -46.2600   69.0590   16.5980 O.co2  34  GLU34      -0.2457
     10  N        -42.0650   68.6290    9.1620 N.3    37  GLN37      -0.1231
     11  CA       -40.8980   67.9300    9.6920 C.3    37  GLN37       0.1698
     12  C        -40.9780   66.4310    9.4150 C.2    37  GLN37       0.2592
     13  O        -39.9690   65.7450    9.4240 O.2    37  GLN37      -0.2718
     14  CB       -40.7550   68.1790   11.1900 C.3    37  GLN37       0.0381
     15  CG       -40.4980   69.6420   11.5560 C.3    37  GLN37       0.0905
     16  CD       -40.5090   69.8790   13.0560 C.2    37  GLN37       0.2608
     17  OE1      -40.3360   68.9520   13.8340 O.2    37  GLN37      -0.2717
     18  NE2      -40.7150   71.1260   13.4640 N.am   37  GLN37      -0.0878
     19  N        -42.1820   65.9400    9.1470 N.am   38  PHE38      -0.1976
     20  CA       -42.4000   64.5410    8.7790 C.3    38  PHE38       0.1639
     21  C        -42.2650   64.2940    7.2790 C.2    38  PHE38       0.2290
     22  O        -42.3520   63.1520    6.8110 O.2    38  PHE38      -0.2864
     23  CB       -43.7890   64.0890    9.2080 C.3    38  PHE38       0.0560
     24  CG       -43.9530   63.8950   10.6890 C.ar   38  PHE38      -0.0200
     25  CD1      -43.6030   62.6920   11.2850 C.ar   38  PHE38      -0.0042
     26  CD2      -44.5140   64.8910   11.4750 C.ar   38  PHE38      -0.0042
     27  CE1      -43.7770   62.4960   12.6470 C.ar   38  PHE38      -0.0003
     28  CE2      -44.7000   64.7030   12.8400 C.ar   38  PHE38      -0.0003
     29  CZ       -44.3290   63.5050   13.4250 C.ar   38  PHE38      -0.0000
     30  N        -39.9380   63.9390    5.0150 N.3    40  PRO40      -0.2102
     31  CA       -39.1000   62.8700    4.4490 C.3    40  PRO40       0.1504
     32  C        -39.7450   61.4850    4.5410 C.2    40  PRO40       0.2575
     33  O        -39.5120   60.6350    3.6730 O.2    40  PRO40      -0.2718
     34  CB       -37.8170   62.9410    5.3000 C.3    40  PRO40       0.0282
     35  CG       -37.7300   64.3970    5.6780 C.3    40  PRO40       0.0208
     36  CD       -39.1700   64.7910    5.9500 C.3    40  PRO40       0.0893
     37  N        -40.5570   61.2720    5.5700 N.am   41  LEU41      -0.1980
     38  CA       -41.2430   60.0000    5.7680 C.3    41  LEU41       0.1596
     39  C        -42.2760   59.7540    4.6860 C.2    41  LEU41       0.2287
     40  O        -42.5350   58.6120    4.3050 O.2    41  LEU41      -0.2864
     41  CB       -41.9280   59.9740    7.1280 C.3    41  LEU41       0.0297
     42  CG       -41.2430   59.3060    8.2980 C.3    41  LEU41       0.0022
     43  CD1      -42.2950   59.0290    9.3740 C.3    41  LEU41       0.0001
     44  CD2      -40.5690   58.0260    7.8470 C.3    41  LEU41       0.0001
     45  N        -40.3250   58.5710    1.7540 N.3    44  ILE44      -0.1245
     46  CA       -39.7890   57.2400    1.9830 C.3    44  ILE44       0.1561
     47  C        -40.8660   56.1770    1.6660 C.2    44  ILE44       0.2260
     48  O        -40.5600   55.0930    1.1840 O.2    44  ILE44      -0.2867
     49  CB       -39.2710   57.1340    3.4360 C.3    44  ILE44       0.0252
     50  CG1      -37.8310   57.6620    3.5130 C.3    44  ILE44       0.0019
     51  CG2      -39.3890   55.7270    3.9640 C.3    44  ILE44       0.0019
     52  CD1      -37.4690   58.2870    4.8680 C.3    44  ILE44       0.0001
     53  N        -53.0160   67.4500   11.9280 N.3    58  TYR58      -0.1241
     54  CA       -52.4450   68.7930   11.9450 C.3    58  TYR58       0.1605
     55  C        -53.3210   69.8280   11.2490 C.2    58  TYR58       0.2264
     56  O        -53.3610   70.9830   11.6530 O.2    58  TYR58      -0.2867
     57  CB       -51.0560   68.7870   11.3200 C.3    58  TYR58       0.0534
     58  CG       -50.0190   68.2420   12.2640 C.ar   58  TYR58      -0.0201
     59  CD1      -49.6940   66.8920   12.2630 C.ar   58  TYR58      -0.0009
     60  CD2      -49.3870   69.0740   13.1780 C.ar   58  TYR58      -0.0009
     61  CE1      -48.7460   66.3890   13.1290 C.ar   58  TYR58       0.0417
     62  CE2      -48.4460   68.5810   14.0570 C.ar   58  TYR58       0.0417
     63  CZ       -48.1280   67.2400   14.0260 C.ar   58  TYR58       0.1957
     64  OH       -47.1830   66.7460   14.8990 O.3    58  TYR58      -0.2866
     65  N        -39.0210   54.7050   11.7940 N.3    88  MET88      -0.1245
     66  CA       -38.8420   55.7680   12.7630 C.3    88  MET88       0.1570
     67  C        -38.0270   55.3510   13.9900 C.2    88  MET88       0.2261
     68  O        -37.1500   56.0830   14.4230 O.2    88  MET88      -0.2867
     69  CB       -40.2030   56.2820   13.2110 C.3    88  MET88       0.0387
     70  CG       -41.0140   56.7880   12.0720 C.3    88  MET88       0.0595
     71  SD       -42.4000   57.7290   12.6830 S.3    88  MET88      -0.1393
     72  CE       -41.4610   59.0460   13.4680 C.3    88  MET88       0.0692
     73  N        -34.4300   54.9220   13.0750 N.3    91  TYR91      -0.1241
     74  CA       -33.7750   56.2140   12.8750 C.3    91  TYR91       0.1605
     75  C        -33.6980   57.0440   14.1550 C.2    91  TYR91       0.2264
     76  O        -33.1610   58.1520   14.1380 O.2    91  TYR91      -0.2867
     77  CB       -34.4990   57.0120   11.7800 C.3    91  TYR91       0.0534
     78  CG       -34.3730   56.3950   10.3890 C.ar   91  TYR91      -0.0201
     79  CD1      -33.4210   55.4290   10.1190 C.ar   91  TYR91      -0.0009
     80  CD2      -35.2130   56.7810    9.3590 C.ar   91  TYR91      -0.0009
     81  CE1      -33.3060   54.8620    8.8620 C.ar   91  TYR91       0.0417
     82  CE2      -35.1040   56.2330    8.0910 C.ar   91  TYR91       0.0417
     83  CZ       -34.1580   55.2750    7.8450 C.ar   91  TYR91       0.1957
     84  OH       -34.0700   54.7300    6.5820 O.3    91  TYR91      -0.2866
     85  N        -36.3450   57.9840   16.2080 N.3    93  PHE93      -0.1227
     86  CA       -37.4900   58.8840   16.4150 C.3    93  PHE93       0.1736
     87  C        -38.6710   58.0850   16.9500 C.2    93  PHE93       0.2595
     88  O        -39.2440   57.2470   16.2430 O.2    93  PHE93      -0.2718
     89  CB       -37.8930   59.6050   15.0990 C.3    93  PHE93       0.0547
     90  CG       -36.8250   60.5430   14.5610 C.ar   93  PHE93      -0.0202
     91  CD1      -35.8680   60.0850   13.6700 C.ar   93  PHE93      -0.0042
     92  CD2      -36.7770   61.8690   14.9670 C.ar   93  PHE93      -0.0042
     93  CE1      -34.8830   60.9420   13.1590 C.ar   93  PHE93      -0.0003
     94  CE2      -35.7990   62.7260   14.4910 C.ar   93  PHE93      -0.0003
     95  CZ       -34.8440   62.2630   13.5800 C.ar   93  PHE93      -0.0000
     96  N        -39.0300   58.3200   18.2010 N.am   94  ALA94      -0.1980
     97  CA       -40.1550   57.6020   18.7820 C.3    94  ALA94       0.1597
     98  C        -41.4510   58.0470   18.1320 C.2    94  ALA94       0.2287
     99  O        -41.6710   59.2440   17.9170 O.2    94  ALA94      -0.2864
    100  CB       -40.2210   57.8190   20.2920 C.3    94  ALA94       0.0319
    101  N        -44.5590   59.4970   18.2930 N.3    96  PRO96      -0.2116
    102  CA       -44.9830   60.4600   19.3230 C.3    96  PRO96       0.1372
    103  C        -46.3180   60.0640   19.9920 C.2    96  PRO96       0.2244
    104  O        -47.2520   59.6170   19.3170 O.2    96  PRO96      -0.2868
    105  CB       -45.1240   61.7790   18.5460 C.3    96  PRO96       0.0268
    106  CG       -44.3900   61.5760   17.2730 C.3    96  PRO96       0.0207
    107  CD       -44.4870   60.1110   16.9590 C.3    96  PRO96       0.0892
    108  N        -48.7140   61.8140   21.1760 N.3    98  ARG98      -0.1245
    109  CA       -49.8360   62.5710   20.6300 C.3    98  ARG98       0.1563
    110  C        -50.5580   61.8320   19.4900 C.2    98  ARG98       0.2260
    111  O        -51.7820   61.9280   19.3590 O.2    98  ARG98      -0.2867
    112  CB       -49.3480   63.9370   20.1460 C.3    98  ARG98       0.0307
    113  CG       -47.9340   63.9240   19.5770 C.3    98  ARG98       0.0489
    114  CD       -47.5380   65.2980   19.0600 C.3    98  ARG98       0.2205
    115  NE       -47.6760   66.3330   20.0840 N.pl3  98  ARG98      -0.0865
    116  CZ       -47.5820   67.6390   19.8470 C.cat  98  ARG98       0.5346
    117  NH1      -47.3530   68.0760   18.6160 N.pl3  98  ARG98       0.1354
    118  NH2      -47.7230   68.5100   20.8390 N.pl3  98  ARG98       0.1354
@<TRIPOS>BOND
     1    48    47    2
     2    47    46    1
     3    45    46    1
     4    46    49    1
     5    49    50    1
     6    49    51    1
     7    50    52    1
     8    33    32    2
     9    40    39    2
    10    31    32    1
    11    31    30    1
    12    31    34    1
    13    32    37   am
    14    39    38    1
    15    30    36    1
    16    34    35    1
    17    37    38    1
    18    35    36    1
    19    38    41    1
    20    84    83    1
    21    22    21    2
    22    41    42    1
    23    21    20    1
    24    83    82   ar
    25    83    81   ar
    26    44    42    1
    27    82    80   ar
    28    42    43    1
    29    20    19    1
    30    20    23    1
    31    81    79   ar
    32    19    12   am
    33    10    11    1
    34    23    24    1
    35    80    78   ar
    36    12    13    2
    37    12    11    1
    38    11    14    1
    39    79    78   ar
    40    78    77    1
    41    24    25   ar
    42    24    26   ar
    43    14    15    1
    44    55    56    2
    45    55    54    1
    46    25    27   ar
    47    57    54    1
    48    57    58    1
    49    26    28   ar
    50    15    16    1
    51     4     3    2
    52     3     2    1
    53    77    74    1
    54    65    66    1
    55     1     2    1
    56    53    54    1
    57    70    71    1
    58    70    69    1
    59    59    58   ar
    60    59    61   ar
    61    58    60   ar
    62     2     5    1
    63    27    29   ar
    64    71    72    1
    65    66    69    1
    66    66    67    1
    67    28    29   ar
    68    74    73    1
    69    74    75    1
    70    16    18   am
    71    16    17    2
    72    61    63   ar
    73    93    95   ar
    74    93    91   ar
    75    60    62   ar
    76    95    94   ar
    77    91    90   ar
    78     5     6    1
    79    67    68    2
    80    63    62   ar
    81    63    64    1
    82    76    75    2
    83    94    92   ar
    84    90    92   ar
    85    90    89    1
    86     6     7    1
    87    89    86    1
    88     7     9   ar
    89     7     8   ar
    90    85    86    1
    91    88    87    2
    92    86    87    1
    93    87    96   am
    94   107   106    1
    95   107   101    1
    96   106   105    1
    97    99    98    2
    98    98    97    1
    99    96    97    1
   100   101   102    1
   101   105   102    1
   102   117   116    1
   103    97   100    1
   104   114   113    1
   105   114   115    1
   106   104   103    2
   107   102   103    1
   108   111   110    2
   109   110   109    1
   110   113   112    1
   111   116   115    2
   112   116   118    1
   113   112   109    1
   114   109   108    1
