@<TRIPOS>MOLECULE
tmp/5us1A01.pdb
 93 90 0 0 0
SMALL
GASTEIGER

@<TRIPOS>ATOM
      1  N         75.9500  188.8180   26.0490 N.3    92  MET92      -0.1245
      2  CA        77.1820  188.1500   26.4430 C.3    92  MET92       0.1570
      3  C         78.3580  188.7770   25.7070 C.2    92  MET92       0.2261
      4  O         78.3510  188.8660   24.4750 O.2    92  MET92      -0.2867
      5  CB        77.0940  186.6570   26.1330 C.3    92  MET92       0.0387
      6  CG        78.4270  186.0100   25.7980 C.3    92  MET92       0.0595
      7  SD        79.4650  185.8300   27.2510 S.3    92  MET92      -0.1393
      8  CE        78.4760  184.6930   28.2260 C.3    92  MET92       0.0692
      9  N         82.8760  189.5000   26.2470 N.3    94  VAL94      -0.1245
     10  CA        84.1540  189.5820   26.9400 C.3    94  VAL94       0.1561
     11  C         85.0490  190.5200   26.1430 C.2    94  VAL94       0.2260
     12  O         85.0490  190.4780   24.9080 O.2    94  VAL94      -0.2867
     13  CB        84.8040  188.1900   27.0830 C.3    94  VAL94       0.0252
     14  CG1       86.1480  188.2900   27.7920 C.3    94  VAL94       0.0019
     15  CG2       83.8690  187.2390   27.8220 C.3    94  VAL94       0.0019
     16  N         90.7720  190.0490   26.6090 N.3    98  TYR98      -0.1227
     17  CA        90.5680  189.0990   27.6930 C.3    98  TYR98       0.1736
     18  C         89.9420  187.7950   27.2220 C.2    98  TYR98       0.2595
     19  O         89.5170  186.9830   28.0500 O.2    98  TYR98      -0.2718
     20  CB        89.7140  189.7320   28.7880 C.3    98  TYR98       0.0548
     21  CG        90.5110  190.6770   29.6370 C.ar   98  TYR98      -0.0200
     22  CD1       90.7110  191.9900   29.2410 C.ar   98  TYR98      -0.0009
     23  CD2       91.0950  190.2480   30.8190 C.ar   98  TYR98      -0.0009
     24  CE1       91.4540  192.8540   30.0080 C.ar   98  TYR98       0.0417
     25  CE2       91.8450  191.1060   31.5920 C.ar   98  TYR98       0.0417
     26  CZ        92.0180  192.4080   31.1850 C.ar   98  TYR98       0.1957
     27  OH        92.7660  193.2630   31.9570 O.3    98  TYR98      -0.2866
     28  N         89.8590  187.5810   25.9170 N.am   99  ARG99      -0.1966
     29  CA        89.3790  186.3130   25.4100 C.3    99  ARG99       0.1729
     30  C         90.4600  185.2530   25.5950 C.2    99  ARG99       0.2616
     31  O         91.6120  185.5590   25.9160 O.2    99  ARG99      -0.2715
     32  CB        88.9680  186.4600   23.9460 C.3    99  ARG99       0.0348
     33  CG        87.5580  187.0020   23.7870 C.3    99  ARG99       0.0492
     34  CD        87.4580  188.1280   22.7690 C.3    99  ARG99       0.2205
     35  NE        86.1390  188.7590   22.8160 N.pl3  99  ARG99      -0.0865
     36  CZ        85.6970  189.6550   21.9380 C.cat  99  ARG99       0.5346
     37  NH1       86.4680  190.0380   20.9290 N.pl3  99  ARG99       0.1354
     38  NH2       84.4830  190.1720   22.0680 N.pl3  99  ARG99       0.1354
     39  N         90.0770  183.9880   25.4190 N.am  100  ARG100     -0.1963
     40  CA        90.9930  182.8540   25.5590 C.3   100  ARG100      0.1729
     41  C         91.4110  182.5870   26.9980 C.2   100  ARG100      0.2616
     42  O         92.4450  181.9530   27.2260 O.2   100  ARG100     -0.2715
     43  CB        92.2680  183.0300   24.7210 C.3   100  ARG100      0.0348
     44  CG        92.0670  183.1200   23.2430 C.3   100  ARG100      0.0492
     45  CD        91.0870  182.0650   22.8060 C.3   100  ARG100      0.2205
     46  NE        90.3960  182.4690   21.5930 N.pl3 100  ARG100     -0.0865
     47  CZ        89.7630  181.6210   20.7920 C.cat 100  ARG100      0.5346
     48  NH1       89.7420  180.3280   21.0860 N.pl3 100  ARG100      0.1354
     49  NH2       89.1500  182.0620   19.7030 N.pl3 100  ARG100      0.1354
     50  N         90.6760  183.0670   27.9990 N.am  101  GLN101     -0.1963
     51  CA        91.0920  182.8650   29.3810 C.3   101  GLN101      0.1733
     52  C         90.0370  182.1730   30.2300 C.2   101  GLN101      0.2617
     53  O         90.2220  182.0460   31.4450 O.2   101  GLN101     -0.2715
     54  CB        91.4770  184.1990   30.0210 C.3   101  GLN101      0.0408
     55  CG        92.1500  185.1670   29.0700 C.3   101  GLN101      0.0908
     56  CD        92.7290  186.3670   29.7870 C.2   101  GLN101      0.2608
     57  OE1       92.4210  186.6200   30.9580 O.2   101  GLN101     -0.2717
     58  NE2       93.5700  187.1220   29.0850 N.am  101  GLN101     -0.0878
     59  N         88.9460  181.7130   29.6320 N.am  102  GLY102     -0.1940
     60  CA        87.9230  181.0270   30.3880 C.3   102  GLY102      0.2014
     61  C         86.9070  181.9220   31.0540 C.2   102  GLY102      0.2639
     62  O         86.2210  181.4690   31.9770 O.2   102  GLY102     -0.2714
     63  N         86.7790  183.1760   30.6190 N.am  103  ILE103     -0.1963
     64  CA        85.8380  184.0920   31.2590 C.3   103  ILE103      0.1727
     65  C         84.4190  183.8400   30.7670 C.2   103  ILE103      0.2617
     66  O         83.4720  183.7890   31.5610 O.2   103  ILE103     -0.2715
     67  CB        86.2630  185.5510   31.0250 C.3   103  ILE103      0.0290
     68  CG1       87.6000  185.8280   31.7130 C.3   103  ILE103      0.0022
     69  CG2       85.1890  186.5050   31.5300 C.3   103  ILE103      0.0023
     70  CD1       88.1490  187.2110   31.4390 C.3   103  ILE103      0.0001
     71  N         84.2480  183.6800   29.4540 N.am  104  GLY104     -0.1940
     72  CA        82.9320  183.3570   28.9280 C.3   104  GLY104      0.2014
     73  C         82.3700  182.0720   29.5100 C.2   104  GLY104      0.2638
     74  O         81.1700  181.9700   29.7670 O.2   104  GLY104     -0.2714
     75  N         83.2340  181.0780   29.7250 N.am  105  ARG105     -0.1977
     76  CA        82.7940  179.8260   30.3310 C.3   105  ARG105      0.1597
     77  C         82.3140  180.0560   31.7580 C.2   105  ARG105      0.2287
     78  O         81.2420  179.5800   32.1520 O.2   105  ARG105     -0.2864
     79  CB        83.9330  178.8050   30.3010 C.3   105  ARG105      0.0334
     80  CG        83.8710  177.7710   31.4140 C.3   105  ARG105      0.0492
     81  CD        84.3060  176.4100   30.9260 C.3   105  ARG105      0.2205
     82  NE        84.2180  175.3950   31.9700 N.pl3 105  ARG105     -0.0865
     83  CZ        83.4670  174.3000   31.8870 C.cat 105  ARG105      0.5346
     84  NH1       82.7350  174.0740   30.8020 N.pl3 105  ARG105      0.1354
     85  NH2       83.4520  173.4280   32.8890 N.pl3 105  ARG105      0.1354
     86  N         80.5790  178.2280   22.2950 N.3   133  LEU133     -0.1245
     87  CA        80.7290  178.4270   23.7320 C.3   133  LEU133      0.1561
     88  C         79.5310  177.8700   24.4860 C.2   133  LEU133      0.2260
     89  O         79.6910  177.1400   25.4690 O.2   133  LEU133     -0.2867
     90  CB        80.9200  179.9150   24.0350 C.3   133  LEU133      0.0270
     91  CG        80.7080  180.3270   25.4970 C.3   133  LEU133      0.0019
     92  CD1       81.9320  180.0060   26.3460 C.3   133  LEU133      0.0001
     93  CD2       80.3550  181.7990   25.6030 C.3   133  LEU133      0.0001
@<TRIPOS>BOND
     1    49    47    1
     2    47    48    1
     3    47    46    2
     4    37    36    1
     5    46    45    1
     6    36    38    1
     7    36    35    2
     8    86    87    1
     9    34    35    1
    10    34    33    1
    11    45    44    1
    12    44    43    1
    13    87    90    1
    14    87    88    1
    15    33    32    1
    16    32    29    1
    17    90    91    1
    18     4     3    2
    19    88    89    2
    20    43    40    1
    21    12    11    2
    22    29    30    1
    23    29    28    1
    24    39    40    1
    25    39    30   am
    26    91    93    1
    27    91    92    1
    28    40    41    1
    29    30    31    2
    30     3     2    1
    31     6     5    1
    32     6     7    1
    33    28    18   am
    34     1     2    1
    35     5     2    1
    36    11    10    1
    37     9    10    1
    38    16    17    1
    39    10    13    1
    40    41    42    2
    41    41    50   am
    42    13    14    1
    43    13    15    1
    44    18    17    1
    45    18    19    2
    46     7     8    1
    47    17    20    1
    48    50    51    1
    49    20    21    1
    50    72    71    1
    51    72    73    1
    52    55    56    1
    53    55    54    1
    54    58    56   am
    55    22    21   ar
    56    22    24   ar
    57    51    54    1
    58    51    52    1
    59    71    65   am
    60    73    75   am
    61    73    74    2
    62    59    52   am
    63    59    60    1
    64    21    23   ar
    65    75    76    1
    66    56    57    2
    67    24    26   ar
    68    52    53    2
    69    79    76    1
    70    79    80    1
    71    76    77    1
    72    60    61    1
    73    63    61   am
    74    63    64    1
    75    65    64    1
    76    65    66    2
    77    84    83    1
    78    23    25   ar
    79    81    80    1
    80    81    82    1
    81    67    64    1
    82    67    69    1
    83    67    68    1
    84    61    62    2
    85    26    25   ar
    86    26    27    1
    87    70    68    1
    88    77    78    2
    89    83    82    2
    90    83    85    1
