@<TRIPOS>MOLECULE
tmp/5us1E01.pdb
 171 167 0 0 0
SMALL
GASTEIGER

@<TRIPOS>ATOM
      1  N         49.1920  153.1300   52.0190 N.3    34  GLY34      -0.1210
      2  CA        49.2330  154.4460   52.6320 C.3    34  GLY34       0.1956
      3  C         48.4980  154.5220   53.9560 C.2    34  GLY34       0.2611
      4  O         48.8510  155.3350   54.8170 O.2    34  GLY34      -0.2717
      5  N         47.4810  153.6790   54.1460 N.am   35  PHE35      -0.1976
      6  CA        46.6740  153.6950   55.3590 C.3    35  PHE35       0.1639
      7  C         47.0800  152.6350   56.3720 C.2    35  PHE35       0.2290
      8  O         46.4120  152.5020   57.4030 O.2    35  PHE35      -0.2864
      9  CB        45.1940  153.5270   55.0140 C.3    35  PHE35       0.0560
     10  CG        44.5060  154.8150   54.6720 C.ar   35  PHE35      -0.0200
     11  CD1       44.1370  155.7000   55.6670 C.ar   35  PHE35      -0.0042
     12  CD2       44.2340  155.1430   53.3560 C.ar   35  PHE35      -0.0042
     13  CE1       43.5070  156.8850   55.3590 C.ar   35  PHE35      -0.0003
     14  CE2       43.6060  156.3320   53.0380 C.ar   35  PHE35      -0.0003
     15  CZ        43.2420  157.2050   54.0420 C.ar   35  PHE35      -0.0000
     16  N         41.9080  160.3550   51.0530 N.3    87  MET87      -0.1230
     17  CA        43.0670  161.1830   50.7500 C.3    87  MET87       0.1702
     18  C         44.3220  160.4880   51.2630 C.2    87  MET87       0.2592
     19  O         44.4210  160.1700   52.4500 O.2    87  MET87      -0.2718
     20  CB        42.9020  162.5650   51.3800 C.3    87  MET87       0.0401
     21  CG        44.1910  163.2140   51.8370 C.3    87  MET87       0.0596
     22  SD        45.1860  163.7370   50.4440 S.3    87  MET87      -0.1393
     23  CE        44.2570  165.1580   49.8920 C.3    87  MET87       0.0692
     24  N         45.2770  160.2350   50.3740 N.am   88  VAL88      -0.1966
     25  CA        46.4540  159.4550   50.7400 C.3    88  VAL88       0.1727
     26  C         47.6070  159.8450   49.8270 C.2    88  VAL88       0.2616
     27  O         47.4230  160.0830   48.6290 O.2    88  VAL88      -0.2715
     28  CB        46.1610  157.9360   50.6710 C.3    88  VAL88       0.0290
     29  CG1       45.6960  157.5420   49.2740 C.3    88  VAL88       0.0023
     30  CG2       47.3800  157.1210   51.0940 C.3    88  VAL88       0.0023
     31  N         48.7960  159.9270   50.4130 N.am   89  VAL89      -0.1977
     32  CA        50.0400  160.0960   49.6780 C.3    89  VAL89       0.1596
     33  C         50.9650  158.9690   50.1000 C.2    89  VAL89       0.2287
     34  O         51.0540  158.6500   51.2920 O.2    89  VAL89      -0.2864
     35  CB        50.6850  161.4720   49.9520 C.3    89  VAL89       0.0276
     36  CG1       52.0850  161.5370   49.3560 C.3    89  VAL89       0.0022
     37  CG2       49.8130  162.5830   49.3960 C.3    89  VAL89       0.0022
     38  N         56.7170  159.8560   49.5180 N.3    93  TYR93      -0.1227
     39  CA        56.4640  161.0990   48.8010 C.3    93  TYR93       0.1736
     40  C         55.7860  162.1580   49.6620 C.2    93  TYR93       0.2595
     41  O         55.3180  163.1680   49.1250 O.2    93  TYR93      -0.2718
     42  CB        55.6190  160.8330   47.5560 C.3    93  TYR93       0.0548
     43  CG        56.3980  160.2000   46.4380 C.ar   93  TYR93      -0.0200
     44  CD1       56.6370  158.8300   46.4260 C.ar   93  TYR93      -0.0009
     45  CD2       56.9140  160.9730   45.3970 C.ar   93  TYR93      -0.0009
     46  CE1       57.3600  158.2410   45.4120 C.ar   93  TYR93       0.0417
     47  CE2       57.6390  160.3870   44.3750 C.ar   93  TYR93       0.0417
     48  CZ        57.8580  159.0180   44.3920 C.ar   93  TYR93       0.1957
     49  OH        58.5770  158.4180   43.3870 O.3    93  TYR93      -0.2866
     50  N         55.7240  161.9590   50.9750 N.am   94  ARG94      -0.1966
     51  CA        55.0470  162.9210   51.8250 C.3    94  ARG94       0.1729
     52  C         55.9650  164.0970   52.1470 C.2    94  ARG94       0.2616
     53  O         57.1870  164.0390   51.9700 O.2    94  ARG94      -0.2715
     54  CB        54.5570  162.2450   53.1020 C.3    94  ARG94       0.0348
     55  CG        53.4980  161.1920   52.8290 C.3    94  ARG94       0.0492
     56  CD        53.0010  160.5160   54.0880 C.3    94  ARG94       0.2205
     57  NE        52.0680  159.4440   53.7550 N.pl3  94  ARG94      -0.0865
     58  CZ        51.6940  158.4870   54.5950 C.cat  94  ARG94       0.5346
     59  NH1       52.1760  158.4620   55.8340 N.pl3  94  ARG94       0.1354
     60  NH2       50.8360  157.5570   54.1920 N.pl3  94  ARG94       0.1354
     61  N         55.3470  165.1760   52.6350 N.am   95  ARG95      -0.1963
     62  CA        56.0160  166.4490   52.9260 C.3    95  ARG95       0.1729
     63  C         56.5520  167.1270   51.6660 C.2    95  ARG95       0.2616
     64  O         57.4950  167.9120   51.7320 O.2    95  ARG95      -0.2715
     65  CB        57.1390  166.2760   53.9580 C.3    95  ARG95       0.0348
     66  CG        56.8120  165.2710   55.0450 C.3    95  ARG95       0.0492
     67  CD        55.9450  165.8460   56.1200 C.3    95  ARG95       0.2205
     68  NE        56.6600  166.8650   56.8810 N.pl3  95  ARG95      -0.0865
     69  CZ        56.0590  167.8420   57.5490 C.cat  95  ARG95       0.5346
     70  NH1       54.7370  167.9170   57.5600 N.pl3  95  ARG95       0.1354
     71  NH2       56.7730  168.7370   58.2100 N.pl3  95  ARG95       0.1354
     72  N         55.9490  166.8430   50.5150 N.am   96  GLN96      -0.1963
     73  CA        56.3690  167.3990   49.2370 C.3    96  GLN96       0.1733
     74  C         55.3310  168.3170   48.6010 C.2    96  GLN96       0.2617
     75  O         55.5630  168.8030   47.4870 O.2    96  GLN96      -0.2715
     76  CB        56.6960  166.2690   48.2500 C.3    96  GLN96       0.0408
     77  CG        58.1580  165.9140   48.1680 C.3    96  GLN96       0.0908
     78  CD        58.3750  164.4830   47.7230 C.2    96  GLN96       0.2608
     79  OE1       58.8150  163.6350   48.5030 O.2    96  GLN96      -0.2717
     80  NE2       58.0620  164.2030   46.4650 N.am   96  GLN96      -0.0878
     81  N         54.1970  168.5590   49.2600 N.am   97  GLY97      -0.1940
     82  CA        53.1500  169.3870   48.7030 C.3    97  GLY97       0.2014
     83  C         52.0960  168.6520   47.9060 C.2    97  GLY97       0.2639
     84  O         51.1730  169.2990   47.3920 O.2    97  GLY97      -0.2714
     85  N         52.1920  167.3240   47.7940 N.am   98  ILE98      -0.1963
     86  CA        51.2500  166.5780   46.9640 C.3    98  ILE98       0.1727
     87  C         49.8500  166.6430   47.5580 C.2    98  ILE98       0.2617
     88  O         48.8660  166.8820   46.8480 O.2    98  ILE98      -0.2715
     89  CB        51.7220  165.1230   46.7840 C.3    98  ILE98       0.0290
     90  CG1       53.0720  165.0800   46.0570 C.3    98  ILE98       0.0022
     91  CG2       50.7090  164.3290   45.9870 C.3    98  ILE98       0.0023
     92  CD1       53.7670  163.7370   46.1730 C.3    98  ILE98       0.0001
     93  N         49.7350  166.4080   48.8640 N.am   99  GLY99      -0.1940
     94  CA        48.4350  166.5020   49.5100 C.3    99  GLY99       0.2014
     95  C         47.7870  167.8620   49.3180 C.2    99  GLY99       0.2638
     96  O         46.5740  167.9620   49.1120 O.2    99  GLY99      -0.2714
     97  N         48.5930  168.9220   49.3580 N.am  100  ARG100     -0.1977
     98  CA        48.0700  170.2660   49.1400 C.3   100  ARG100      0.1597
     99  C         47.5290  170.4150   47.7260 C.2   100  ARG100      0.2287
    100  O         46.4320  170.9490   47.5200 O.2   100  ARG100     -0.2864
    101  CB        49.1570  171.3050   49.4110 C.3   100  ARG100      0.0334
    102  CG        48.6580  172.7160   49.2780 C.3   100  ARG100      0.0492
    103  CD        49.7440  173.6860   48.8460 C.3   100  ARG100      0.2205
    104  NE        49.1740  174.9910   48.5300 N.pl3 100  ARG100     -0.0865
    105  CZ        48.5330  175.7670   49.4010 C.cat 100  ARG100      0.5346
    106  NH1       48.3840  175.3840   50.6590 N.pl3 100  ARG100      0.1354
    107  NH2       48.0360  176.9360   49.0140 N.pl3 100  ARG100      0.1354
    108  N         35.5470  164.0300   56.8550 N.3   120  SER120     -0.1202
    109  CA        35.8140  163.7020   58.2500 C.3   120  SER120      0.2020
    110  C         37.2910  163.3590   58.3740 C.2   120  SER120      0.2619
    111  O         37.7700  162.4220   57.7260 O.2   120  SER120     -0.2717
    112  CB        34.9370  162.5420   58.7290 C.3   120  SER120      0.2103
    113  OG        35.6230  161.3070   58.6280 O.3   120  SER120     -0.2182
    114  N         38.0090  164.1120   59.2000 N.am  121  ALA121     -0.1965
    115  CA        39.4570  164.0190   59.2570 C.3   121  ALA121      0.1728
    116  C         39.9380  163.6390   60.6460 C.2   121  ALA121      0.2616
    117  O         39.2930  163.9390   61.6540 O.2   121  ALA121     -0.2715
    118  CB        40.1070  165.3370   58.8660 C.3   121  ALA121      0.0334
    119  N         41.0950  162.9830   60.6780 N.am  122  SER122     -0.1950
    120  CA        41.8280  162.8210   61.9200 C.3   122  SER122      0.1924
    121  C         42.3920  164.1650   62.3720 C.2   122  SER122      0.2314
    122  O         42.4760  165.1250   61.6010 O.2   122  SER122     -0.2863
    123  CB        42.9580  161.8030   61.7540 C.3   122  SER122      0.2116
    124  OG        42.8950  161.1690   60.4880 O.3   122  SER122     -0.2180
    125  N         45.4450  164.7210   63.1240 N.3   124  ASP124     -0.1225
    126  CA        46.6890  164.8540   62.3670 C.3   124  ASP124      0.1805
    127  C         46.4520  165.2000   60.9030 C.2   124  ASP124      0.2598
    128  O         47.4150  165.2160   60.1190 O.2   124  ASP124     -0.2718
    129  CB        47.5060  163.5640   62.4690 C.3   124  ASP124      0.1424
    130  CG        48.2140  163.4230   63.8040 C.2   124  ASP124      0.3668
    131  OD1       48.5320  164.4590   64.4240 O.co2 124  ASP124     -0.2456
    132  OD2       48.4540  162.2750   64.2330 O.co2 124  ASP124     -0.2456
    133  N         45.2100  165.4720   60.5080 N.am  125  GLY125     -0.1957
    134  CA        44.9140  165.8200   59.1340 C.3   125  GLY125      0.1869
    135  C         44.2520  167.1750   58.9860 C.2   125  GLY125      0.2309
    136  O         44.1980  167.7260   57.8820 O.2   125  GLY125     -0.2863
    137  N         45.1790  170.1120   59.8280 N.3   127  LYS127     -0.1231
    138  CA        46.0510  171.2100   59.4220 C.3   127  LYS127      0.1693
    139  C         46.0840  171.3620   57.9070 C.2   127  LYS127      0.2592
    140  O         46.0380  172.4830   57.3880 O.2   127  LYS127     -0.2718
    141  CB        47.4620  170.9890   59.9650 C.3   127  LYS127      0.0285
    142  CG        47.5820  171.1430   61.4640 C.3   127  LYS127      0.0035
    143  CD        49.0370  171.1320   61.8950 C.3   127  LYS127      0.0206
    144  CE        49.7980  172.3090   61.3020 C.3   127  LYS127      0.1093
    145  NZ        51.2680  172.0670   61.2680 N.3   127  LYS127     -0.1314
    146  N         46.1660  170.2460   57.1810 N.am  128  LEU128     -0.1966
    147  CA        46.1640  170.3080   55.7240 C.3   128  LEU128      0.1728
    148  C         44.8750  170.9350   55.2090 C.2   128  LEU128      0.2616
    149  O         44.9050  171.8730   54.4010 O.2   128  LEU128     -0.2715
    150  CB        46.3570  168.9030   55.1490 C.3   128  LEU128      0.0311
    151  CG        46.2550  168.7140   53.6330 C.3   128  LEU128      0.0022
    152  CD1       47.3180  169.5400   52.9120 C.3   128  LEU128      0.0001
    153  CD2       46.3770  167.2410   53.2690 C.3   128  LEU128      0.0001
    154  N         43.7280  170.4360   55.6840 N.am  129  TYR129     -0.1974
    155  CA        42.4370  170.9300   55.2100 C.3   129  TYR129      0.1639
    156  C         42.2240  172.3870   55.5930 C.2   129  TYR129      0.2290
    157  O         41.7280  173.1820   54.7850 O.2   129  TYR129     -0.2864
    158  CB        41.3130  170.0620   55.7680 C.3   129  TYR129      0.0560
    159  CG        41.4910  168.6110   55.4300 C.ar  129  TYR129     -0.0198
    160  CD1       41.7150  168.2140   54.1200 C.ar  129  TYR129     -0.0009
    161  CD2       41.4570  167.6360   56.4170 C.ar  129  TYR129     -0.0009
    162  CE1       41.8860  166.8880   53.7970 C.ar  129  TYR129      0.0417
    163  CE2       41.6320  166.3080   56.1030 C.ar  129  TYR129      0.0417
    164  CZ        41.8430  165.9410   54.7930 C.ar  129  TYR129      0.1957
    165  OH        42.0080  164.6200   54.4720 O.3   129  TYR129     -0.2866
    166  N         44.5470  174.4680   55.9120 N.3   131  SER131     -0.1217
    167  CA        45.5070  175.1930   55.0860 C.3   131  SER131      0.1889
    168  C         45.0250  175.4280   53.6600 C.2   131  SER131      0.2288
    169  O         45.7130  176.1320   52.9130 O.2   131  SER131     -0.2866
    170  CB        46.8420  174.4450   55.0390 C.3   131  SER131      0.2089
    171  OG        46.7970  173.4070   54.0690 O.3   131  SER131     -0.2183
@<TRIPOS>BOND
     1    49    48    1
     2    47    48   ar
     3    47    45   ar
     4    48    46   ar
     5    45    43   ar
     6    46    44   ar
     7    91    89    1
     8    90    92    1
     9    90    89    1
    10    44    43   ar
    11    43    42    1
    12    80    78   am
    13    89    86    1
    14    88    87    2
    15    86    87    1
    16    86    85    1
    17    84    83    2
    18    75    74    2
    19   100    99    2
    20    42    39    1
    21    87    93   am
    22    78    77    1
    23    78    79    2
    24    99    98    1
    25    85    83   am
    26    83    82    1
    27    77    76    1
    28    76    73    1
    29   104   103    1
    30   104   105    2
    31    74    73    1
    32    74    81   am
    33    27    26    2
    34    82    81    1
    35    39    38    1
    36    39    40    1
    37   103   102    1
    38    93    94    1
    39   107   105    1
    40    96    95    2
    41    41    40    2
    42    98    97    1
    43    98   101    1
    44    73    72    1
    45    29    28    1
    46   102   101    1
    47    95    97   am
    48    95    94    1
    49    36    35    1
    50    37    35    1
    51   105   106    1
    52    40    50   am
    53    32    35    1
    54    32    33    1
    55    32    31    1
    56    26    31   am
    57    26    25    1
    58    23    22    1
    59    33    34    2
    60    24    25    1
    61    24    18   am
    62    22    21    1
    63    72    63   am
    64    28    25    1
    65    28    30    1
    66    17    16    1
    67    17    18    1
    68    17    20    1
    69    50    51    1
    70    18    19    2
    71    20    21    1
    72    63    64    2
    73    63    62    1
    74    51    52    1
    75    51    54    1
    76    53    52    2
    77     1     2    1
    78    52    61   am
    79     2     3    1
    80    61    62    1
    81    55    54    1
    82    55    56    1
    83   152   151    1
    84   169   168    2
    85    62    65    1
    86    14    12   ar
    87    14    15   ar
    88   153   151    1
    89    12    10   ar
    90   151   150    1
    91   168   167    1
    92    57    56    1
    93    57    58    2
    94   162   160   ar
    95   162   164   ar
    96     3     5   am
    97     3     4    2
    98    65    66    1
    99    15    13   ar
   100   171   170    1
   101   160   159   ar
   102     5     6    1
   103    60    58    1
   104   149   148    2
   105   165   164    1
   106    58    59    1
   107    10     9    1
   108    10    11   ar
   109   157   156    2
   110   164   163   ar
   111     9     6    1
   112   170   167    1
   113    66    67    1
   114   167   166    1
   115   150   147    1
   116   148   154   am
   117   148   147    1
   118   155   156    1
   119   155   154    1
   120   155   158    1
   121    13    11   ar
   122     6     7    1
   123   159   158    1
   124   159   161   ar
   125   147   146    1
   126   163   161   ar
   127    67    68    1
   128     7     8    2
   129   108   109    1
   130    68    69    2
   131   146   139   am
   132   140   139    2
   133    69    70    1
   134    69    71    1
   135   111   110    2
   136   136   135    2
   137   139   138    1
   138   109   110    1
   139   109   112    1
   140   110   114   am
   141   113   112    1
   142   118   115    1
   143   135   134    1
   144   134   133    1
   145   114   115    1
   146   115   116    1
   147   138   137    1
   148   138   141    1
   149   141   142    1
   150   128   127    2
   151   124   123    1
   152   133   127   am
   153   116   119   am
   154   116   117    2
   155   119   120    1
   156   127   126    1
   157   145   144    1
   158   144   143    1
   159   142   143    1
   160   122   121    2
   161   123   120    1
   162   120   121    1
   163   126   129    1
   164   126   125    1
   165   129   130    1
   166   130   132   ar
   167   130   131   ar
