@<TRIPOS>MOLECULE
tmp/5us1C00.pdb
 194 190 0 0 0
SMALL
GASTEIGER

@<TRIPOS>ATOM
      1  N         35.4710  142.1210   30.9160 N.3    35  GLY35      -0.1210
      2  CA        34.3020  141.4630   31.4710 C.3    35  GLY35       0.1956
      3  C         34.5510  140.8650   32.8420 C.2    35  GLY35       0.2611
      4  O         33.6660  140.8730   33.7010 O.2    35  GLY35      -0.2717
      5  N         35.7500  140.3370   33.0700 N.am   36  PHE36      -0.1976
      6  CA        36.0970  139.7610   34.3590 C.3    36  PHE36       0.1639
      7  C         36.8400  140.7310   35.2620 C.2    36  PHE36       0.2290
      8  O         37.3330  140.3140   36.3120 O.2    36  PHE36      -0.2864
      9  CB        36.9280  138.4940   34.1760 C.3    36  PHE36       0.0560
     10  CG        36.1380  137.3320   33.6700 C.ar   36  PHE36      -0.0200
     11  CD1       35.9780  137.1370   32.3120 C.ar   36  PHE36      -0.0042
     12  CD2       35.5420  136.4400   34.5480 C.ar   36  PHE36      -0.0042
     13  CE1       35.2460  136.0740   31.8340 C.ar   36  PHE36      -0.0003
     14  CE2       34.8070  135.3700   34.0750 C.ar   36  PHE36      -0.0003
     15  CZ        34.6590  135.1880   32.7160 C.ar   36  PHE36      -0.0000
     16  N         32.0040  124.0110   29.7200 N.3    85  VAL85      -0.1231
     17  CA        31.6900  125.3980   29.3860 C.3    85  VAL85       0.1692
     18  C         32.5330  126.3260   30.2480 C.2    85  VAL85       0.2592
     19  O         32.5970  126.1620   31.4730 O.2    85  VAL85      -0.2718
     20  CB        30.1940  125.6760   29.5930 C.3    85  VAL85       0.0266
     21  CG1       29.8900  127.1490   29.4340 C.3    85  VAL85       0.0020
     22  CG2       29.3660  124.8430   28.6390 C.3    85  VAL85       0.0020
     23  N         33.1730  127.3100   29.6190 N.am   86  GLU86      -0.1966
     24  CA        34.0700  128.1890   30.3550 C.3    86  GLU86       0.1733
     25  C         34.0730  129.5840   29.7470 C.2    86  GLU86       0.2616
     26  O         33.7490  129.7790   28.5720 O.2    86  GLU86      -0.2715
     27  CB        35.4970  127.6320   30.3810 C.3    86  GLU86       0.0429
     28  CG        35.7110  126.5260   31.3990 C.3    86  GLU86       0.1163
     29  CD        36.6540  126.9340   32.5050 C.2    86  GLU86       0.3649
     30  OE1       36.6210  126.3060   33.5880 O.co2  86  GLU86      -0.2457
     31  OE2       37.4290  127.8890   32.2900 O.co2  86  GLU86      -0.2457
     32  N         34.4500  130.5540   30.5830 N.am   87  ALA87      -0.1963
     33  CA        34.7620  131.9190   30.1580 C.3    87  ALA87       0.1728
     34  C         33.5580  132.6090   29.5200 C.2    87  ALA87       0.2616
     35  O         33.6620  133.2430   28.4650 O.2    87  ALA87      -0.2715
     36  CB        35.9660  131.9330   29.2150 C.3    87  ALA87       0.0334
     37  N         32.4070  132.4920   30.1770 N.am   88  MET88      -0.1963
     38  CA        31.2100  133.1820   29.7240 C.3    88  MET88       0.1736
     39  C         31.2890  134.6490   30.1260 C.2    88  MET88       0.2616
     40  O         31.5210  134.9660   31.2930 O.2    88  MET88      -0.2715
     41  CB        29.9640  132.5310   30.3180 C.3    88  MET88       0.0427
     42  CG        28.8090  133.4860   30.5260 C.3    88  MET88       0.0599
     43  SD        27.8630  133.7200   29.0090 S.3    88  MET88      -0.1393
     44  CE        27.0790  132.1180   28.8760 C.3    88  MET88       0.0692
     45  N         31.1100  135.5480   29.1640 N.am   89  VAL89      -0.1963
     46  CA        31.2500  136.9730   29.4460 C.3    89  VAL89       0.1727
     47  C         30.4390  137.7530   28.4210 C.2    89  VAL89       0.2616
     48  O         30.4290  137.4250   27.2290 O.2    89  VAL89      -0.2715
     49  CB        32.7390  137.4000   29.4500 C.3    89  VAL89       0.0290
     50  CG1       33.4330  136.9380   28.1780 C.3    89  VAL89       0.0023
     51  CG2       32.8660  138.8940   29.6040 C.3    89  VAL89       0.0023
     52  N         29.7440  138.7840   28.9010 N.am   90  VAL90      -0.1977
     53  CA        29.0500  139.7540   28.0630 C.3    90  VAL90       0.1596
     54  C         29.5760  141.1350   28.4140 C.2    90  VAL90       0.2287
     55  O         29.6410  141.4930   29.5980 O.2    90  VAL90      -0.2864
     56  CB        27.5260  139.6890   28.2610 C.3    90  VAL90       0.0276
     57  CG1       26.8310  140.6830   27.3380 C.3    90  VAL90       0.0022
     58  CG2       27.0150  138.2730   28.0300 C.3    90  VAL90       0.0022
     59  N         26.1240  145.6510   27.3510 N.3    94  TYR94      -0.1227
     60  CA        25.1690  144.8080   26.6440 C.3    94  TYR94       0.1736
     61  C         24.5260  143.7560   27.5420 C.2    94  TYR94       0.2595
     62  O         23.9180  142.8070   27.0370 O.2    94  TYR94      -0.2718
     63  CB        25.8450  144.1280   25.4570 C.3    94  TYR94       0.0548
     64  CG        26.0790  145.0430   24.2850 C.ar   94  TYR94      -0.0200
     65  CD1       27.1240  145.9530   24.2940 C.ar   94  TYR94      -0.0009
     66  CD2       25.2550  144.9950   23.1670 C.ar   94  TYR94      -0.0009
     67  CE1       27.3440  146.7940   23.2230 C.ar   94  TYR94       0.0417
     68  CE2       25.4680  145.8300   22.0900 C.ar   94  TYR94       0.0417
     69  CZ        26.5130  146.7270   22.1240 C.ar   94  TYR94       0.1957
     70  OH        26.7300  147.5580   21.0540 O.3    94  TYR94      -0.2866
     71  N         24.6360  143.8970   28.8550 N.am   95  ARG95      -0.1966
     72  CA        24.1450  142.8440   29.7270 C.3    95  ARG95       0.1729
     73  C         22.6560  143.0090   30.0050 C.2    95  ARG95       0.2616
     74  O         22.0790  144.0920   29.8570 O.2    95  ARG95      -0.2715
     75  CB        24.9310  142.8140   31.0340 C.3    95  ARG95       0.0348
     76  CG        26.4210  142.6990   30.8240 C.3    95  ARG95       0.0492
     77  CD        27.1610  142.7190   32.1310 C.3    95  ARG95       0.2205
     78  NE        28.4820  142.1110   32.0080 N.pl3  95  ARG95      -0.0865
     79  CZ        29.4910  142.3450   32.8420 C.cat  95  ARG95       0.5346
     80  NH1       29.3350  143.1860   33.8580 N.pl3  95  ARG95       0.1354
     81  NH2       30.6590  141.7430   32.6580 N.pl3  95  ARG95       0.1354
     82  N         22.0420  141.8950   30.4140 N.am   96  ARG96      -0.1963
     83  CA        20.6090  141.7610   30.6850 C.3    96  ARG96       0.1729
     84  C         19.7550  141.9540   29.4340 C.2    96  ARG96       0.2616
     85  O         18.5670  142.2850   29.5290 O.2    96  ARG96      -0.2715
     86  CB        20.1550  142.7120   31.7970 C.3    96  ARG96       0.0348
     87  CG        21.0830  142.6930   32.9860 C.3    96  ARG96       0.0492
     88  CD        20.3800  142.1850   34.1930 C.3    96  ARG96       0.2205
     89  NE        21.3110  141.7420   35.2290 N.pl3  96  ARG96      -0.0865
     90  CZ        21.6040  140.4730   35.4880 C.cat  96  ARG96       0.5346
     91  NH1       21.0720  139.5220   34.7750 N.pl3  96  ARG96       0.1354
     92  NH2       22.4490  140.1470   36.4470 N.pl3  96  ARG96       0.1354
     93  N         20.3390  141.7320   28.2570 N.am   97  GLN97      -0.1963
     94  CA        19.6100  141.7910   26.9980 C.3    97  GLN97       0.1733
     95  C         19.4540  140.4150   26.3560 C.2    97  GLN97       0.2617
     96  O         19.2050  140.3220   25.1500 O.2    97  GLN97      -0.2715
     97  CB        20.3030  142.7550   26.0360 C.3    97  GLN97       0.0408
     98  CG        20.2610  144.1990   26.4950 C.3    97  GLN97       0.0908
     99  CD        21.3060  145.0550   25.8050 C.2    97  GLN97       0.2608
    100  OE1       21.5130  144.9520   24.5920 O.2    97  GLN97      -0.2717
    101  NE2       21.9800  145.9000   26.5780 N.am   97  GLN97      -0.0878
    102  N         19.6050  139.3440   27.1350 N.am   98  GLY98      -0.1940
    103  CA        19.3870  138.0020   26.6410 C.3    98  GLY98       0.2014
    104  C         20.5470  137.3960   25.8890 C.2    98  GLY98       0.2639
    105  O         20.4080  136.2750   25.3720 O.2    98  GLY98      -0.2714
    106  N         21.6850  138.0900   25.8100 N.am   99  ILE99      -0.1963
    107  CA        22.8160  137.5650   25.0490 C.3    99  ILE99       0.1727
    108  C         23.3730  136.3170   25.7150 C.2    99  ILE99       0.2617
    109  O         23.6870  135.3260   25.0450 O.2    99  ILE99      -0.2715
    110  CB        23.9020  138.6420   24.8790 C.3    99  ILE99       0.0290
    111  CG1       23.3870  139.7930   24.0140 C.3    99  ILE99       0.0022
    112  CG2       25.1460  138.0460   24.2600 C.3    99  ILE99       0.0023
    113  CD1       24.3140  141.0070   24.0050 C.3    99  ILE99       0.0001
    114  N         23.5130  136.3450   27.0400 N.am  100  GLY100     -0.1940
    115  CA        24.0150  135.1760   27.7430 C.3   100  GLY100      0.2014
    116  C         23.1490  133.9550   27.5150 C.2   100  GLY100      0.2638
    117  O         23.6570  132.8440   27.3300 O.2   100  GLY100     -0.2714
    118  N         21.8280  134.1500   27.5030 N.am  101  ARG101     -0.1977
    119  CA        20.9110  133.0380   27.2750 C.3   101  ARG101      0.1597
    120  C         21.1400  132.4150   25.9010 C.2   101  ARG101      0.2287
    121  O         21.2360  131.1860   25.7680 O.2   101  ARG101     -0.2864
    122  CB        19.4620  133.5110   27.4200 C.3   101  ARG101      0.0334
    123  CG        18.4770  132.6210   26.6940 C.3   101  ARG101      0.0492
    124  CD        17.0440  132.8530   27.1000 C.3   101  ARG101      0.2205
    125  NE        16.2420  131.6810   26.7740 N.pl3 101  ARG101     -0.0865
    126  CZ        15.9500  130.7130   27.6390 C.cat 101  ARG101      0.5346
    127  NH1       16.3760  130.7920   28.8930 N.pl3 101  ARG101      0.1354
    128  NH2       15.2240  129.6710   27.2550 N.pl3 101  ARG101      0.1354
    129  N         29.9630  122.4510   33.8200 N.3   120  LEU120     -0.1231
    130  CA        30.5060  123.7680   34.1140 C.3   120  LEU120      0.1693
    131  C         30.4930  123.9420   35.6230 C.2   120  LEU120      0.2593
    132  O         29.9190  123.1320   36.3530 O.2   120  LEU120     -0.2718
    133  CB        29.6990  124.8760   33.4280 C.3   120  LEU120      0.0284
    134  CG        28.2470  125.1010   33.8770 C.3   120  LEU120      0.0019
    135  CD1       28.1430  126.1020   35.0270 C.3   120  LEU120      0.0001
    136  CD2       27.4000  125.5850   32.7050 C.3   120  LEU120      0.0001
    137  N         31.1260  125.0180   36.0830 N.am  121  SER121     -0.1938
    138  CA        31.0870  125.4060   37.4870 C.3   121  SER121      0.2055
    139  C         30.6680  126.8650   37.5780 C.2   121  SER121      0.2642
    140  O         31.2230  127.7170   36.8750 O.2   121  SER121     -0.2714
    141  CB        32.4450  125.1940   38.1700 C.3   121  SER121      0.2130
    142  OG        33.2720  126.3350   38.0220 O.3   121  SER121     -0.2179
    143  N         29.7010  127.1520   38.4460 N.am  122  ALA122     -0.1977
    144  CA        29.1730  128.4990   38.5930 C.3   122  ALA122      0.1597
    145  C         28.8990  128.7920   40.0600 C.2   122  ALA122      0.2287
    146  O         28.6270  127.8860   40.8520 O.2   122  ALA122     -0.2864
    147  CB        27.8860  128.6880   37.7810 C.3   122  ALA122      0.0319
    148  N         24.8620  132.5130   42.6980 N.3   125  ASP125     -0.1225
    149  CA        24.1270  133.5320   41.9570 C.3   125  ASP125      0.1805
    150  C         24.1370  133.2350   40.4630 C.2   125  ASP125      0.2598
    151  O         23.0950  133.2920   39.8010 O.2   125  ASP125     -0.2718
    152  CB        24.7160  134.9140   42.2380 C.3   125  ASP125      0.1424
    153  CG        24.0070  135.6290   43.3690 C.2   125  ASP125      0.3668
    154  OD1       23.0930  135.0290   43.9760 O.co2 125  ASP125     -0.2456
    155  OD2       24.3610  136.7930   43.6520 O.co2 125  ASP125     -0.2456
    156  N         25.3050  132.9040   39.9160 N.am  126  GLY126     -0.1957
    157  CA        25.4260  132.6490   38.4910 C.3   126  GLY126      0.1869
    158  C         24.7740  131.3660   38.0140 C.2   126  GLY126      0.2309
    159  O         24.7040  131.1440   36.7990 O.2   126  GLY126     -0.2863
    160  N         21.6890  130.5540   38.0290 N.3   128  LYS128     -0.1231
    161  CA        20.3190  130.6690   37.5470 C.3   128  LYS128      0.1693
    162  C         20.2650  130.7630   36.0270 C.2   128  LYS128      0.2592
    163  O         19.3600  130.1940   35.4070 O.2   128  LYS128     -0.2718
    164  CB        19.6250  131.8620   38.2130 C.3   128  LYS128      0.0285
    165  CG        19.2160  131.5790   39.6500 C.3   128  LYS128      0.0035
    166  CD        20.1760  132.2330   40.6300 C.3   128  LYS128      0.0206
    167  CE        20.1090  131.5670   42.0000 C.3   128  LYS128      0.1093
    168  NZ        20.5420  130.1370   41.9450 N.3   128  LYS128     -0.1314
    169  N         21.2180  131.4690   35.4100 N.am  129  LEU129     -0.1966
    170  CA        21.2430  131.5320   33.9510 C.3   129  LEU129      0.1728
    171  C         21.3180  130.1340   33.3460 C.2   129  LEU129      0.2616
    172  O         20.5720  129.8090   32.4140 O.2   129  LEU129     -0.2715
    173  CB        22.4140  132.3870   33.4730 C.3   129  LEU129      0.0311
    174  CG        22.6050  132.4220   31.9480 C.3   129  LEU129      0.0022
    175  CD1       21.3950  133.0380   31.2590 C.3   129  LEU129      0.0001
    176  CD2       23.8710  133.1710   31.5760 C.3   129  LEU129      0.0001
    177  N         22.1980  129.2820   33.8820 N.am  130  TYR130     -0.1974
    178  CA        22.3290  127.9290   33.3470 C.3   130  TYR130      0.1639
    179  C         21.1310  127.0650   33.7040 C.2   130  TYR130      0.2290
    180  O         20.7290  126.2050   32.9110 O.2   130  TYR130     -0.2864
    181  CB        23.6340  127.3070   33.8410 C.3   130  TYR130      0.0560
    182  CG        24.7670  128.2620   33.6330 C.ar  130  TYR130     -0.0198
    183  CD1       25.1570  128.6170   32.3540 C.ar  130  TYR130     -0.0009
    184  CD2       25.4020  128.8630   34.7070 C.ar  130  TYR130     -0.0009
    185  CE1       26.1750  129.5200   32.1460 C.ar  130  TYR130      0.0417
    186  CE2       26.4220  129.7690   34.5080 C.ar  130  TYR130      0.0417
    187  CZ        26.8010  130.0920   33.2240 C.ar  130  TYR130      0.1957
    188  OH        27.8090  130.9970   33.0100 O.3   130  TYR130     -0.2866
    189  N         18.1720  128.2480   33.8140 N.3   132  SER132     -0.1217
    190  CA        17.1420  128.7320   32.9040 C.3   132  SER132      0.1889
    191  C         17.3010  128.1880   31.4900 C.2   132  SER132      0.2288
    192  O         16.3980  128.3800   30.6670 O.2   132  SER132     -0.2866
    193  CB        17.1390  130.2670   32.8800 C.3   132  SER132      0.2089
    194  OG        17.9140  130.7710   31.8010 O.3   132  SER132     -0.2183
@<TRIPOS>BOND
     1    70    69    1
     2    68    69   ar
     3    68    66   ar
     4    69    67   ar
     5    66    64   ar
     6    67    65   ar
     7   113   111    1
     8   111   110    1
     9   112   110    1
    10    64    65   ar
    11    64    63    1
    12   100    99    2
    13   110   107    1
    14   109   108    2
    15   107   108    1
    16   107   106    1
    17    96    95    2
    18   105   104    2
    19    63    60    1
    20   108   114   am
    21   121   120    2
    22    99    98    1
    23    99   101   am
    24   106   104   am
    25   104   103    1
    26   120   119    1
    27    97    98    1
    28    97    94    1
    29    95    94    1
    30    95   102   am
    31   103   102    1
    32    60    59    1
    33    60    61    1
    34   123   124    1
    35   123   122    1
    36   125   124    1
    37   125   126    2
    38    94    93    1
    39    62    61    2
    40   114   115    1
    41    48    47    2
    42   128   126    1
    43   119   122    1
    44   119   118    1
    45   117   116    2
    46    57    56    1
    47   118   116   am
    48   116   115    1
    49    61    71   am
    50   126   127    1
    51    58    56    1
    52    53    56    1
    53    53    54    1
    54    53    52    1
    55    50    49    1
    56    93    84   am
    57    54    55    2
    58    47    52   am
    59    47    46    1
    60    35    34    2
    61    26    25    2
    62    22    20    1
    63    71    72    1
    64    44    43    1
    65    43    42    1
    66    45    46    1
    67    45    39   am
    68    36    33    1
    69    17    20    1
    70    17    16    1
    71    17    18    1
    72    84    85    2
    73    84    83    1
    74    21    20    1
    75    46    49    1
    76    49    51    1
    77    34    33    1
    78    34    37   am
    79    23    18   am
    80    23    24    1
    81    38    39    1
    82    38    37    1
    83    38    41    1
    84    72    73    1
    85    72    75    1
    86    25    24    1
    87    25    32   am
    88    74    73    2
    89    73    82   am
    90    39    40    2
    91    33    32    1
    92    18    19    2
    93    41    42    1
    94    24    27    1
    95    27    28    1
    96    82    83    1
    97   192   191    2
    98    83    86    1
    99    76    75    1
   100    76    77    1
   101     1     2    1
   102   175   174    1
   103    28    29    1
   104     2     3    1
   105   191   190    1
   106   176   174    1
   107    86    87    1
   108   194   193    1
   109    13    11   ar
   110    13    15   ar
   111   174   173    1
   112    78    77    1
   113    78    79    2
   114   185   183   ar
   115   185   187   ar
   116    31    29   ar
   117    11    10   ar
   118   183   182   ar
   119   172   171    2
   120    29    30   ar
   121    81    79    1
   122   136   134    1
   123    15    14   ar
   124    79    80    1
   125     3     5   am
   126     3     4    2
   127   193   190    1
   128   190   189    1
   129   180   179    2
   130    87    88    1
   131   188   187    1
   132     5     6    1
   133   187   186   ar
   134   171   177   am
   135   171   170    1
   136   178   179    1
   137   178   181    1
   138   178   177    1
   139   133   134    1
   140   133   130    1
   141   173   170    1
   142   182   181    1
   143   182   184   ar
   144    10     9    1
   145    10    12   ar
   146   129   130    1
   147   134   135    1
   148   170   169    1
   149    14    12   ar
   150   130   131    1
   151     9     6    1
   152    88    89    1
   153     6     7    1
   154   186   184   ar
   155    91    90    1
   156    89    90    2
   157     7     8    2
   158   163   162    2
   159   169   162   am
   160    90    92    1
   161   131   137   am
   162   131   132    2
   163   162   161    1
   164   137   138    1
   165   159   158    2
   166   140   139    2
   167   138   139    1
   168   138   141    1
   169   161   160    1
   170   161   164    1
   171   139   143   am
   172   147   144    1
   173   158   157    1
   174   142   141    1
   175   164   165    1
   176   143   144    1
   177   157   156    1
   178   144   145    1
   179   165   166    1
   180   151   150    2
   181   156   150   am
   182   145   146    2
   183   150   149    1
   184   166   167    1
   185   168   167    1
   186   149   152    1
   187   149   148    1
   188   152   153    1
   189   153   155   ar
   190   153   154   ar
