@<TRIPOS>MOLECULE
tmp/5us1A00.pdb
 186 180 0 0 0
SMALL
GASTEIGER

@<TRIPOS>ATOM
      1  N         80.9420  194.5550   20.9450 N.3    40  PHE40      -0.1241
      2  CA        80.1720  194.1800   19.7630 C.3    40  PHE40       0.1605
      3  C         80.5550  194.9840   18.5260 C.2    40  PHE40       0.2264
      4  O         79.9720  194.7670   17.4570 O.2    40  PHE40      -0.2867
      5  CB        78.6710  194.3320   20.0330 C.3    40  PHE40       0.0534
      6  CG        78.0880  193.2230   20.8610 C.ar   40  PHE40      -0.0203
      7  CD1       77.4300  192.1610   20.2610 C.ar   40  PHE40      -0.0042
      8  CD2       78.1970  193.2380   22.2420 C.ar   40  PHE40      -0.0042
      9  CE1       76.8930  191.1380   21.0280 C.ar   40  PHE40      -0.0003
     10  CE2       77.6590  192.2210   23.0080 C.ar   40  PHE40      -0.0003
     11  CZ        77.0080  191.1730   22.4000 C.ar   40  PHE40      -0.0000
     12  N         77.6800  197.2000   16.8800 N.3    43  ASP43      -0.1225
     13  CA        76.4310  196.5380   16.5260 C.3    43  ASP43       0.1805
     14  C         75.3820  196.6140   17.6270 C.2    43  ASP43       0.2597
     15  O         74.2070  196.3430   17.3580 O.2    43  ASP43      -0.2718
     16  CB        76.7000  195.0730   16.1780 C.3    43  ASP43       0.1424
     17  CG        75.6680  194.5030   15.2240 C.2    43  ASP43       0.3668
     18  OD1       74.8040  195.2730   14.7550 O.co2  43  ASP43      -0.2456
     19  OD2       75.7210  193.2850   14.9430 O.co2  43  ASP43      -0.2456
     20  N         75.7660  196.9810   18.8450 N.am   44  PHE44      -0.1976
     21  CA        74.8480  196.9640   19.9770 C.3    44  PHE44       0.1639
     22  C         73.9210  198.1760   19.9220 C.2    44  PHE44       0.2290
     23  O         74.3760  199.3210   20.0250 O.2    44  PHE44      -0.2864
     24  CB        75.6350  196.9370   21.2840 C.3    44  PHE44       0.0560
     25  CG        74.8520  196.4350   22.4520 C.ar   44  PHE44      -0.0200
     26  CD1       74.6010  195.0810   22.6000 C.ar   44  PHE44      -0.0042
     27  CD2       74.3690  197.3140   23.4060 C.ar   44  PHE44      -0.0042
     28  CE1       73.8810  194.6110   23.6790 C.ar   44  PHE44      -0.0003
     29  CE2       73.6480  196.8510   24.4860 C.ar   44  PHE44      -0.0003
     30  CZ        73.4020  195.4980   24.6250 C.ar   44  PHE44      -0.0000
     31  N         68.7890  196.8910   22.4430 N.3    48  ASP48      -0.1239
     32  CA        69.5070  195.7750   23.0490 C.3    48  ASP48       0.1674
     33  C         70.0020  196.1200   24.4440 C.2    48  ASP48       0.2266
     34  O         70.1110  195.2290   25.2950 O.2    48  ASP48      -0.2867
     35  CB        70.6770  195.3530   22.1670 C.3    48  ASP48       0.1410
     36  CG        70.2610  195.1020   20.7420 C.2    48  ASP48       0.3668
     37  OD1       69.0770  194.7740   20.5110 O.co2  48  ASP48      -0.2456
     38  OD2       71.1180  195.2520   19.8520 O.co2  48  ASP48      -0.2456
     39  N         67.0370  195.6650   26.6120 N.3    51  HIS51      -0.1241
     40  CA        66.8460  194.2400   26.8540 C.3    51  HIS51       0.1621
     41  C         67.8190  193.6970   27.8880 C.2    51  HIS51       0.2264
     42  O         67.5730  192.6290   28.4540 O.2    51  HIS51      -0.2867
     43  CB        67.0020  193.4530   25.5540 C.3    51  HIS51       0.0745
     44  CG        66.0320  193.8490   24.4870 C.ar   51  HIS51       0.0817
     45  ND1       66.2560  193.5930   23.1520 N.ar   51  HIS51      -0.2268
     46  CD2       64.8350  194.4790   24.5550 C.ar   51  HIS51       0.1154
     47  CE1       65.2390  194.0470   22.4430 C.ar   51  HIS51       0.1986
     48  NE2       64.3630  194.5910   23.2700 N.ar   51  HIS51      -0.2212
     49  N         68.9520  184.8760   27.9630 N.3    89  VAL89      -0.1231
     50  CA        70.3370  185.3010   28.1080 C.3    89  VAL89       0.1692
     51  C         70.6340  186.3960   27.0940 C.2    89  VAL89       0.2592
     52  O         70.4250  186.2140   25.8880 O.2    89  VAL89      -0.2718
     53  CB        71.2840  184.1080   27.9320 C.3    89  VAL89       0.0266
     54  CG1       72.7230  184.5400   28.1230 C.3    89  VAL89       0.0020
     55  CG2       70.9140  183.0150   28.9120 C.3    89  VAL89       0.0020
     56  N         71.1320  187.5320   27.5790 N.am   90  GLU90      -0.1966
     57  CA        71.3330  188.7070   26.7440 C.3    90  GLU90       0.1733
     58  C         72.7320  189.2690   26.9340 C.2    90  GLU90       0.2616
     59  O         73.3000  189.2110   28.0280 O.2    90  GLU90      -0.2715
     60  CB        70.3110  189.8190   27.0660 C.3    90  GLU90       0.0429
     61  CG        68.8970  189.5690   26.5620 C.3    90  GLU90       0.1163
     62  CD        68.7730  189.7420   25.0600 C.2    90  GLU90       0.3649
     63  OE1       69.8020  190.0010   24.3920 O.co2  90  GLU90      -0.2457
     64  OE2       67.6440  189.6180   24.5400 O.co2  90  GLU90      -0.2457
     65  N         73.2760  189.8130   25.8430 N.am   91  ALA91      -0.1963
     66  CA        74.4350  190.7070   25.8840 C.3    91  ALA91       0.1728
     67  C         75.6650  190.0350   26.5000 C.2    91  ALA91       0.2616
     68  O         76.3460  190.5960   27.3630 O.2    91  ALA91      -0.2715
     69  CB        74.0850  192.0020   26.6220 C.3    91  ALA91       0.0334
     70  N         75.9500  188.8180   26.0490 N.am   92  MET92      -0.1977
     71  CA        77.1820  188.1500   26.4430 C.3    92  MET92       0.1605
     72  C         78.3580  188.7770   25.7070 C.2    92  MET92       0.2287
     73  O         78.3510  188.8660   24.4750 O.2    92  MET92      -0.2864
     74  CB        77.0940  186.6570   26.1330 C.3    92  MET92       0.0413
     75  CG        78.4270  186.0100   25.7980 C.3    92  MET92       0.0598
     76  SD        79.4650  185.8300   27.2510 S.3    92  MET92      -0.1393
     77  CE        78.4760  184.6930   28.2260 C.3    92  MET92       0.0692
     78  N         68.4680  181.6890   24.3990 N.3   124  LEU124     -0.1231
     79  CA        69.3360  182.7460   23.9070 C.3   124  LEU124      0.1693
     80  C         69.2810  182.7430   22.3860 C.2   124  LEU124      0.2593
     81  O         68.7670  181.8110   21.7600 O.2   124  LEU124     -0.2718
     82  CB        70.7830  182.5810   24.4140 C.3   124  LEU124      0.0284
     83  CG        71.5700  181.3060   24.0750 C.3   124  LEU124      0.0019
     84  CD1       72.2680  181.4100   22.7280 C.3   124  LEU124      0.0001
     85  CD2       72.5850  181.0220   25.1580 C.3   124  LEU124      0.0001
     86  N         69.8170  183.8060   21.7980 N.am  125  SER125     -0.1938
     87  CA        69.9980  183.9140   20.3570 C.3   125  SER125      0.2055
     88  C         71.4820  184.1220   20.1030 C.2   125  SER125      0.2643
     89  O         72.0460  185.1380   20.5230 O.2   125  SER125     -0.2714
     90  CB        69.1760  185.0670   19.7760 C.3   125  SER125      0.2130
     91  OG        69.3530  185.1630   18.3670 O.3   125  SER125     -0.2179
     92  N         72.1110  183.1650   19.4270 N.am  126  ALA126     -0.1963
     93  CA        73.5580  183.1390   19.2870 C.3   126  ALA126      0.1728
     94  C         73.9810  183.4200   17.8540 C.2   126  ALA126      0.2617
     95  O         73.2300  183.1790   16.9040 O.2   126  ALA126     -0.2715
     96  CB        74.1310  181.7850   19.7170 C.3   126  ALA126      0.0334
     97  N         75.2030  183.9280   17.7160 N.am  127  SER127     -0.1936
     98  CA        75.8550  183.9920   16.4200 C.3   127  SER127      0.2055
     99  C         76.4770  182.6450   16.0740 C.2   127  SER127      0.2643
    100  O         76.7880  181.8310   16.9490 O.2   127  SER127     -0.2714
    101  CB        76.9290  185.0750   16.4020 C.3   127  SER127      0.2130
    102  OG        76.4350  186.2620   16.9710 O.3   127  SER127     -0.2179
    103  N         76.6590  182.4140   14.7710 N.am  128  ASP128     -0.1971
    104  CA        77.3100  181.1880   14.3250 C.3   128  ASP128      0.1709
    105  C         78.7100  181.0640   14.9090 C.2   128  ASP128      0.2293
    106  O         79.1820  179.9500   15.1640 O.2   128  ASP128     -0.2864
    107  CB        77.3560  181.1440   12.7990 C.3   128  ASP128      0.1436
    108  CG        76.0540  180.6610   12.1950 C.2   128  ASP128      0.3671
    109  OD1       75.3850  179.8150   12.8250 O.co2 128  ASP128     -0.2456
    110  OD2       75.6990  181.1250   11.0920 O.co2 128  ASP128     -0.2456
    111  N         78.3160  178.1920   24.0250 N.3   134  TYR134     -0.1241
    112  CA        77.1260  177.7060   24.7150 C.3   134  TYR134      0.1605
    113  C         76.9700  176.1970   24.5830 C.2   134  TYR134      0.2264
    114  O         76.4390  175.5510   25.4940 O.2   134  TYR134     -0.2867
    115  CB        75.8810  178.4090   24.1870 C.3   134  TYR134      0.0534
    116  CG        76.0230  179.9060   24.1360 C.ar  134  TYR134     -0.0201
    117  CD1       76.2200  180.6430   25.2980 C.ar  134  TYR134     -0.0009
    118  CD2       75.9660  180.5850   22.9270 C.ar  134  TYR134     -0.0009
    119  CE1       76.3460  182.0190   25.2560 C.ar  134  TYR134      0.0417
    120  CE2       76.0930  181.9590   22.8760 C.ar  134  TYR134      0.0417
    121  CZ        76.2840  182.6700   24.0410 C.ar  134  TYR134      0.1957
    122  OH        76.4150  184.0400   23.9870 O.3   134  TYR134     -0.2866
    123  N         63.5740  183.8550   10.4420 N.3   159  GLU159     -0.1231
    124  CA        64.9910  184.1960   10.4040 C.3   159  GLU159      0.1699
    125  C         65.7320  183.7700   11.6650 C.2   159  GLU159      0.2592
    126  O         66.9550  183.6090   11.6220 O.2   159  GLU159     -0.2718
    127  CB        65.1640  185.6990   10.1810 C.3   159  GLU159      0.0402
    128  CG        64.7280  186.1700    8.8040 C.3   159  GLU159      0.1161
    129  CD        65.5440  185.5460    7.6860 C.2   159  GLU159      0.3649
    130  OE1       66.6700  186.0250    7.4310 O.co2 159  GLU159     -0.2457
    131  OE2       65.0590  184.5760    7.0620 O.co2 159  GLU159     -0.2457
    132  N         65.0310  183.5750   12.7780 N.am  160  GLU160     -0.1966
    133  CA        65.6930  183.1980   14.0200 C.3   160  GLU160      0.1733
    134  C         65.7850  181.6930   14.2270 C.2   160  GLU160      0.2616
    135  O         66.5850  181.2460   15.0590 O.2   160  GLU160     -0.2715
    136  CB        64.9690  183.8180   15.2180 C.3   160  GLU160      0.0429
    137  CG        65.0160  185.3320   15.2550 C.3   160  GLU160      0.1163
    138  CD        66.4210  185.8820   15.4370 C.2   160  GLU160      0.3649
    139  OE1       67.3250  185.1190   15.8570 O.co2 160  GLU160     -0.2457
    140  OE2       66.6130  187.0870   15.1590 O.co2 160  GLU160     -0.2457
    141  N         64.9830  180.9080   13.5070 N.am  161  GLU161     -0.1977
    142  CA        64.9840  179.4630   13.6930 C.3   161  GLU161      0.1602
    143  C         66.3370  178.8710   13.3150 C.2   161  GLU161      0.2287
    144  O         66.9320  179.2250   12.2960 O.2   161  GLU161     -0.2864
    145  CB        63.8690  178.8240   12.8680 C.3   161  GLU161      0.0415
    146  CG        62.4870  179.3270   13.2470 C.3   161  GLU161      0.1163
    147  CD        61.3700  178.5700   12.5620 C.2   161  GLU161      0.3649
    148  OE1       61.6460  177.8130   11.6020 O.co2 161  GLU161     -0.2457
    149  OE2       60.2080  178.7350   12.9880 O.co2 161  GLU161     -0.2457
    150  N         68.8920  179.5240   15.1650 N.3   163  GLY163     -0.1225
    151  CA        69.8260  180.3930   15.8540 C.3   163  GLY163      0.1811
    152  C         69.5190  180.5480   17.3300 C.2   163  GLY163      0.2280
    153  O         70.3170  181.1180   18.0790 O.2   163  GLY163     -0.2866
    154  N         58.4700  192.8250   23.0810 N.3   184  ARG184     -0.1245
    155  CA        59.4540  193.7910   23.5520 C.3   184  ARG184      0.1563
    156  C         59.8230  194.7150   22.3980 C.2   184  ARG184      0.2260
    157  O         59.4180  194.5020   21.2550 O.2   184  ARG184     -0.2867
    158  CB        60.6870  193.0910   24.1460 C.3   184  ARG184      0.0307
    159  CG        61.5090  192.2480   23.1770 C.3   184  ARG184      0.0489
    160  CD        62.6290  191.5190   23.9270 C.3   184  ARG184      0.2205
    161  NE        63.6620  190.9890   23.0370 N.pl3 184  ARG184     -0.0865
    162  CZ        64.8060  190.4600   23.4610 C.cat 184  ARG184      0.5346
    163  NH1       65.0600  190.3980   24.7580 N.pl3 184  ARG184      0.1354
    164  NH2       65.7000  190.0090   22.5940 N.pl3 184  ARG184      0.1354
    165  N         64.5030  193.7750   18.4550 N.3   187  ASP187     -0.1239
    166  CA        64.4030  192.3840   18.0470 C.3   187  ASP187      0.1674
    167  C         63.7080  191.5830   19.1380 C.2   187  ASP187      0.2266
    168  O         64.0300  191.7200   20.3220 O.2   187  ASP187     -0.2867
    169  CB        65.7900  191.8120   17.7670 C.3   187  ASP187      0.1410
    170  CG        66.4080  192.3720   16.5050 C.2   187  ASP187      0.3668
    171  OD1       65.6750  192.9800   15.6900 O.co2 187  ASP187     -0.2456
    172  OD2       67.6310  192.1950   16.3290 O.co2 187  ASP187     -0.2456
    173  N         63.7740  188.2910   19.4980 N.3   189  TRP189     -0.1241
    174  CA        64.6760  187.2440   19.9740 C.3   189  TRP189      0.1605
    175  C         66.0960  187.7770   20.1590 C.2   189  TRP189      0.2264
    176  O         66.9390  187.1230   20.7820 O.2   189  TRP189     -0.2867
    177  CB        64.6820  186.0600   19.0120 C.3   189  TRP189      0.0550
    178  CG        63.3520  185.3920   18.9130 C.ar  189  TRP189      0.0003
    179  CD1       62.4000  185.6000   17.9650 C.ar  189  TRP189      0.0946
    180  CD2       62.8190  184.4160   19.8090 C.ar  189  TRP189      0.0152
    181  NE1       61.3020  184.8130   18.2120 N.ar  189  TRP189     -0.2442
    182  CE2       61.5360  184.0760   19.3430 C.ar  189  TRP189      0.0810
    183  CE3       63.3000  183.8000   20.9660 C.ar  189  TRP189      0.0012
    184  CZ2       60.7320  183.1420   19.9890 C.ar  189  TRP189      0.0191
    185  CZ3       62.5020  182.8740   21.6050 C.ar  189  TRP189      0.0001
    186  CH2       61.2310  182.5570   21.1190 C.ar  189  TRP189      0.0015
@<TRIPOS>BOND
     1   131   129   ar
     2   130   129   ar
     3   129   128    1
     4   128   127    1
     5   127   124    1
     6   124   123    1
     7   124   125    1
     8   110   108   ar
     9   148   147   ar
    10   126   125    2
    11   125   132   am
    12   108   107    1
    13   108   109   ar
    14   144   143    2
    15   147   149   ar
    16   147   146    1
    17   132   133    1
    18   107   104    1
    19   145   146    1
    20   145   142    1
    21   143   142    1
    22   141   142    1
    23   141   134   am
    24   133   134    1
    25   133   136    1
    26   134   135    2
    27   104   103    1
    28   104   105    1
    29    18    17   ar
    30   103    99   am
    31   105   106    2
    32    19    17   ar
    33   140   138   ar
    34   150   151    1
    35   136   137    1
    36    17    16    1
    37   137   138    1
    38   138   139   ar
    39   171   170   ar
    40   151   152    1
    41    99    98    1
    42    99   100    2
    43    16    13    1
    44   172   170   ar
    45   101    98    1
    46   101   102    1
    47    98    97    1
    48   170   169    1
    49    13    12    1
    50    13    14    1
    51    95    94    2
    52   152   153    2
    53    15    14    2
    54     4     3    2
    55    14    20   am
    56    97    94   am
    57   169   166    1
    58    94    93    1
    59   179   181   ar
    60   179   178   ar
    61   166   165    1
    62   166   167    1
    63   181   182   ar
    64    91    90    1
    65     3     2    1
    66    20    21    1
    67   178   177    1
    68   178   180   ar
    69   177   174    1
    70   167   168    2
    71    93    92    1
    72    93    96    1
    73   182   180   ar
    74   182   184   ar
    75    92    88   am
    76   173   174    1
    77     2     5    1
    78     2     1    1
    79    90    87    1
    80   180   183   ar
    81    38    36   ar
    82    22    21    1
    83    22    23    2
    84   174   175    1
    85    21    24    1
    86   184   186   ar
    87     5     6    1
    88    88    87    1
    89    88    89    2
    90   175   176    2
    91     7     6   ar
    92     7     9   ar
    93    87    86    1
    94    37    36   ar
    95    36    35    1
    96     6     8   ar
    97   183   185   ar
    98     9    11   ar
    99   186   185   ar
   100   157   156    2
   101    24    25    1
   102    81    80    2
   103    86    80   am
   104    35    32    1
   105     8    10   ar
   106    80    79    1
   107   156   155    1
   108    11    10   ar
   109    47    45   ar
   110    47    48   ar
   111    31    32    1
   112    25    26   ar
   113    25    27   ar
   114   164   162    1
   115    26    28   ar
   116    84    83    1
   117   120   118   ar
   118   120   121   ar
   119   118   116   ar
   120   161   162    2
   121   161   160    1
   122    32    33    1
   123   154   155    1
   124    45    44   ar
   125   159   160    1
   126   159   158    1
   127    48    46   ar
   128    27    29   ar
   129   162   163    1
   130   155   158    1
   131    28    30   ar
   132    79    78    1
   133    79    82    1
   134   122   121    1
   135   111   112    1
   136   121   119   ar
   137    83    82    1
   138    83    85    1
   139   116   115    1
   140   116   117   ar
   141   115   112    1
   142    63    62   ar
   143    33    34    2
   144    73    72    2
   145    29    30   ar
   146    44    46   ar
   147    44    43    1
   148    64    62   ar
   149   113   112    1
   150   113   114    2
   151    62    61    1
   152   119   117   ar
   153    43    40    1
   154    72    71    1
   155    75    74    1
   156    75    76    1
   157    65    66    1
   158    65    58   am
   159    66    67    1
   160    66    69    1
   161    52    51    2
   162    70    71    1
   163    70    67   am
   164    74    71    1
   165    67    68    2
   166    61    60    1
   167    39    40    1
   168    57    58    1
   169    57    60    1
   170    57    56    1
   171    40    41    1
   172    58    59    2
   173    51    56   am
   174    51    50    1
   175    76    77    1
   176    41    42    2
   177    53    50    1
   178    53    54    1
   179    53    55    1
   180    49    50    1
