@<TRIPOS>MOLECULE
tmp/5us4B00.pdb
 165 161 0 0 0
SMALL
GASTEIGER

@<TRIPOS>ATOM
      1  N         -8.0980   46.1490  -31.0550 N.3    12  ASP12      -0.1225
      2  CA        -7.3960   45.0190  -31.6500 C.3    12  ASP12       0.1805
      3  C         -6.3000   44.5610  -30.6900 C.2    12  ASP12       0.2598
      4  O         -5.6550   45.3840  -30.0640 O.2    12  ASP12      -0.2718
      5  CB        -6.7810   45.4380  -33.0010 C.3    12  ASP12       0.1424
      6  CG        -7.8050   45.4530  -34.1550 C.2    12  ASP12       0.3668
      7  OD1       -8.8520   44.7710  -34.0770 O.co2  12  ASP12      -0.2456
      8  OD2       -7.5670   46.2020  -35.1270 O.co2  12  ASP12      -0.2456
      9  N         -6.1290   43.2570  -30.5200 N.am   13  GLY13      -0.1942
     10  CA        -5.0260   42.7510  -29.7290 C.3    13  GLY13       0.2014
     11  C         -5.3450   42.4280  -28.2780 C.2    13  GLY13       0.2639
     12  O         -4.4770   41.9330  -27.5500 O.2    13  GLY13      -0.2714
     13  N         -6.5670   42.7270  -27.8180 N.am   14  VAL14      -0.1963
     14  CA        -6.8350   42.5540  -26.3940 C.3    14  VAL14       0.1727
     15  C         -7.2260   41.1460  -25.9910 C.2    14  VAL14       0.2617
     16  O         -7.2000   40.8180  -24.8090 O.2    14  VAL14      -0.2715
     17  CB        -7.9410   43.5160  -25.8910 C.3    14  VAL14       0.0290
     18  CG1       -7.4650   44.9800  -26.1060 C.3    14  VAL14       0.0023
     19  CG2       -9.2700   43.2570  -26.6250 C.3    14  VAL14       0.0023
     20  N         -7.5910   40.3320  -26.9810 N.am   15  GLY15      -0.1940
     21  CA        -8.0070   38.9560  -26.7320 C.3    15  GLY15       0.2014
     22  C         -9.4880   38.6550  -26.9640 C.2    15  GLY15       0.2639
     23  O        -10.0000   37.6610  -26.4090 O.2    15  GLY15      -0.2714
     24  N        -10.1690   39.4610  -27.7870 N.am   16  LYS16      -0.1963
     25  CA       -11.5850   39.2180  -28.0760 C.3    16  LYS16       0.1728
     26  C        -11.7560   37.8290  -28.7030 C.2    16  LYS16       0.2617
     27  O        -12.6420   37.0140  -28.3020 O.2    16  LYS16      -0.2715
     28  CB       -12.1430   40.2830  -29.0400 C.3    16  LYS16       0.0311
     29  CG       -12.1050   41.7310  -28.4670 C.3    16  LYS16       0.0038
     30  CD       -12.7780   42.7210  -29.4300 C.3    16  LYS16       0.0206
     31  CE       -12.1270   42.7250  -30.7560 C.3    16  LYS16       0.1093
     32  NZ       -10.7340   43.1880  -30.6540 N.3    16  LYS16      -0.1314
     33  N        -10.9250   37.5550  -29.6990 N.am   17  SER17      -0.1936
     34  CA       -11.0270   36.2500  -30.3720 C.3    17  SER17       0.2055
     35  C        -10.6180   35.1070  -29.4580 C.2    17  SER17       0.2642
     36  O        -11.2900   34.0900  -29.4030 O.2    17  SER17      -0.2714
     37  CB       -10.1700   36.2120  -31.6530 C.3    17  SER17       0.2130
     38  OG       -10.7220   37.0900  -32.5970 O.3    17  SER17      -0.2179
     39  N         -9.4970   35.2650  -28.7640 N.am   18  ALA18      -0.1977
     40  CA        -9.0280   34.2160  -27.8590 C.3    18  ALA18       0.1597
     41  C        -10.0690   33.9250  -26.7840 C.2    18  ALA18       0.2287
     42  O        -10.2830   32.7660  -26.4230 O.2    18  ALA18      -0.2864
     43  CB        -7.6550   34.6330  -27.2240 C.3    18  ALA18       0.0319
     44  N         -6.8180   27.6130  -25.9950 N.3    28  PHE28      -0.1227
     45  CA        -6.2330   28.9340  -26.1780 C.3    28  PHE28       0.1736
     46  C         -5.5380   29.0020  -27.5310 C.2    28  PHE28       0.2595
     47  O         -4.5600   28.2670  -27.8120 O.2    28  PHE28      -0.2718
     48  CB        -5.2690   29.2140  -25.0300 C.3    28  PHE28       0.0547
     49  CG        -4.4530   30.4720  -25.1960 C.ar   28  PHE28      -0.0202
     50  CD1       -5.0830   31.7030  -25.3950 C.ar   28  PHE28      -0.0042
     51  CD2       -3.0680   30.4370  -25.1240 C.ar   28  PHE28      -0.0042
     52  CE1       -4.3310   32.8910  -25.5210 C.ar   28  PHE28      -0.0003
     53  CE2       -2.3000   31.6390  -25.2790 C.ar   28  PHE28      -0.0003
     54  CZ        -2.9440   32.8540  -25.4660 C.ar   28  PHE28      -0.0000
     55  N         -6.0580   29.8640  -28.3850 N.am   29  VAL29      -0.1966
     56  CA        -5.4770   30.0800  -29.7020 C.3    29  VAL29       0.1727
     57  C         -4.6510   31.3330  -29.6650 C.2    29  VAL29       0.2616
     58  O         -5.1820   32.4260  -29.4990 O.2    29  VAL29      -0.2715
     59  CB        -6.5650   30.2390  -30.8040 C.3    29  VAL29       0.0290
     60  CG1       -5.9620   30.4650  -32.1500 C.3    29  VAL29       0.0023
     61  CG2       -7.3580   29.0380  -30.8830 C.3    29  VAL29       0.0023
     62  N         -3.3480   31.1980  -29.8660 N.am   30  ASP30      -0.1957
     63  CA        -2.4980   32.3560  -29.6670 C.3    30  ASP30       0.1840
     64  C         -2.2810   33.2610  -30.8950 C.2    30  ASP30       0.2622
     65  O         -1.8060   34.3550  -30.7240 O.2    30  ASP30      -0.2715
     66  CB        -1.1660   31.9530  -29.0380 C.3    30  ASP30       0.1450
     67  CG        -0.3390   31.1020  -29.9240 C.2    30  ASP30       0.3671
     68  OD1       -0.6660   30.9880  -31.1200 O.co2  30  ASP30      -0.2456
     69  OD2        0.6500   30.5400  -29.4160 O.co2  30  ASP30      -0.2456
     70  N         -2.5760   32.8520  -32.1240 N.am   31  GLU31      -0.1963
     71  CA        -2.4900   33.8930  -33.1620 C.3    31  GLU31       0.1733
     72  C         -3.6240   33.8580  -34.1960 C.2    31  GLU31       0.2616
     73  O         -3.3970   33.8090  -35.3990 O.2    31  GLU31      -0.2715
     74  CB        -1.1410   33.8280  -33.8960 C.3    31  GLU31       0.0429
     75  CG         0.1150   33.8130  -33.0140 C.3    31  GLU31       0.1163
     76  CD         1.3970   33.8120  -33.8360 C.2    31  GLU31       0.3649
     77  OE1        1.5470   32.8960  -34.6810 O.co2  31  GLU31      -0.2457
     78  OE2        2.2440   34.7140  -33.6270 O.co2  31  GLU31      -0.2457
     79  N         -4.8530   33.9200  -33.7110 N.am   32  TYR32      -0.1974
     80  CA        -6.0230   33.9870  -34.5660 C.3    32  TYR32       0.1639
     81  C         -5.9840   35.2230  -35.4400 C.2    32  TYR32       0.2290
     82  O         -5.8020   36.3310  -34.9300 O.2    32  TYR32      -0.2864
     83  CB        -7.2870   33.9940  -33.7220 C.3    32  TYR32       0.0560
     84  CG        -8.5100   33.7360  -34.5160 C.ar   32  TYR32      -0.0198
     85  CD1       -8.7480   32.4710  -35.0550 C.ar   32  TYR32      -0.0009
     86  CD2       -9.4400   34.7340  -34.7360 C.ar   32  TYR32      -0.0009
     87  CE1       -9.8860   32.2150  -35.7810 C.ar   32  TYR32       0.0417
     88  CE2      -10.5890   34.4930  -35.5000 C.ar   32  TYR32       0.0417
     89  CZ       -10.8010   33.2250  -36.0090 C.ar   32  TYR32       0.1957
     90  OH       -11.9380   32.9730  -36.7450 O.3    32  TYR32      -0.2866
     91  N         -6.1880   38.4700  -36.9680 N.3    34  PRO34      -0.2116
     92  CA        -6.7720   39.6520  -36.3090 C.3    34  PRO34       0.1372
     93  C         -7.7870   40.3630  -37.1850 C.2    34  PRO34       0.2244
     94  O         -8.5000   41.2180  -36.6520 O.2    34  PRO34      -0.2868
     95  CB        -5.5530   40.5370  -36.0310 C.3    34  PRO34       0.0268
     96  CG        -4.5030   40.0600  -37.0050 C.3    34  PRO34       0.0207
     97  CD        -4.7230   38.5770  -37.1050 C.3    34  PRO34       0.0892
     98  N        -17.7560   38.2450  -32.7400 N.3    57  ASP57      -0.1225
     99  CA       -16.3660   38.5620  -32.4090 C.3    57  ASP57       0.1805
    100  C        -15.8990   39.6290  -33.3920 C.2    57  ASP57       0.2598
    101  O        -15.6460   39.3280  -34.5830 O.2    57  ASP57      -0.2718
    102  CB       -15.5250   37.2740  -32.4830 C.3    57  ASP57       0.1424
    103  CG       -14.0340   37.5050  -32.2980 C.2    57  ASP57       0.3668
    104  OD1      -13.6620   38.4840  -31.5920 O.co2  57  ASP57      -0.2456
    105  OD2      -13.2380   36.6530  -32.8320 O.co2  57  ASP57      -0.2456
    106  N        -15.8620   40.8830  -32.9170 N.am   58  THR58      -0.1953
    107  CA       -15.6470   42.0120  -33.8510 C.3    58  THR58       0.1897
    108  C        -14.1800   42.1710  -34.2080 C.2    58  THR58       0.2313
    109  O        -13.3360   41.8430  -33.4100 O.2    58  THR58      -0.2863
    110  CB       -16.1680   43.3560  -33.2710 C.3    58  THR58       0.1794
    111  OG1      -15.4640   43.6420  -32.0510 O.3    58  THR58      -0.2208
    112  CG2      -17.6810   43.2450  -33.0130 C.3    58  THR58       0.0378
    113  N         -8.7220   41.5100  -19.6800 N.3   109  ASN109     -0.1225
    114  CA        -8.1850   40.2460  -20.1470 C.3   109  ASN109      0.1785
    115  C         -6.6550   40.1860  -19.9690 C.2   109  ASN109      0.2597
    116  O         -6.0320   41.2290  -19.6600 O.2   109  ASN109     -0.2718
    117  CB        -8.5620   40.0220  -21.6190 C.3   109  ASN109      0.1169
    118  CG        -8.2250   38.6070  -22.0750 C.2   109  ASN109      0.2627
    119  OD1       -8.4430   37.6420  -21.3220 O.2   109  ASN109     -0.2716
    120  ND2       -7.6670   38.4860  -23.2690 N.am  109  ASN109     -0.0877
    121  N         -6.0960   38.9880  -20.1860 N.am  110  LYS110     -0.1980
    122  CA        -4.6490   38.7150  -20.0590 C.3   110  LYS110      0.1596
    123  C         -4.1730   38.8120  -18.5950 C.2   110  LYS110      0.2287
    124  O         -3.0210   39.2150  -18.3190 O.2   110  LYS110     -0.2864
    125  CB        -3.8100   39.6660  -20.9550 C.3   110  LYS110      0.0298
    126  CG        -4.2640   39.7110  -22.4390 C.3   110  LYS110      0.0038
    127  CD        -3.1150   40.2130  -23.3570 C.3   110  LYS110      0.0206
    128  CE        -3.6330   40.4330  -24.7900 C.3   110  LYS110      0.1093
    129  NZ        -2.5240   40.8040  -25.7550 N.3   110  LYS110     -0.1314
    130  N         -3.2090   36.6330  -16.6700 N.3   112  ASP112     -0.1225
    131  CA        -2.0910   35.7150  -16.4040 C.3   112  ASP112      0.1805
    132  C         -0.7300   36.4380  -16.5480 C.2   112  ASP112      0.2597
    133  O          0.3290   35.9280  -16.1280 O.2   112  ASP112     -0.2718
    134  CB        -2.1700   34.5290  -17.3740 C.3   112  ASP112      0.1424
    135  CG        -2.1060   34.9840  -18.8310 C.2   112  ASP112      0.3668
    136  OD1       -3.1290   35.5130  -19.3280 O.co2 112  ASP112     -0.2456
    137  OD2       -1.0220   34.8870  -19.4450 O.co2 112  ASP112     -0.2456
    138  N         -0.7290   37.6080  -17.1710 N.am  113  LEU113     -0.1979
    139  CA         0.5520   38.2500  -17.5060 C.3   113  LEU113      0.1596
    140  C          1.0420   39.0940  -16.3460 C.2   113  LEU113      0.2287
    141  O          0.2410   39.7910  -15.6920 O.2   113  LEU113     -0.2864
    142  CB         0.4350   39.1210  -18.7750 C.3   113  LEU113      0.0297
    143  CG         0.2500   38.3230  -20.0780 C.3   113  LEU113      0.0022
    144  CD1        0.1660   39.3010  -21.2500 C.3   113  LEU113      0.0001
    145  CD2        1.4220   37.3310  -20.3050 C.3   113  LEU113      0.0001
    146  N         -8.4530   35.5120  -18.1940 N.3   138  SER138     -0.1202
    147  CA        -7.3300   35.0740  -19.0270 C.3   138  SER138      0.2020
    148  C         -7.8540   34.0740  -20.0650 C.2   138  SER138      0.2619
    149  O         -8.3410   32.9930  -19.7110 O.2   138  SER138     -0.2717
    150  CB        -6.2330   34.4050  -18.1900 C.3   138  SER138      0.2103
    151  OG        -5.2280   33.8610  -19.0590 O.3   138  SER138     -0.2182
    152  N         -7.7780   34.4530  -21.3400 N.am  139  ALA139     -0.1965
    153  CA        -8.0440   33.5150  -22.4070 C.3   139  ALA139      0.1728
    154  C         -6.9830   32.3880  -22.3760 C.2   139  ALA139      0.2616
    155  O         -7.2380   31.2730  -22.8470 O.2   139  ALA139     -0.2715
    156  CB        -8.0350   34.2220  -23.7850 C.3   139  ALA139      0.0334
    157  N         -5.7860   32.6730  -21.8550 N.am  140  LYS140     -0.1977
    158  CA        -4.7540   31.6270  -21.8200 C.3   140  LYS140      0.1596
    159  C         -5.0700   30.5260  -20.7970 C.2   140  LYS140      0.2287
    160  O         -4.9780   29.3380  -21.1160 O.2   140  LYS140     -0.2864
    161  CB        -3.3620   32.2470  -21.5460 C.3   140  LYS140      0.0298
    162  CG        -2.2400   31.2260  -21.6330 C.3   140  LYS140      0.0038
    163  CD        -0.8940   31.9020  -21.4350 C.3   140  LYS140      0.0206
    164  CE         0.1610   30.8120  -21.1970 C.3   140  LYS140      0.1093
    165  NZ         1.5110   31.4190  -21.1290 N.3   140  LYS140     -0.1314
@<TRIPOS>BOND
     1    93    94    2
     2    93    92    1
     3    97    96    1
     4    97    91    1
     5    96    95    1
     6    91    92    1
     7    90    89    1
     8    92    95    1
     9    89    87   ar
    10    89    88   ar
    11    87    85   ar
    12    88    86   ar
    13    81    82    2
    14    81    80    1
    15    73    72    2
    16     8     6   ar
    17    85    84   ar
    18    86    84   ar
    19    77    76   ar
    20   101   100    2
    21    80    83    1
    22    80    79    1
    23    84    83    1
    24   108   107    1
    25   108   109    2
    26    72    79   am
    27    72    71    1
    28     6     7   ar
    29     6     5    1
    30    74    71    1
    31    74    75    1
    32   107   110    1
    33   107   106    1
    34    76    78   ar
    35    76    75    1
    36   100   106   am
    37   100    99    1
    38   110   112    1
    39   110   111    1
    40    71    70    1
    41     5     2    1
    42   105   103   ar
    43    98    99    1
    44    38    37    1
    45   102    99    1
    46   102   103    1
    47   103   104   ar
    48    60    59    1
    49    70    64   am
    50    37    34    1
    51     2     1    1
    52     2     3    1
    53    68    67   ar
    54    64    65    2
    55    64    63    1
    56    61    59    1
    57    59    56    1
    58    31    32    1
    59    31    30    1
    60     3     9   am
    61     3     4    2
    62     9    10    1
    63    34    33    1
    64    34    35    1
    65    67    69   ar
    66    67    66    1
    67    62    63    1
    68    62    57   am
    69    10    11    1
    70    56    57    1
    71    56    55    1
    72    33    26   am
    73    63    66    1
    74    57    58    2
    75    35    36    2
    76    35    39   am
    77    30    29    1
    78    28    29    1
    79    28    25    1
    80    39    40    1
    81    26    27    2
    82    26    25    1
    83    55    46   am
    84    11    13   am
    85    11    12    2
    86    25    24    1
    87    40    43    1
    88    40    41    1
    89    13    14    1
    90    47    46    2
    91    24    22   am
    92    46    45    1
    93    20    21    1
    94    20    15   am
    95    22    21    1
    96    22    23    2
    97    41    42    2
    98    19    17    1
    99    14    15    1
   100    14    17    1
   101    45    44    1
   102    45    48    1
   103    18    17    1
   104    15    16    2
   105   129   128    1
   106    52    54   ar
   107    52    50   ar
   108    54    53   ar
   109    50    49   ar
   110    53    51   ar
   111    49    51   ar
   112    49    48    1
   113   128   127    1
   114   156   153    1
   115   127   126    1
   116   120   118   am
   117   155   154    2
   118   126   125    1
   119   153   154    1
   120   153   152    1
   121   154   157   am
   122   118   117    1
   123   118   119    2
   124   157   158    1
   125   158   161    1
   126   158   159    1
   127   162   161    1
   128   162   163    1
   129   117   114    1
   130   163   164    1
   131   152   148   am
   132   144   143    1
   133   164   165    1
   134   160   159    2
   135   125   122    1
   136   145   143    1
   137   121   122    1
   138   121   115   am
   139   114   115    1
   140   114   113    1
   141   143   142    1
   142   148   149    2
   143   148   147    1
   144   122   123    1
   145   115   116    2
   146   137   135   ar
   147   136   135   ar
   148   151   150    1
   149   147   146    1
   150   147   150    1
   151   135   134    1
   152   142   139    1
   153   123   124    2
   154   139   138    1
   155   139   140    1
   156   134   131    1
   157   138   132   am
   158   130   131    1
   159   132   131    1
   160   132   133    2
   161   140   141    2
