@<TRIPOS>MOLECULE
tmp/5us6E01.pdb
 130 125 0 0 0
SMALL
GASTEIGER

@<TRIPOS>ATOM
      1  N         18.5310   -7.8100   62.5990 N.3    12  ARG12      -0.1231
      2  CA        17.9280   -6.9990   63.5950 C.3    12  ARG12       0.1694
      3  C         16.4330   -6.7810   63.3060 C.2    12  ARG12       0.2591
      4  O         15.5820   -7.0440   64.1920 O.2    12  ARG12      -0.2718
      5  CB        18.6270   -5.6720   63.6910 C.3    12  ARG12       0.0321
      6  CG        19.7430   -5.7240   64.6580 C.3    12  ARG12       0.0489
      7  CD        20.5490   -4.4460   64.7880 C.3    12  ARG12       0.2205
      8  NE        21.0020   -4.0260   63.4830 N.pl3  12  ARG12      -0.0865
      9  CZ        22.1710   -4.2690   62.8790 C.cat  12  ARG12       0.5346
     10  NH1       22.3190   -3.7860   61.6630 N.pl3  12  ARG12       0.1354
     11  NH2       23.2180   -4.8520   63.4590 N.pl3  12  ARG12       0.1354
     12  N         16.1490   -6.2780   62.1230 N.am   13  MET13      -0.1979
     13  CA        14.7850   -6.0980   61.7190 C.3    13  MET13       0.1605
     14  C         14.0750   -7.4410   61.4460 C.2    13  MET13       0.2287
     15  O         12.9440   -7.6550   61.8600 O.2    13  MET13      -0.2864
     16  CB        14.6880   -5.1890   60.5220 C.3    13  MET13       0.0413
     17  CG        14.7360   -3.7490   60.8890 C.3    13  MET13       0.0598
     18  SD        13.5890   -3.2570   62.1740 S.3    13  MET13      -0.1393
     19  CE        12.0390   -3.7260   61.3580 C.3    13  MET13       0.0692
     20  N         17.4390    0.5550   53.1230 N.3   100  THR100     -0.1218
     21  CA        17.8950    1.8950   52.7930 C.3   100  THR100      0.1862
     22  C         19.2580    1.8140   52.1610 C.2   100  THR100      0.2287
     23  O         19.9210    0.7730   52.2830 O.2   100  THR100     -0.2866
     24  CB        17.9560    2.8360   54.0020 C.3   100  THR100      0.1770
     25  OG1       18.8840    2.3340   54.9840 O.3   100  THR100     -0.2211
     26  CG2       16.5560    2.9200   54.5750 C.3   100  THR100      0.0375
     27  N         11.5230    4.8740   53.7720 N.3   123  PRO123     -0.2102
     28  CA        12.6270    4.7930   54.7240 C.3   123  PRO123      0.1504
     29  C         12.2480    4.5250   56.1900 C.2   123  PRO123      0.2575
     30  O         13.1890    4.3980   57.0210 O.2   123  PRO123     -0.2718
     31  CB        13.3100    6.1720   54.5670 C.3   123  PRO123      0.0282
     32  CG        12.2890    7.0670   53.9050 C.3   123  PRO123      0.0208
     33  CD        11.0860    6.2580   53.5280 C.3   123  PRO123      0.0893
     34  N         11.0000    4.7000   56.5770 N.am  124  ASN124     -0.1975
     35  CA        10.6700    4.5670   57.9980 C.3   124  ASN124      0.1688
     36  C          9.2250    4.1130   58.1160 C.2   124  ASN124      0.2292
     37  O          8.3080    4.7600   57.5190 O.2   124  ASN124     -0.2864
     38  CB        10.8350    5.8780   58.7200 C.3   124  ASN124      0.1181
     39  CG        10.9840    5.7030   60.1860 C.2   124  ASN124      0.2629
     40  OD1       10.0270    5.3080   60.8950 O.2   124  ASN124     -0.2716
     41  ND2       12.1630    6.1140   60.7320 N.am  124  ASN124     -0.0877
     42  N         22.0960    7.0940   65.1070 N.3   155  HIS155     -0.1226
     43  CA        21.7880    5.6400   65.1510 C.3   155  HIS155      0.1752
     44  C         22.8850    4.8190   65.7740 C.2   155  HIS155      0.2596
     45  O         24.0030    5.3110   65.9590 O.2   155  HIS155     -0.2718
     46  CB        21.5870    5.1250   63.7590 C.3   155  HIS155      0.0759
     47  CG        20.3210    5.5260   63.1580 C.ar  155  HIS155      0.0818
     48  ND1       20.1910    6.6930   62.4880 N.ar  155  HIS155     -0.2268
     49  CD2       19.1470    4.8930   63.0340 C.ar  155  HIS155      0.1154
     50  CE1       18.9760    6.7820   61.9830 C.ar  155  HIS155      0.1986
     51  NE2       18.3420    5.6760   62.2660 N.ar  155  HIS155     -0.2212
     52  N         22.5510    3.5750   66.0390 N.am  156  HIS156     -0.1975
     53  CA        23.4200    2.6160   66.6240 C.3   156  HIS156      0.1656
     54  C         24.7120    2.3380   65.7920 C.2   156  HIS156      0.2291
     55  O         24.7840    2.6140   64.6150 O.2   156  HIS156     -0.2864
     56  CB        22.6740    1.3220   66.7910 C.3   156  HIS156      0.0771
     57  CG        22.1180    0.8020   65.5130 C.ar  156  HIS156      0.0820
     58  ND1       22.8010   -0.0400   64.6970 N.ar  156  HIS156     -0.2267
     59  CD2       20.9310    1.0290   64.8950 C.ar  156  HIS156      0.1154
     60  CE1       22.0900   -0.2900   63.6080 C.ar  156  HIS156      0.1986
     61  NE2       20.9340    0.3320   63.7110 N.ar  156  HIS156     -0.2212
     62  N         24.8580    0.5830   62.1220 N.3   159  LYS159     -0.1245
     63  CA        24.2890    1.0520   60.8650 C.3   159  LYS159      0.1561
     64  C         25.3720    1.3770   59.8120 C.2   159  LYS159      0.2260
     65  O         26.2550    2.2640   60.0010 O.2   159  LYS159     -0.2867
     66  CB        23.4600    2.2510   61.1270 C.3   159  LYS159      0.0271
     67  CG        22.7660    2.8250   59.8910 C.3   159  LYS159      0.0035
     68  CD        21.5760    3.6980   60.2970 C.3   159  LYS159      0.0206
     69  CE        20.8000    4.1890   59.0800 C.3   159  LYS159      0.1093
     70  NZ        20.2340    3.0970   58.3060 N.3   159  LYS159     -0.1314
     71  N         20.9780    8.5360   57.3010 N.3   164  SER164     -0.1202
     72  CA        19.9550    7.5760   57.2620 C.3   164  SER164      0.2020
     73  C         19.0370    7.8230   56.0870 C.2   164  SER164      0.2619
     74  O         18.9640    8.9430   55.5610 O.2   164  SER164     -0.2717
     75  CB        19.1480    7.6740   58.5500 C.3   164  SER164      0.2103
     76  OG        18.4020    8.8820   58.6370 O.3   164  SER164     -0.2182
     77  N         18.3260    6.7810   55.6720 N.am  165  GLY165     -0.1942
     78  CA        17.2850    6.9280   54.6640 C.3   165  GLY165      0.2014
     79  C         16.2350    7.9250   55.0900 C.2   165  GLY165      0.2639
     80  O         15.7120    8.6850   54.2590 O.2   165  GLY165     -0.2714
     81  N         15.8660    7.8480   56.3580 N.am  166  THR166     -0.1950
     82  CA        14.8620    8.7470   56.9110 C.3   166  THR166      0.1897
     83  C         15.3460   10.2140   56.8120 C.2   166  THR166      0.2313
     84  O         14.5360   11.1290   56.5240 O.2   166  THR166     -0.2863
     85  CB        14.5290    8.3540   58.3700 C.3   166  THR166      0.1794
     86  OG1       13.9850    7.0070   58.4100 O.3   166  THR166     -0.2208
     87  CG2       13.5990    9.2680   58.9780 C.3   166  THR166      0.0378
     88  N         18.2360    3.4410   68.5950 N.3   213  VAL213     -0.1231
     89  CA        17.3120    2.8940   67.6090 C.3   213  VAL213      0.1692
     90  C         17.0330    3.8680   66.5490 C.2   213  VAL213      0.2592
     91  O         16.9090    3.5130   65.3880 O.2   213  VAL213     -0.2718
     92  CB        16.0100    2.4620   68.2480 C.3   213  VAL213      0.0266
     93  CG1       14.9640    2.0100   67.2010 C.3   213  VAL213      0.0020
     94  CG2       16.2590    1.3440   69.2630 C.3   213  VAL213      0.0020
     95  N         17.0740    5.1590   66.8760 N.am  214  GLY214     -0.1957
     96  CA        16.9300    6.2140   65.8170 C.3   214  GLY214      0.1869
     97  C         16.3400    7.5200   66.2770 C.2   214  GLY214      0.2309
     98  O         15.2280    7.5330   66.7150 O.2   214  GLY214     -0.2863
     99  N         15.9550   11.6000   64.9380 N.3   216  HIS216     -0.1241
    100  CA        16.0480   12.5320   63.8160 C.3   216  HIS216      0.1621
    101  C         15.5170   13.8910   64.2160 C.2   216  HIS216      0.2264
    102  O         14.4620   13.9860   64.8340 O.2   216  HIS216     -0.2867
    103  CB        15.2490   12.0840   62.6240 C.3   216  HIS216      0.0745
    104  CG        15.7510   10.8540   61.9830 C.ar  216  HIS216      0.0817
    105  ND1       15.4200    9.5960   62.4520 N.ar  216  HIS216     -0.2268
    106  CD2       16.5390   10.6610   60.9110 C.ar  216  HIS216      0.1154
    107  CE1       16.0360    8.6760   61.7240 C.ar  216  HIS216      0.1986
    108  NE2       16.7400    9.2980   60.7930 N.ar  216  HIS216     -0.2212
    109  N         12.5260   -1.2570   67.9550 N.3   236  ARG236     -0.1245
    110  CA        12.4000   -1.6320   66.5630 C.3   236  ARG236      0.1563
    111  C         11.0380   -2.1830   66.2040 C.2   236  ARG236      0.2260
    112  O         10.6810   -2.2410   65.0430 O.2   236  ARG236     -0.2867
    113  CB        13.4430   -2.6710   66.2130 C.3   236  ARG236      0.0307
    114  CG        14.6780   -2.0900   65.5920 C.3   236  ARG236      0.0489
    115  CD        15.7870   -3.0980   65.4620 C.3   236  ARG236      0.2205
    116  NE        17.0390   -2.3830   65.3640 N.pl3 236  ARG236     -0.0865
    117  CZ        17.8530   -2.1790   66.3820 C.cat 236  ARG236      0.5346
    118  NH1       17.5620   -2.6650   67.5630 N.pl3 236  ARG236      0.1354
    119  NH2       18.9590   -1.4980   66.2130 N.pl3 236  ARG236      0.1354
    120  N          8.8260   -0.2740   63.9910 N.3   239  PHE239     -0.1241
    121  CA         9.0230   -0.3710   62.5910 C.3   239  PHE239      0.1605
    122  C          8.4350   -1.6750   62.0530 C.2   239  PHE239      0.2264
    123  O          7.8180   -1.6950   60.9740 O.2   239  PHE239     -0.2867
    124  CB        10.5180   -0.3040   62.1750 C.3   239  PHE239      0.0534
    125  CG        11.2860    0.8680   62.7090 C.ar  239  PHE239     -0.0203
    126  CD1       10.9290    2.1620   62.3930 C.ar  239  PHE239     -0.0042
    127  CD2       12.4750    0.6500   63.4580 C.ar  239  PHE239     -0.0042
    128  CE1       11.6760    3.2070   62.8990 C.ar  239  PHE239     -0.0003
    129  CE2       13.2450    1.7030   63.9420 C.ar  239  PHE239     -0.0003
    130  CZ        12.8090    2.9730   63.7020 C.ar  239  PHE239     -0.0000
@<TRIPOS>BOND
     1    22    23    2
     2    22    21    1
     3    21    20    1
     4    21    24    1
     5    33    27    1
     6    33    32    1
     7    27    28    1
     8    32    31    1
     9    24    26    1
    10    24    25    1
    11    80    79    2
    12    31    28    1
    13    78    79    1
    14    78    77    1
    15    28    29    1
    16    79    81   am
    17    74    73    2
    18    77    73   am
    19    73    72    1
    20    29    34   am
    21    29    30    2
    22    81    82    1
    23    84    83    2
    24    34    35    1
    25    83    82    1
    26    82    85    1
    27    72    71    1
    28    72    75    1
    29    37    36    2
    30    35    36    1
    31    35    38    1
    32    70    69    1
    33    85    86    1
    34    85    87    1
    35    75    76    1
    36    38    39    1
    37    69    68    1
    38    64    65    2
    39    64    63    1
    40    67    68    1
    41    67    66    1
    42    39    41   am
    43    39    40    2
    44    16    17    1
    45    16    13    1
    46   108   106   ar
    47   108   107   ar
    48    63    66    1
    49    63    62    1
    50    17    18    1
    51   106   104   ar
    52   123   122    2
    53    19    18    1
    54    14    13    1
    55    14    15    2
    56    10     9    1
    57    13    12    1
    58   107   105   ar
    59    50    51   ar
    60    50    48   ar
    61   104   105   ar
    62   104   103    1
    63   122   121    1
    64    12     3   am
    65   124   121    1
    66   124   125    1
    67    51    49   ar
    68   126   125   ar
    69   126   128   ar
    70    48    47   ar
    71   121   120    1
    72     1     2    1
    73   103   100    1
    74   125   127   ar
    75     9    11    1
    76     9     8    2
    77   128   130   ar
    78    49    47   ar
    79    47    46    1
    80     3     2    1
    81     3     4    2
    82   127   129   ar
    83     8     7    1
    84     2     5    1
    85    60    61   ar
    86    60    58   ar
    87     5     6    1
    88   130   129   ar
    89    61    59   ar
    90    46    43    1
    91   100   101    1
    92   100    99    1
    93   101   102    2
    94    55    54    2
    95     6     7    1
    96    58    57   ar
    97    59    57   ar
    98   112   111    2
    99    42    43    1
   100    43    44    1
   101   116   115    1
   102   116   117    2
   103    91    90    2
   104   115   114    1
   105    57    56    1
   106   114   113    1
   107    44    45    2
   108    44    52   am
   109    54    53    1
   110    96    97    1
   111    96    95    1
   112    52    53    1
   113   111   110    1
   114   119   117    1
   115   113   110    1
   116    97    98    2
   117   117   118    1
   118    90    95   am
   119    90    89    1
   120   110   109    1
   121    53    56    1
   122    93    92    1
   123    89    92    1
   124    89    88    1
   125    92    94    1
