@<TRIPOS>MOLECULE
tmp/5us8B01.pdb
 123 115 0 0 0
SMALL
GASTEIGER

@<TRIPOS>ATOM
      1  N         32.2790  -18.5270   17.1040 N.3    22  SER22      -0.1217
      2  CA        31.4970  -19.7220   16.7560 C.3    22  SER22       0.1889
      3  C         32.3550  -20.9670   16.9560 C.2    22  SER22       0.2288
      4  O         31.8340  -22.0530   17.1610 O.2    22  SER22      -0.2866
      5  CB        31.0170  -19.6610   15.3070 C.3    22  SER22       0.2089
      6  OG        32.1160  -19.7510   14.4070 O.3    22  SER22      -0.2183
      7  N         34.5380  -22.1670   14.6630 N.3    24  GLY24      -0.1210
      8  CA        34.9170  -22.7430   13.3690 C.3    24  GLY24       0.1956
      9  C         36.3480  -22.3220   13.0710 C.2    24  GLY24       0.2611
     10  O         36.9620  -21.6250   13.8780 O.2    24  GLY24      -0.2717
     11  N         36.8740  -22.7180   11.9140 N.am   25  LEU25      -0.1979
     12  CA        38.2600  -22.3970   11.5310 C.3    25  LEU25       0.1596
     13  C         38.5540  -20.8960   11.4610 C.2    25  LEU25       0.2287
     14  O         39.5720  -20.4330   11.9700 O.2    25  LEU25      -0.2864
     15  CB        38.6000  -23.0350   10.1760 C.3    25  LEU25       0.0297
     16  CG        40.0040  -22.7670    9.6100 C.3    25  LEU25       0.0022
     17  CD1       41.0820  -23.2320   10.5800 C.3    25  LEU25       0.0001
     18  CD2       40.1790  -23.4480    8.2610 C.3    25  LEU25       0.0001
     19  N         21.5200  -24.1550   18.0920 N.3    50  GLN50      -0.1245
     20  CA        21.8520  -24.6520   16.7610 C.3    50  GLN50       0.1566
     21  C         21.6320  -26.1480   16.6560 C.2    50  GLN50       0.2260
     22  O         22.1110  -26.9040   17.4880 O.2    50  GLN50      -0.2867
     23  CB        23.2740  -24.2580   16.3660 C.3    50  GLN50       0.0367
     24  CG        23.3860  -22.7740   16.0620 C.3    50  GLN50       0.0905
     25  CD        24.8110  -22.2540   16.0360 C.2    50  GLN50       0.2608
     26  OE1       25.4430  -22.1110   17.0760 O.2    50  GLN50      -0.2717
     27  NE2       25.3020  -21.9120   14.8440 N.am   50  GLN50      -0.0878
     28  N         22.8670  -28.2860   14.6850 N.3    52  ASP52      -0.1225
     29  CA        24.1030  -29.0150   14.3600 C.3    52  ASP52       0.1805
     30  C         25.2260  -28.7950   15.3850 C.2    52  ASP52       0.2597
     31  O         26.3630  -29.2050   15.1470 O.2    52  ASP52      -0.2718
     32  CB        24.5850  -28.6850   12.9260 C.3    52  ASP52       0.1424
     33  CG        24.7430  -27.1670   12.6580 C.2    52  ASP52       0.3668
     34  OD1       24.2880  -26.3280   13.4740 O.co2  52  ASP52      -0.2456
     35  OD2       25.3100  -26.8190   11.6030 O.co2  52  ASP52      -0.2456
     36  N         24.9080  -28.1760   16.5260 N.am   53  GLU53      -0.1979
     37  CA        25.9050  -27.9550   17.5790 C.3    53  GLU53       0.1602
     38  C         25.7530  -28.9970   18.6930 C.2    53  GLU53       0.2287
     39  O         24.7960  -28.9400   19.4680 O.2    53  GLU53      -0.2864
     40  CB        25.7990  -26.5390   18.1550 C.3    53  GLU53       0.0415
     41  CG        26.7360  -26.2770   19.3250 C.3    53  GLU53       0.1163
     42  CD        28.1850  -26.6490   19.0180 C.2    53  GLU53       0.3649
     43  OE1       28.7530  -26.1250   18.0320 O.co2  53  GLU53      -0.2457
     44  OE2       28.7570  -27.4660   19.7730 O.co2  53  GLU53      -0.2457
     45  N         27.9550  -26.7740   23.2100 N.3    56  TYR56      -0.1241
     46  CA        28.3460  -25.3650   23.3250 C.3    56  TYR56       0.1605
     47  C         29.4610  -25.0990   24.3560 C.2    56  TYR56       0.2264
     48  O         30.3230  -24.2620   24.1100 O.2    56  TYR56      -0.2867
     49  CB        27.1300  -24.4740   23.6310 C.3    56  TYR56       0.0534
     50  CG        26.2990  -24.0870   22.4260 C.ar   56  TYR56      -0.0201
     51  CD1       26.7860  -23.1670   21.4980 C.ar   56  TYR56      -0.0009
     52  CD2       25.0050  -24.5960   22.2320 C.ar   56  TYR56      -0.0009
     53  CE1       26.0340  -22.7850   20.3940 C.ar   56  TYR56       0.0417
     54  CE2       24.2460  -24.2300   21.1210 C.ar   56  TYR56       0.0417
     55  CZ        24.7600  -23.3200   20.2060 C.ar   56  TYR56       0.1957
     56  OH        24.0180  -22.9180   19.1120 O.3    56  TYR56      -0.2866
     57  N         33.2260  -24.9450   23.2950 N.3    59  ILE59      -0.1245
     58  CA        33.7190  -23.8300   22.4730 C.3    59  ILE59       0.1561
     59  C         34.5220  -22.7660   23.2620 C.2    59  ILE59       0.2260
     60  O         35.6450  -22.4460   22.8540 O.2    59  ILE59      -0.2867
     61  CB        32.5820  -23.2270   21.6160 C.3    59  ILE59       0.0252
     62  CG1       31.9610  -24.3300   20.7400 C.3    59  ILE59       0.0019
     63  CG2       33.1040  -22.0760   20.7560 C.3    59  ILE59       0.0019
     64  CD1       30.7000  -23.8980   20.0180 C.3    59  ILE59       0.0001
     65  N         41.3990  -21.0510    3.5770 N.3   172  ARG172     -0.1245
     66  CA        41.3060  -22.0490    4.6370 C.3   172  ARG172      0.1563
     67  C         42.5800  -22.8640    4.8320 C.2   172  ARG172      0.2260
     68  O         42.8990  -23.2430    5.9550 O.2   172  ARG172     -0.2867
     69  CB        40.1280  -22.9890    4.4020 C.3   172  ARG172      0.0307
     70  CG        38.7670  -22.2980    4.2910 C.3   172  ARG172      0.0489
     71  CD        37.6440  -23.1190    4.9390 C.3   172  ARG172      0.2205
     72  NE        37.6710  -24.5380    4.5640 N.pl3 172  ARG172     -0.0865
     73  CZ        37.0180  -25.5120    5.1990 C.cat 172  ARG172      0.5346
     74  NH1       37.1330  -26.7660    4.7650 N.pl3 172  ARG172      0.1354
     75  NH2       36.2620  -25.2540    6.2690 N.pl3 172  ARG172      0.1354
     76  N         43.7480  -28.4650   14.4250 N.3   186  TYR186     -0.1227
     77  CA        42.3350  -28.1570   14.2220 C.3   186  TYR186      0.1736
     78  C         41.7040  -29.2580   13.3710 C.2   186  TYR186      0.2595
     79  O         41.9960  -29.3940   12.1730 O.2   186  TYR186     -0.2718
     80  CB        42.1380  -26.7900   13.5630 C.3   186  TYR186      0.0548
     81  CG        40.6770  -26.4320   13.3810 C.ar  186  TYR186     -0.0200
     82  CD1       39.9440  -25.8570   14.4130 C.ar  186  TYR186     -0.0009
     83  CD2       40.0280  -26.6770   12.1750 C.ar  186  TYR186     -0.0009
     84  CE1       38.5990  -25.5210   14.2410 C.ar  186  TYR186      0.0417
     85  CE2       38.6880  -26.3730   12.0010 C.ar  186  TYR186      0.0417
     86  CZ        37.9800  -25.7890   13.0360 C.ar  186  TYR186      0.1957
     87  OH        36.6520  -25.4850   12.8710 O.3   186  TYR186     -0.2866
     88  N         40.8280  -30.0410   14.0010 N.am  187  LYS187     -0.1966
     89  CA        40.1430  -31.1410   13.3210 C.3   187  LYS187      0.1728
     90  C         39.1050  -30.5630   12.3640 C.2   187  LYS187      0.2616
     91  O         37.9820  -30.2380   12.7660 O.2   187  LYS187     -0.2715
     92  CB        39.5060  -32.1060   14.3290 C.3   187  LYS187      0.0311
     93  CG        38.7830  -33.2740   13.6850 C.3   187  LYS187      0.0038
     94  CD        38.3960  -34.3310   14.7070 C.3   187  LYS187      0.0206
     95  CE        37.4670  -35.3520   14.0840 C.3   187  LYS187      0.1093
     96  NZ        37.1060  -36.4110   15.0630 N.3   187  LYS187     -0.1314
     97  N         39.5050  -30.4060   11.1020 N.am  188  MET188     -0.1963
     98  CA        38.6230  -29.8700   10.0720 C.3   188  MET188      0.1736
     99  C         37.5020  -30.8600    9.7700 C.2   188  MET188      0.2617
    100  O         37.7620  -32.0300    9.4870 O.2   188  MET188     -0.2715
    101  CB        39.3990  -29.5660    8.7850 C.3   188  MET188      0.0427
    102  CG        40.2910  -28.3400    8.8650 C.3   188  MET188      0.0599
    103  SD        41.1450  -28.0290    7.3090 S.3   188  MET188     -0.1393
    104  CE        42.1860  -29.4870    7.2020 C.3   188  MET188      0.0692
    105  N         36.2560  -30.3850    9.8340 N.am  189  SER189     -0.1950
    106  CA        35.0870  -31.2100    9.5070 C.3   189  SER189      0.1924
    107  C         35.0330  -31.5180    8.0000 C.2   189  SER189      0.2314
    108  O         35.6830  -30.8310    7.2000 O.2   189  SER189     -0.2863
    109  CB        33.8050  -30.4950    9.9300 C.3   189  SER189      0.2116
    110  OG        32.6670  -31.2800    9.6360 O.3   189  SER189     -0.2180
    111  N         26.4470  -23.4170    5.3770 N.3   196  THR196     -0.1218
    112  CA        25.2560  -23.4620    6.2170 C.3   196  THR196      0.1862
    113  C         25.3240  -22.4740    7.3700 C.2   196  THR196      0.2287
    114  O         26.3680  -22.3020    7.9830 O.2   196  THR196     -0.2866
    115  CB        25.0630  -24.8790    6.7820 C.3   196  THR196      0.1770
    116  OG1       24.8640  -25.7880    5.7000 O.3   196  THR196     -0.2211
    117  CG2       23.8620  -24.9700    7.7200 C.3   196  THR196      0.0375
    118  N         22.8690  -21.6200   10.8130 N.3   198  SER198     -0.1217
    119  CA        21.7200  -22.1580   11.5200 C.3   198  SER198      0.1889
    120  C         21.4680  -21.5680   12.8950 C.2   198  SER198      0.2288
    121  O         22.3110  -20.8950   13.4770 O.2   198  SER198     -0.2866
    122  CB        21.8820  -23.6760   11.6610 C.3   198  SER198      0.2089
    123  OG        22.9070  -23.9940   12.5990 O.3   198  SER198     -0.2183
@<TRIPOS>BOND
     1    65    66    1
     2    70    69    1
     3    70    71    1
     4    69    66    1
     5    72    71    1
     6    72    73    2
     7    66    67    1
     8    74    73    1
     9    67    68    2
    10    73    75    1
    11   111   112    1
    12   116   115    1
    13   112   115    1
    14   112   113    1
    15   115   117    1
    16   108   107    2
    17   104   103    1
    18   103   102    1
    19   113   114    2
    20   107   106    1
    21    18    16    1
    22   101   102    1
    23   101    98    1
    24   100    99    2
    25   106   105    1
    26   106   109    1
    27    16    15    1
    28    16    17    1
    29   110   109    1
    30    99   105   am
    31    99    98    1
    32    98    97    1
    33    15    12    1
    34   118   119    1
    35    97    90   am
    36    13    12    1
    37    13    14    2
    38   119   122    1
    39   119   120    1
    40    12    11    1
    41    35    33   ar
    42   122   123    1
    43    11     9   am
    44    85    83   ar
    45    85    86   ar
    46    79    78    2
    47    83    81   ar
    48    90    91    2
    49    90    89    1
    50    33    32    1
    51    33    34   ar
    52    87    86    1
    53   120   121    2
    54    32    29    1
    55    86    84   ar
    56     9     8    1
    57     9    10    2
    58    89    88    1
    59    89    92    1
    60     8     7    1
    61    78    88   am
    62    78    77    1
    63    81    80    1
    64    81    82   ar
    65    80    77    1
    66    93    92    1
    67    93    94    1
    68    95    94    1
    69    95    96    1
    70    77    76    1
    71    84    82   ar
    72    29    28    1
    73    29    30    1
    74     6     5    1
    75    27    25   am
    76    31    30    2
    77     5     2    1
    78    30    36   am
    79    25    24    1
    80    25    26    2
    81    24    23    1
    82    23    20    1
    83    36    37    1
    84    21    20    1
    85    21    22    2
    86     2     3    1
    87     2     1    1
    88    20    19    1
    89     3     4    2
    90    37    40    1
    91    37    38    1
    92    43    42   ar
    93    40    41    1
    94    38    39    2
    95    42    41    1
    96    42    44   ar
    97    56    55    1
    98    64    62    1
    99    55    53   ar
   100    55    54   ar
   101    53    51   ar
   102    62    61    1
   103    63    61    1
   104    54    52   ar
   105    51    50   ar
   106    61    58    1
   107    52    50   ar
   108    50    49    1
   109    58    59    1
   110    58    57    1
   111    60    59    2
   112    45    46    1
   113    46    49    1
   114    46    47    1
   115    48    47    2
