@<TRIPOS>MOLECULE
tmp/5usfA00.pdb
 233 227 0 0 0
SMALL
GASTEIGER

@<TRIPOS>ATOM
      1  N        -37.3130  105.5330  -35.9630 N.3    38  TYR38      -0.1227
      2  CA       -36.2260  106.4410  -35.5490 C.3    38  TYR38       0.1736
      3  C        -36.2020  106.7170  -34.0440 C.2    38  TYR38       0.2595
      4  O        -37.2250  106.6330  -33.3770 O.2    38  TYR38      -0.2718
      5  CB       -36.2500  107.7550  -36.3560 C.3    38  TYR38       0.0548
      6  CG       -36.6820  109.0290  -35.6470 C.ar   38  TYR38      -0.0200
      7  CD1      -38.0240  109.3130  -35.4400 C.ar   38  TYR38      -0.0009
      8  CD2      -35.7370  109.9770  -35.2330 C.ar   38  TYR38      -0.0009
      9  CE1      -38.4150  110.4900  -34.8150 C.ar   38  TYR38       0.0417
     10  CE2      -36.1160  111.1640  -34.6130 C.ar   38  TYR38       0.0417
     11  CZ       -37.4560  111.4250  -34.4000 C.ar   38  TYR38       0.1957
     12  OH       -37.8430  112.6050  -33.7790 O.3    38  TYR38      -0.2866
     13  N        -35.0060  106.9940  -33.5350 N.am   39  ASP39      -0.1960
     14  CA       -34.7930  107.4910  -32.1890 C.3    39  ASP39       0.1840
     15  C        -33.6640  108.5040  -32.2900 C.2    39  ASP39       0.2623
     16  O        -32.8010  108.3920  -33.1650 O.2    39  ASP39      -0.2715
     17  CB       -34.4280  106.3570  -31.2150 C.3    39  ASP39       0.1450
     18  CG       -34.5920  106.7510  -29.7150 C.2    39  ASP39       0.3671
     19  OD1      -34.7050  107.9540  -29.3950 O.co2  39  ASP39      -0.2456
     20  OD2      -34.5930  105.8490  -28.8340 O.co2  39  ASP39      -0.2456
     21  N        -33.6880  109.5010  -31.4150 N.am   40  GLY40      -0.1940
     22  CA       -32.7100  110.5760  -31.4270 C.3    40  GLY40       0.2014
     23  C        -32.0070  110.6250  -30.1010 C.2    40  GLY40       0.2639
     24  O        -32.5260  110.0950  -29.1170 O.2    40  GLY40      -0.2714
     25  N        -30.8180  111.2350  -30.0830 N.am   41  PHE41      -0.1959
     26  CA       -29.9460  111.1820  -28.9130 C.3    41  PHE41       0.1771
     27  C        -29.1580  112.4560  -28.7680 C.2    41  PHE41       0.2619
     28  O        -28.5040  112.8830  -29.7030 O.2    41  PHE41      -0.2715
     29  CB       -28.9730  109.9950  -29.0230 C.3    41  PHE41       0.0574
     30  CG       -29.6520  108.6910  -29.2710 C.ar   41  PHE41      -0.0200
     31  CD1      -30.0160  108.3300  -30.5680 C.ar   41  PHE41      -0.0042
     32  CD2      -29.9930  107.8550  -28.2100 C.ar   41  PHE41      -0.0042
     33  CE1      -30.6920  107.1410  -30.8070 C.ar   41  PHE41      -0.0003
     34  CE2      -30.6610  106.6570  -28.4330 C.ar   41  PHE41      -0.0003
     35  CZ       -31.0110  106.2940  -29.7360 C.ar   41  PHE41      -0.0000
     36  N        -29.2040  113.0540  -27.5840 N.am   42  GLU42      -0.1977
     37  CA       -28.3640  114.2010  -27.2910 C.3    42  GLU42       0.1602
     38  C        -26.9920  113.6600  -26.9040 C.2    42  GLU42       0.2287
     39  O        -26.8980  112.9130  -25.9450 O.2    42  GLU42      -0.2864
     40  CB       -28.8970  114.9970  -26.1210 C.3    42  GLU42       0.0415
     41  CG       -29.9840  115.9970  -26.4320 C.3    42  GLU42       0.1163
     42  CD       -30.5190  116.6330  -25.1580 C.2    42  GLU42       0.3649
     43  OE1      -29.7780  116.6300  -24.1430 O.co2  42  GLU42      -0.2457
     44  OE2      -31.6650  117.1300  -25.1590 O.co2  42  GLU42      -0.2457
     45  N        -24.4890  113.9970  -24.7800 N.3    44  SER44      -0.1217
     46  CA       -24.1300  114.7690  -23.5870 C.3    44  SER44       0.1889
     47  C        -23.0410  114.1990  -22.6730 C.2    44  SER44       0.2288
     48  O        -22.4910  114.9230  -21.8430 O.2    44  SER44      -0.2866
     49  CB       -25.3860  115.0650  -22.7590 C.3    44  SER44       0.2089
     50  OG       -26.0180  113.8660  -22.3450 O.3    44  SER44      -0.2183
     51  N        -29.1540  102.2240  -20.9550 N.3    50  ALA50      -0.1231
     52  CA       -30.4630  102.3240  -21.6200 C.3    50  ALA50       0.1694
     53  C        -30.3640  102.7290  -23.0930 C.2    50  ALA50       0.2591
     54  O        -31.1080  102.2140  -23.9230 O.2    50  ALA50      -0.2718
     55  CB       -31.3640  103.2930  -20.8730 C.3    50  ALA50       0.0304
     56  N        -29.4570  103.6600  -23.4090 N.am   51  GLN51      -0.1979
     57  CA       -29.2570  104.0780  -24.8020 C.3    51  GLN51       0.1601
     58  C        -28.4340  103.0890  -25.6230 C.2    51  GLN51       0.2287
     59  O        -28.4570  103.1680  -26.8510 O.2    51  GLN51      -0.2864
     60  CB       -28.6210  105.4620  -24.8970 C.3    51  GLN51       0.0394
     61  CG       -29.5570  106.6130  -24.5550 C.3    51  GLN51       0.0908
     62  CD       -29.3480  107.1090  -23.1420 C.2    51  GLN51       0.2608
     63  OE1      -28.2310  107.4700  -22.7740 O.2    51  GLN51      -0.2717
     64  NE2      -30.4130  107.1500  -22.3500 N.am   51  GLN51      -0.0878
     65  N        -30.1540   98.2850  -23.9870 N.3    54  PHE54      -0.1227
     66  CA       -31.6160   98.2620  -24.0440 C.3    54  PHE54       0.1736
     67  C        -32.1180   98.7140  -25.4180 C.2    54  PHE54       0.2595
     68  O        -32.9740   98.0590  -26.0030 O.2    54  PHE54      -0.2718
     69  CB       -32.2520   99.0550  -22.8880 C.3    54  PHE54       0.0547
     70  CG       -33.7630   99.0440  -22.8870 C.ar   54  PHE54      -0.0202
     71  CD1      -34.4910   97.8860  -23.2000 C.ar   54  PHE54      -0.0042
     72  CD2      -34.4650  100.1870  -22.5590 C.ar   54  PHE54      -0.0042
     73  CE1      -35.8830   97.8760  -23.2110 C.ar   54  PHE54      -0.0003
     74  CE2      -35.8560  100.1830  -22.5680 C.ar   54  PHE54      -0.0003
     75  CZ       -36.5660   99.0270  -22.8860 C.ar   54  PHE54      -0.0000
     76  N        -31.5330   99.7820  -25.9550 N.am   55  LYS55      -0.1980
     77  CA       -31.8600  100.2690  -27.3040 C.3    55  LYS55       0.1596
     78  C        -31.6170   99.2020  -28.3660 C.2    55  LYS55       0.2287
     79  O        -32.4720   98.9520  -29.2250 O.2    55  LYS55      -0.2864
     80  CB       -31.0420  101.5200  -27.6310 C.3    55  LYS55       0.0298
     81  CG       -31.4870  102.3100  -28.8570 C.3    55  LYS55       0.0038
     82  CD       -32.8140  103.0140  -28.6290 C.3    55  LYS55       0.0206
     83  CE       -33.9220  102.4070  -29.4600 C.3    55  LYS55       0.1093
     84  NZ       -35.2340  102.8360  -28.9280 N.3    55  LYS55      -0.1314
     85  N        -30.7120  109.4090  -34.9300 N.3    72  TRP72      -0.1241
     86  CA       -30.5500  110.8420  -35.1960 C.3    72  TRP72       0.1605
     87  C        -29.6040  111.3600  -34.1260 C.2    72  TRP72       0.2264
     88  O        -29.9580  111.4620  -32.9510 O.2    72  TRP72      -0.2867
     89  CB       -31.9150  111.4840  -35.1190 C.3    72  TRP72       0.0550
     90  CG       -32.0930  112.9210  -35.4870 C.ar   72  TRP72       0.0003
     91  CD1      -32.5860  113.8980  -34.6850 C.ar   72  TRP72       0.0946
     92  CD2      -31.9140  113.5200  -36.7650 C.ar   72  TRP72       0.0152
     93  NE1      -32.6920  115.0760  -35.3580 N.ar   72  TRP72      -0.2442
     94  CE2      -32.2810  114.8760  -36.6450 C.ar   72  TRP72       0.0810
     95  CE3      -31.4550  113.0580  -37.9930 C.ar   72  TRP72       0.0012
     96  CZ2      -32.2080  115.7780  -37.7170 C.ar   72  TRP72       0.0191
     97  CZ3      -31.3780  113.9610  -39.0630 C.ar   72  TRP72       0.0001
     98  CH2      -31.7600  115.2990  -38.9140 C.ar   72  TRP72       0.0015
     99  N        -28.1580  114.0280  -32.3210 N.3    74  ALA74      -0.1245
    100  CA       -28.7950  115.3270  -32.1570 C.3    74  ALA74       0.1562
    101  C        -27.8080  116.3810  -31.6260 C.2    74  ALA74       0.2260
    102  O        -27.9760  116.9150  -30.5340 O.2    74  ALA74      -0.2867
    103  CB       -30.0080  115.1680  -31.2460 C.3    74  ALA74       0.0290
    104  N        -29.2090  119.8070  -30.8650 N.3    77  PHE77      -0.1241
    105  CA       -30.1620  119.6820  -29.7750 C.3    77  PHE77       0.1605
    106  C        -29.4590  119.6580  -28.4250 C.2    77  PHE77       0.2264
    107  O        -29.9260  120.2930  -27.4790 O.2    77  PHE77      -0.2867
    108  CB       -31.0420  118.4590  -29.9590 C.3    77  PHE77       0.0534
    109  CG       -31.9680  118.5700  -31.1310 C.ar   77  PHE77      -0.0203
    110  CD1      -31.5690  118.1810  -32.4020 C.ar   77  PHE77      -0.0042
    111  CD2      -33.2380  119.0760  -30.9690 C.ar   77  PHE77      -0.0042
    112  CE1      -32.4190  118.2930  -33.4860 C.ar   77  PHE77      -0.0003
    113  CE2      -34.1010  119.1890  -32.0450 C.ar   77  PHE77      -0.0003
    114  CZ       -33.6890  118.8050  -33.3080 C.ar   77  PHE77      -0.0000
    115  N        -39.4520  116.6760  -22.4640 N.3   150  ILE150     -0.1245
    116  CA       -38.6040  115.9740  -23.4340 C.3   150  ILE150      0.1561
    117  C        -37.1340  116.3690  -23.3020 C.2   150  ILE150      0.2260
    118  O        -36.2610  115.6400  -23.7490 O.2   150  ILE150     -0.2867
    119  CB       -39.0280  116.1470  -24.9250 C.3   150  ILE150      0.0252
    120  CG1      -38.5740  117.4900  -25.5000 C.3   150  ILE150      0.0019
    121  CG2      -40.5220  115.9110  -25.1290 C.3   150  ILE150      0.0019
    122  CD1      -39.0180  117.7040  -26.9220 C.3   150  ILE150      0.0001
    123  N        -36.0910  124.0420  -29.5510 N.3   165  TYR165     -0.1241
    124  CA       -35.7690  122.6480  -29.5790 C.3   165  TYR165      0.1605
    125  C        -36.9660  121.7530  -29.7440 C.2   165  TYR165      0.2264
    126  O        -36.9270  120.9070  -30.6010 O.2   165  TYR165     -0.2867
    127  CB       -35.0730  122.3880  -28.2600 C.3   165  TYR165      0.0534
    128  CG       -34.6410  121.0080  -27.8980 C.ar  165  TYR165     -0.0201
    129  CD1      -35.4890  119.9400  -27.9790 C.ar  165  TYR165     -0.0009
    130  CD2      -33.4110  120.7960  -27.3810 C.ar  165  TYR165     -0.0009
    131  CE1      -35.0920  118.6910  -27.5960 C.ar  165  TYR165      0.0417
    132  CE2      -33.0170  119.5440  -26.9980 C.ar  165  TYR165      0.0417
    133  CZ       -33.8670  118.5030  -27.1160 C.ar  165  TYR165      0.1957
    134  OH       -33.4790  117.2750  -26.7270 O.3   165  TYR165     -0.2866
    135  N        -37.6780  119.1610  -32.9320 N.3   169  GLN169     -0.1245
    136  CA       -37.8420  117.7290  -32.8020 C.3   169  GLN169      0.1566
    137  C        -39.0800  117.2870  -33.5130 C.2   169  GLN169      0.2260
    138  O        -39.1540  116.2280  -34.0570 O.2   169  GLN169     -0.2867
    139  CB       -37.8760  117.2810  -31.3570 C.3   169  GLN169      0.0367
    140  CG       -38.2470  115.8280  -31.2100 C.3   169  GLN169      0.0905
    141  CD       -37.8540  115.2320  -29.8980 C.2   169  GLN169      0.2608
    142  OE1      -37.0390  115.7530  -29.2100 O.2   169  GLN169     -0.2717
    143  NE2      -38.4290  114.1260  -29.5670 N.am  169  GLN169     -0.0878
    144  N        -38.4290  117.4330  -37.4440 N.3   172  ASP172     -0.1239
    145  CA       -37.8450  116.1380  -37.6310 C.3   172  ASP172      0.1674
    146  C        -38.8780  115.0610  -37.8360 C.2   172  ASP172      0.2266
    147  O        -38.6500  114.1230  -38.5360 O.2   172  ASP172     -0.2867
    148  CB       -37.0550  115.7550  -36.3990 C.3   172  ASP172      0.1410
    149  CG       -35.8180  116.5330  -36.2370 C.2   172  ASP172      0.3668
    150  OD1      -35.3930  117.1780  -37.1860 O.co2 172  ASP172     -0.2456
    151  OD2      -35.2640  116.5200  -35.1630 O.co2 172  ASP172     -0.2456
    152  N        -39.1280  106.2820  -29.5660 N.3   183  LEU183     -0.1231
    153  CA       -38.3670  106.9190  -28.4910 C.3   183  LEU183      0.1693
    154  C        -38.9620  106.5350  -27.1540 C.2   183  LEU183      0.2592
    155  O        -39.9670  105.8230  -27.1130 O.2   183  LEU183     -0.2718
    156  CB       -38.3970  108.4350  -28.6570 C.3   183  LEU183      0.0284
    157  CG       -37.3360  109.0150  -29.6000 C.3   183  LEU183      0.0019
    158  CD1      -37.5900  108.5540  -31.0220 C.3   183  LEU183      0.0001
    159  CD2      -37.3170  110.5270  -29.5310 C.3   183  LEU183      0.0001
    160  N        -38.3410  106.9880  -26.0660 N.am  184  GLY184     -0.1957
    161  CA       -38.8470  106.7120  -24.7140 C.3   184  GLY184      0.1869
    162  C        -40.0900  107.4950  -24.3520 C.2   184  GLY184      0.2309
    163  O        -40.3830  108.5060  -24.9760 O.2   184  GLY184     -0.2863
    164  N        -40.7740  109.5960  -22.0270 N.3   186  ASP186     -0.1225
    165  CA       -40.6010  111.0090  -21.7040 C.3   186  ASP186      0.1805
    166  C        -40.5670  111.9300  -22.9360 C.2   186  ASP186      0.2597
    167  O        -40.5020  113.1360  -22.7790 O.2   186  ASP186     -0.2718
    168  CB       -39.3960  111.2400  -20.7650 C.3   186  ASP186      0.1424
    169  CG       -38.0390  111.0650  -21.4440 C.2   186  ASP186      0.3668
    170  OD1      -37.9520  110.5980  -22.6180 O.co2 186  ASP186     -0.2456
    171  OD2      -37.0330  111.3830  -20.7630 O.co2 186  ASP186     -0.2456
    172  N        -40.5820  111.3610  -24.1470 N.am  187  GLN187     -0.1979
    173  CA       -40.6620  112.1320  -25.3800 C.3   187  GLN187      0.1601
    174  C        -42.0780  112.2430  -25.9020 C.2   187  GLN187      0.2287
    175  O        -42.2890  112.7850  -26.9710 O.2   187  GLN187     -0.2864
    176  CB       -39.8010  111.4830  -26.4790 C.3   187  GLN187      0.0394
    177  CG       -38.3370  111.3130  -26.1390 C.3   187  GLN187      0.0908
    178  CD       -37.6660  112.6280  -25.8550 C.2   187  GLN187      0.2608
    179  OE1      -37.5280  113.4600  -26.7400 O.2   187  GLN187     -0.2717
    180  NE2      -37.2390  112.8190  -24.6260 N.am  187  GLN187     -0.0878
    181  N        -41.0960  103.4490  -25.8060 N.3   212  HIS212     -0.1226
    182  CA       -40.5360  102.3800  -24.9690 C.3   212  HIS212      0.1752
    183  C        -40.4010  102.7370  -23.4910 C.2   212  HIS212      0.2596
    184  O        -40.3940  103.8950  -23.1050 O.2   212  HIS212     -0.2718
    185  CB       -39.1930  101.8580  -25.5130 C.3   212  HIS212      0.0759
    186  CG       -38.0720  102.8360  -25.4380 C.ar  212  HIS212      0.0818
    187  ND1      -37.5760  103.4750  -26.5530 N.ar  212  HIS212     -0.2268
    188  CD2      -37.3110  103.2440  -24.4000 C.ar  212  HIS212      0.1154
    189  CE1      -36.5760  104.2630  -26.1930 C.ar  212  HIS212      0.1986
    190  NE2      -36.4010  104.1470  -24.8900 N.ar  212  HIS212     -0.2212
    191  N        -40.2760  101.6990  -22.6770 N.am  213  HIS213     -0.1961
    192  CA       -40.2220  101.8180  -21.2310 C.3   213  HIS213      0.1787
    193  C        -39.0230  102.6440  -20.7810 C.2   213  HIS213      0.2620
    194  O        -37.9580  102.5270  -21.3480 O.2   213  HIS213     -0.2715
    195  CB       -40.1610  100.4160  -20.6120 C.3   213  HIS213      0.0785
    196  CG       -40.0350  100.4140  -19.1200 C.ar  213  HIS213      0.0821
    197  ND1      -41.1290  100.4310  -18.2840 N.ar  213  HIS213     -0.2267
    198  CD2      -38.9460  100.3920  -18.3180 C.ar  213  HIS213      0.1154
    199  CE1      -40.7170  100.4350  -17.0280 C.ar  213  HIS213      0.1986
    200  NE2      -39.3940  100.4140  -17.0230 N.ar  213  HIS213     -0.2212
    201  N        -39.2100  103.4620  -19.7500 N.am  214  MET214     -0.1963
    202  CA       -38.1270  104.2500  -19.1860 C.3   214  MET214      0.1736
    203  C        -37.4390  103.4570  -18.1040 C.2   214  MET214      0.2616
    204  O        -38.0370  103.1700  -17.0740 O.2   214  MET214     -0.2715
    205  CB       -38.6410  105.5660  -18.5890 C.3   214  MET214      0.0427
    206  CG       -39.2480  106.5040  -19.6100 C.3   214  MET214      0.0599
    207  SD       -38.0820  107.1430  -20.8270 S.3   214  MET214     -0.1393
    208  CE       -37.0020  108.1430  -19.8000 C.3   214  MET214      0.0692
    209  N        -36.1690  103.1430  -18.3320 N.am  215  LEU215     -0.1977
    210  CA       -35.4070  102.3020  -17.4310 C.3   215  LEU215      0.1596
    211  C        -35.0570  103.0590  -16.1480 C.2   215  LEU215      0.2287
    212  O        -34.6120  104.2110  -16.1960 O.2   215  LEU215     -0.2864
    213  CB       -34.1510  101.7910  -18.1510 C.3   215  LEU215      0.0297
    214  CG       -33.2670  100.7870  -17.4160 C.3   215  LEU215      0.0022
    215  CD1      -34.0100   99.4770  -17.2230 C.3   215  LEU215      0.0001
    216  CD2      -31.9700  100.5640  -18.1790 C.3   215  LEU215      0.0001
    217  N        -35.6200  107.3650  -12.5390 N.3   224  LYS224     -0.1231
    218  CA       -34.9670  107.4440  -13.8590 C.3   224  LYS224      0.1693
    219  C        -33.4700  107.7930  -13.7130 C.2   224  LYS224      0.2591
    220  O        -33.0720  108.5300  -12.8010 O.2   224  LYS224     -0.2718
    221  CB       -35.6970  108.4370  -14.7760 C.3   224  LYS224      0.0285
    222  CG       -35.6840  109.8520  -14.3150 C.3   224  LYS224      0.0035
    223  CD       -36.1910  110.7640  -15.4360 C.3   224  LYS224      0.0206
    224  CE       -36.3520  112.1360  -14.8390 C.3   224  LYS224      0.1093
    225  NZ       -36.6540  113.0730  -15.9480 N.3   224  LYS224     -0.1314
    226  N        -32.6520  107.2310  -14.6040 N.am  225  MET225     -0.1979
    227  CA       -31.1800  107.3840  -14.5540 C.3   225  MET225      0.1605
    228  C        -30.7270  108.7960  -14.9740 C.2   225  MET225      0.2287
    229  O        -30.9460  109.2150  -16.1120 O.2   225  MET225     -0.2864
    230  CB       -30.4680  106.2770  -15.3610 C.3   225  MET225      0.0413
    231  CG       -31.0000  105.9760  -16.7640 C.3   225  MET225      0.0598
    232  SD       -29.9510  104.8650  -17.7380 S.3   225  MET225     -0.1393
    233  CE       -29.8600  103.4500  -16.6510 C.3   225  MET225      0.0692
@<TRIPOS>BOND
     1    97    98   ar
     2    97    95   ar
     3    98    96   ar
     4   147   146    2
     5    95    92   ar
     6   146   145    1
     7    96    94   ar
     8   145   144    1
     9   145   148    1
    10   150   149   ar
    11    92    94   ar
    12    92    90   ar
    13    94    93   ar
    14   148   149    1
    15     5     6    1
    16     5     2    1
    17   149   151   ar
    18     1     2    1
    19     6     7   ar
    20     6     8   ar
    21     2     3    1
    22    90    89    1
    23    90    91   ar
    24     7     9   ar
    25    93    91   ar
    26     8    10   ar
    27    86    89    1
    28    86    85    1
    29    86    87    1
    30     9    11   ar
    31    10    11   ar
    32    11    12    1
    33    87    88    2
    34   138   137    2
    35     3    13   am
    36     3     4    2
    37    13    14    1
    38   137   136    1
    39   112   114   ar
    40   112   110   ar
    41   114   113   ar
    42    16    15    2
    43   135   136    1
    44   136   139    1
    45   110   109   ar
    46    99   100    1
    47    15    14    1
    48    15    21   am
    49    14    17    1
    50   100   101    1
    51   100   103    1
    52   113   111   ar
    53   101   102    2
    54    22    21    1
    55    22    23    1
    56   139   140    1
    57    17    18    1
    58   140   141    1
    59   109   111   ar
    60   109   108    1
    61   158   157    1
    62   104   105    1
    63    33    31   ar
    64    33    35   ar
    65   126   125    2
    66    31    30   ar
    67    23    25   am
    68    23    24    2
    69    25    26    1
    70   108   105    1
    71   141   143   am
    72   141   142    2
    73   105   106    1
    74   125   124    1
    75    35    34   ar
    76    18    19   ar
    77    18    20   ar
    78    28    27    2
    79   157   159    1
    80   157   156    1
    81   124   123    1
    82   124   127    1
    83   152   153    1
    84    83    84    1
    85    83    82    1
    86    30    29    1
    87    30    32   ar
    88    79    78    2
    89    29    26    1
    90    26    27    1
    91    81    82    1
    92    81    80    1
    93    27    36   am
    94   156   153    1
    95   153   154    1
    96    34    32   ar
    97   106   107    2
    98    78    77    1
    99   127   128    1
   100   129   128   ar
   101   129   131   ar
   102   128   130   ar
   103    80    77    1
   104   131   133   ar
   105    36    37    1
   106   130   132   ar
   107    77    76    1
   108    37    38    1
   109    37    40    1
   110   154   155    2
   111   154   160   am
   112   133   132   ar
   113   133   134    1
   114   175   174    2
   115   122   120    1
   116    38    39    2
   117    59    58    2
   118   179   178    2
   119   187   189   ar
   120   187   186   ar
   121   176   177    1
   122   176   173    1
   123    41    40    1
   124    41    42    1
   125   189   190   ar
   126   177   178    1
   127   160   161    1
   128    68    67    2
   129    76    67   am
   130   174   173    1
   131   178   180   am
   132   181   182    1
   133    58    57    1
   134   185   186    1
   135   185   182    1
   136   120   119    1
   137   186   188   ar
   138    67    66    1
   139   173   172    1
   140    44    42   ar
   141    42    43   ar
   142   121   119    1
   143   163   162    2
   144   182   183    1
   145   119   116    1
   146    60    57    1
   147    60    61    1
   148   190   188   ar
   149    57    56    1
   150    45    46    1
   151   161   162    1
   152    61    62    1
   153   172   166   am
   154    66    65    1
   155    66    69    1
   156    54    53    2
   157   118   117    2
   158    46    49    1
   159    46    47    1
   160   183   184    2
   161   183   191   am
   162   116   117    1
   163   116   115    1
   164    56    53   am
   165    73    71   ar
   166    73    75   ar
   167    71    70   ar
   168    62    63    2
   169    62    64   am
   170    53    52    1
   171   166   167    2
   172   166   165    1
   173    69    70    1
   174    70    72   ar
   175    75    74   ar
   176    49    50    1
   177   191   192    1
   178    47    48    2
   179   170   169   ar
   180    74    72   ar
   181   164   165    1
   182   165   168    1
   183    52    51    1
   184    52    55    1
   185   169   168    1
   186   169   171   ar
   187   194   193    2
   188   192   193    1
   189   192   195    1
   190   207   208    1
   191   207   206    1
   192   193   201   am
   193   195   196    1
   194   201   202    1
   195   206   205    1
   196   202   205    1
   197   202   203    1
   198   196   198   ar
   199   196   197   ar
   200   209   203   am
   201   209   210    1
   202   198   200   ar
   203   197   199   ar
   204   216   214    1
   205   213   210    1
   206   213   214    1
   207   203   204    2
   208   232   231    1
   209   232   233    1
   210   210   211    1
   211   214   215    1
   212   199   200   ar
   213   231   230    1
   214   212   211    2
   215   229   228    2
   216   225   224    1
   217   223   224    1
   218   223   222    1
   219   230   227    1
   220   228   227    1
   221   221   222    1
   222   221   218    1
   223   226   227    1
   224   226   219   am
   225   218   219    1
   226   218   217    1
   227   219   220    2
