@<TRIPOS>MOLECULE
tmp/5usqA00.pdb
 184 175 0 0 0
SMALL
GASTEIGER

@<TRIPOS>ATOM
      1  N         24.3760   65.5010    4.0130 N.3    12  ILE12      -0.1245
      2  CA        24.1800   66.8220    4.6070 C.3    12  ILE12       0.1561
      3  C         24.4590   66.7620    6.1040 C.2    12  ILE12       0.2260
      4  O         25.2500   67.5550    6.6150 O.2    12  ILE12      -0.2867
      5  CB        22.7480   67.3430    4.3920 C.3    12  ILE12       0.0252
      6  CG1       22.3810   67.3720    2.8990 C.3    12  ILE12       0.0019
      7  CG2       22.5830   68.7060    5.0420 C.3    12  ILE12       0.0019
      8  CD1       23.3560   68.1180    2.0270 C.3    12  ILE12       0.0001
      9  N         20.1740   63.4220    6.8460 N.3    20  VAL20      -0.1245
     10  CA        19.7660   64.1790    5.6550 C.3    20  VAL20       0.1561
     11  C         20.7940   64.0500    4.5360 C.2    20  VAL20       0.2260
     12  O         22.0010   64.1170    4.7740 O.2    20  VAL20      -0.2867
     13  CB        19.5000   65.6650    5.9660 C.3    20  VAL20       0.0252
     14  CG1       18.9260   66.3830    4.7470 C.3    20  VAL20       0.0019
     15  CG2       18.5230   65.7950    7.1240 C.3    20  VAL20       0.0019
     16  N         15.9790   66.9070   -1.1830 N.3    31  ALA31      -0.1231
     17  CA        16.5300   66.5510    0.1180 C.3    31  ALA31       0.1694
     18  C         15.8350   65.2820    0.5630 C.2    31  ALA31       0.2592
     19  O         14.6410   65.1190    0.3460 O.2    31  ALA31      -0.2718
     20  CB        16.3280   67.6690    1.1260 C.3    31  ALA31       0.0304
     21  N         16.5980   64.3780    1.1630 N.am   32  VAL32      -0.1966
     22  CA        16.0900   63.0800    1.5840 C.3    32  VAL32       0.1727
     23  C         16.4880   62.8750    3.0350 C.2    32  VAL32       0.2616
     24  O         17.6590   63.0140    3.3720 O.2    32  VAL32      -0.2715
     25  CB        16.6600   61.9400    0.7160 C.3    32  VAL32       0.0290
     26  CG1       16.1210   60.5970    1.1830 C.3    32  VAL32       0.0023
     27  CG2       16.3330   62.1690   -0.7510 C.3    32  VAL32       0.0023
     28  N         15.5100   62.5490    3.8770 N.am   33  LYS33      -0.1977
     29  CA        15.7410   62.2580    5.2850 C.3    33  LYS33       0.1596
     30  C         15.5030   60.7750    5.4900 C.2    33  LYS33       0.2287
     31  O         14.4410   60.2680    5.1550 O.2    33  LYS33      -0.2864
     32  CB        14.7920   63.0750    6.1520 C.3    33  LYS33       0.0298
     33  CG        15.2390   63.3340    7.5850 C.3    33  LYS33       0.0038
     34  CD        14.2690   64.3330    8.2190 C.3    33  LYS33       0.0206
     35  CE        14.8160   65.0740    9.4300 C.3    33  LYS33       0.1093
     36  NZ        14.3410   64.4810   10.7130 N.3    33  LYS33      -0.1314
     37  N          6.4840   62.7120   11.6780 N.3    46  GLU46      -0.1245
     38  CA         6.9600   63.7660   10.7780 C.3    46  GLU46       0.1567
     39  C          6.2300   63.7140    9.4240 C.2    46  GLU46       0.2260
     40  O          5.8210   64.7410    8.8950 O.2    46  GLU46      -0.2867
     41  CB         8.4870   63.6870   10.6210 C.3    46  GLU46       0.0388
     42  CG         9.1190   64.9630   10.0870 C.3    46  GLU46       0.1160
     43  CD        10.5860   65.1600   10.4750 C.2    46  GLU46       0.3649
     44  OE1       11.1860   64.3020   11.1550 O.co2  46  GLU46      -0.2457
     45  OE2       11.1560   66.2020   10.0950 O.co2  46  GLU46      -0.2457
     46  N          3.6810   66.7630    7.7770 N.3    50  TYR50      -0.1241
     47  CA         3.9050   67.2960    6.4260 C.3    50  TYR50       0.1605
     48  C          2.8260   66.9410    5.4010 C.2    50  TYR50       0.2264
     49  O          2.7830   67.5330    4.3230 O.2    50  TYR50      -0.2867
     50  CB         5.2610   66.8360    5.8940 C.3    50  TYR50       0.0534
     51  CG         6.4390   67.6210    6.4080 C.ar   50  TYR50      -0.0201
     52  CD1        6.7760   68.8380    5.8310 C.ar   50  TYR50      -0.0009
     53  CD2        7.2350   67.1400    7.4460 C.ar   50  TYR50      -0.0009
     54  CE1        7.8670   69.5650    6.2750 C.ar   50  TYR50       0.0417
     55  CE2        8.3320   67.8520    7.9020 C.ar   50  TYR50       0.0417
     56  CZ         8.6480   69.0630    7.3060 C.ar   50  TYR50       0.1957
     57  OH         9.7380   69.7910    7.7280 O.3    50  TYR50      -0.2866
     58  N          8.6530   74.5610    3.9990 N.3    61  LEU61      -0.1245
     59  CA         9.4160   73.6170    3.1790 C.3    61  LEU61       0.1561
     60  C          8.4830   72.6960    2.3930 C.2    61  LEU61       0.2260
     61  O          7.5310   72.1500    2.9430 O.2    61  LEU61      -0.2867
     62  CB        10.3710   72.7850    4.0380 C.3    61  LEU61       0.0270
     63  CG        11.2400   71.7660    3.2870 C.3    61  LEU61       0.0019
     64  CD1       12.1990   72.4770    2.3440 C.3    61  LEU61       0.0001
     65  CD2       11.9890   70.8730    4.2630 C.3    61  LEU61       0.0001
     66  N          7.1660   69.6230    0.8680 N.3    63  PHE63      -0.1241
     67  CA         7.2010   68.1730    1.0700 C.3    63  PHE63       0.1605
     68  C          6.8340   67.4720   -0.2380 C.2    63  PHE63       0.2264
     69  O          5.8940   67.8910   -0.9150 O.2    63  PHE63      -0.2867
     70  CB         6.2120   67.7880    2.1790 C.3    63  PHE63       0.0534
     71  CG         5.9880   66.3160    2.3170 C.ar   63  PHE63      -0.0203
     72  CD1        6.9090   65.5240    3.0000 C.ar   63  PHE63      -0.0042
     73  CD2        4.8590   65.7220    1.7810 C.ar   63  PHE63      -0.0042
     74  CE1        6.7110   64.1630    3.1360 C.ar   63  PHE63      -0.0003
     75  CE2        4.6520   64.3560    1.9150 C.ar   63  PHE63      -0.0003
     76  CZ         5.5750   63.5750    2.5980 C.ar   63  PHE63      -0.0000
     77  N         11.8660   60.2040    3.9100 N.3    79  LEU79      -0.1231
     78  CA        11.0870   61.4060    3.6600 C.3    79  LEU79       0.1693
     79  C         11.8330   62.1890    2.5980 C.2    79  LEU79       0.2592
     80  O         13.0580   62.2260    2.6200 O.2    79  LEU79      -0.2718
     81  CB        10.9650   62.2510    4.9210 C.3    79  LEU79       0.0284
     82  CG        10.1200   61.7220    6.0690 C.3    79  LEU79       0.0019
     83  CD1       10.1990   62.6850    7.2430 C.3    79  LEU79       0.0001
     84  CD2        8.6820   61.5500    5.6420 C.3    79  LEU79       0.0001
     85  N         11.0990   62.8190    1.6840 N.am   80  VAL80      -0.1966
     86  CA        11.6870   63.5460    0.5560 C.3    80  VAL80       0.1727
     87  C         11.0840   64.9490    0.4850 C.2    80  VAL80       0.2617
     88  O          9.8640   65.1100    0.6580 O.2    80  VAL80      -0.2715
     89  CB        11.4440   62.8000   -0.7770 C.3    80  VAL80       0.0290
     90  CG1       12.2010   63.4560   -1.9300 C.3    80  VAL80       0.0023
     91  CG2       11.8450   61.3360   -0.6560 C.3    80  VAL80       0.0023
     92  N         11.9330   65.9520    0.2300 N.am   81  SER81      -0.1936
     93  CA        11.4910   67.3520    0.1110 C.3    81  SER81       0.2055
     94  C         12.3140   68.1510   -0.9030 C.2    81  SER81       0.2643
     95  O         13.2540   67.6280   -1.5170 O.2    81  SER81      -0.2714
     96  CB        11.5760   68.0480    1.4670 C.3    81  SER81       0.2130
     97  OG        12.8770   68.5590    1.7000 O.3    81  SER81      -0.2179
     98  N         11.9550   69.4270   -1.0570 N.am   82  ASP82      -0.1957
     99  CA        12.7020   70.3520   -1.9040 C.3    82  ASP82       0.1840
    100  C         14.1030   70.5500   -1.3340 C.2    82  ASP82       0.2622
    101  O         14.2880   70.5400   -0.1100 O.2    82  ASP82      -0.2715
    102  CB        12.0000   71.7200   -1.9960 C.3    82  ASP82       0.1450
    103  CG        10.6360   71.6520   -2.6750 C.2    82  ASP82       0.3671
    104  OD1       10.2950   70.6130   -3.2860 O.co2  82  ASP82      -0.2456
    105  OD2        9.8900   72.6490   -2.5950 O.co2  82  ASP82      -0.2456
    106  N         15.0770   70.7020   -2.2340 N.am   83  TYR83      -0.1960
    107  CA        16.4280   71.0810   -1.8610 C.3    83  TYR83       0.1771
    108  C         16.5900   72.5930   -1.9970 C.2    83  TYR83       0.2620
    109  O         16.1350   73.1780   -2.9770 O.2    83  TYR83      -0.2715
    110  CB        17.4480   70.3740   -2.7430 C.3    83  TYR83       0.0574
    111  CG        18.8720   70.7050   -2.3820 C.ar   83  TYR83      -0.0198
    112  CD1       19.3950   70.3510   -1.1380 C.ar   83  TYR83      -0.0009
    113  CD2       19.7010   71.3780   -3.2780 C.ar   83  TYR83      -0.0009
    114  CE1       20.7080   70.6540   -0.8000 C.ar   83  TYR83       0.0417
    115  CE2       21.0120   71.6830   -2.9510 C.ar   83  TYR83       0.0417
    116  CZ        21.5100   71.3280   -1.7120 C.ar   83  TYR83       0.1957
    117  OH        22.8080   71.6390   -1.3960 O.3    83  TYR83      -0.2866
    118  N         17.2490   73.2080   -1.0110 N.am   84  HIS84      -0.1959
    119  CA        17.5310   74.6480   -1.0020 C.3    84  HIS84       0.1787
    120  C         19.0230   74.9080   -0.8250 C.2    84  HIS84       0.2620
    121  O         19.5790   74.7570    0.2670 O.2    84  HIS84      -0.2715
    122  CB        16.7020   75.3490    0.0680 C.3    84  HIS84       0.0785
    123  CG        15.2560   75.4240   -0.2830 C.ar   84  HIS84       0.0821
    124  ND1       14.8030   76.1020   -1.3950 N.ar   84  HIS84      -0.2267
    125  CD2       14.1630   74.8740    0.2950 C.ar   84  HIS84       0.1154
    126  CE1       13.4900   75.9780   -1.4810 C.ar   84  HIS84       0.1986
    127  NE2       13.0780   75.2390   -0.4660 N.ar   84  HIS84      -0.2212
    128  N         19.6280   75.3400   -1.9280 N.am   85  GLU85      -0.1977
    129  CA        21.0820   75.4530   -2.1190 C.3    85  GLU85       0.1602
    130  C         21.8120   76.3580   -1.1100 C.2    85  GLU85       0.2287
    131  O         22.9610   76.1030   -0.7780 O.2    85  GLU85      -0.2864
    132  CB        21.3120   75.9550   -3.5460 C.3    85  GLU85       0.0415
    133  CG        22.7170   75.8520   -4.1080 C.3    85  GLU85       0.1163
    134  CD        22.8000   76.3760   -5.5470 C.2    85  GLU85       0.3649
    135  OE1       21.7420   76.6370   -6.1790 O.co2  85  GLU85      -0.2457
    136  OE2       23.9330   76.5390   -6.0530 O.co2  85  GLU85      -0.2457
    137  N         20.9970   76.6040    2.0570 N.3    87  GLY87      -0.1210
    138  CA        20.9530   75.9730    3.3730 C.3    87  GLY87       0.1956
    139  C         20.1620   76.7910    4.3820 C.2    87  GLY87       0.2612
    140  O         19.2490   77.5300    4.0190 O.2    87  GLY87      -0.2717
    141  N         20.5290   76.6740    5.6520 N.am   88  SER88      -0.1952
    142  CA        19.7590   77.2660    6.7320 C.3    88  SER88       0.1924
    143  C         19.9790   78.7680    6.7930 C.2    88  SER88       0.2314
    144  O         20.9830   79.2760    6.3000 O.2    88  SER88      -0.2863
    145  CB        20.1310   76.6310    8.0730 C.3    88  SER88       0.2116
    146  OG        21.4700   76.9130    8.4110 O.3    88  SER88      -0.2180
    147  N         23.2530   79.2600    8.4340 N.3    91  ASP91      -0.1239
    148  CA        24.3630   79.2490    7.4730 C.3    91  ASP91       0.1674
    149  C         24.4600   80.5760    6.7430 C.2    91  ASP91       0.2266
    150  O         25.5450   81.1570    6.6480 O.2    91  ASP91      -0.2867
    151  CB        24.1960   78.1290    6.4440 C.3    91  ASP91       0.1410
    152  CG        24.4000   76.7510    7.0380 C.2    91  ASP91       0.3668
    153  OD1       24.9130   76.6510    8.1780 O.co2  91  ASP91      -0.2456
    154  OD2       24.0380   75.7640    6.3540 O.co2  91  ASP91      -0.2456
    155  N         18.5250   77.6330   12.6690 N.3   138  LYS138     -0.1245
    156  CA        18.9570   76.3660   12.0580 C.3   138  LYS138      0.1561
    157  C         17.8300   75.5140   11.4610 C.2   138  LYS138      0.2260
    158  O         18.1200   74.6050   10.6780 O.2   138  LYS138     -0.2867
    159  CB        19.7450   75.5320   13.0640 C.3   138  LYS138      0.0271
    160  CG        21.1370   76.0700   13.3110 C.3   138  LYS138      0.0035
    161  CD        21.7490   75.4410   14.5490 C.3   138  LYS138      0.0206
    162  CE        23.1320   76.0060   14.8030 C.3   138  LYS138      0.1093
    163  NZ        23.6120   75.7460   16.1870 N.3   138  LYS138     -0.1314
    164  N         15.1530   77.6440    6.3000 N.3   141  LEU141     -0.1245
    165  CA        15.9620   77.6010    5.0760 C.3   141  LEU141      0.1561
    166  C         15.7530   78.8450    4.2370 C.2   141  LEU141      0.2260
    167  O         14.6750   79.4300    4.2630 O.2   141  LEU141     -0.2867
    168  CB        15.5760   76.3950    4.2290 C.3   141  LEU141      0.0270
    169  CG        15.7730   75.0380    4.8910 C.3   141  LEU141      0.0019
    170  CD1       14.9810   73.9900    4.1420 C.3   141  LEU141      0.0001
    171  CD2       17.2420   74.6670    4.9290 C.3   141  LEU141      0.0001
    172  N         11.2650   74.8250    8.2670 N.3   151  ALA151     -0.1231
    173  CA        11.5790   73.4110    8.1290 C.3   151  ALA151      0.1694
    174  C         11.4580   72.7810    9.4990 C.2   151  ALA151      0.2592
    175  O         11.1240   73.4680   10.4560 O.2   151  ALA151     -0.2718
    176  CB        12.9950   73.2610    7.5930 C.3   151  ALA151      0.0304
    177  N         11.7420   71.4790    9.5810 N.am  152  ASP152     -0.1974
    178  CA        11.8390   70.7400   10.8530 C.3   152  ASP152      0.1709
    179  C         10.5420   70.8160   11.6380 C.2   152  ASP152      0.2293
    180  O         10.5240   71.2590   12.7830 O.2   152  ASP152     -0.2864
    181  CB        13.0320   71.2240   11.7000 C.3   152  ASP152      0.1436
    182  CG        14.3420   70.5810   11.2870 C.2   152  ASP152      0.3671
    183  OD1       14.5390   69.3840   11.6040 O.co2 152  ASP152     -0.2456
    184  OD2       15.1830   71.2760   10.6660 O.co2 152  ASP152     -0.2456
@<TRIPOS>BOND
     1   135   134   ar
     2   136   134   ar
     3   134   133    1
     4   133   132    1
     5   132   129    1
     6   104   103   ar
     7   113   115   ar
     8   113   111   ar
     9   109   108    2
    10   115   116   ar
    11   110   111    1
    12   110   107    1
    13   103   105   ar
    14   103   102    1
    15   111   112   ar
    16   106   107    1
    17   106   100   am
    18   129   128    1
    19   129   130    1
    20   108   107    1
    21   108   118   am
    22   102    99    1
    23    90    89    1
    24   128   120   am
    25    99   100    1
    26    99    98    1
    27   116   117    1
    28   116   114   ar
    29    95    94    2
    30   126   124   ar
    31   126   127   ar
    32   124   123   ar
    33   100   101    2
    34    16    17    1
    35   112   114   ar
    36   130   131    2
    37    98    94   am
    38   118   119    1
    39   119   120    1
    40   119   122    1
    41    69    68    2
    42    94    93    1
    43   120   121    2
    44    89    91    1
    45    89    86    1
    46    27    25    1
    47   127   125   ar
    48   123   122    1
    49   123   125   ar
    50    68    67    1
    51    93    92    1
    52    93    96    1
    53    17    18    1
    54    17    20    1
    55    92    87   am
    56    19    18    2
    57    87    86    1
    58    87    88    2
    59    86    85    1
    60    18    21   am
    61    25    26    1
    62    25    22    1
    63    66    67    1
    64    67    70    1
    65    21    22    1
    66    96    97    1
    67    22    23    1
    68    85    79   am
    69    73    75   ar
    70    73    71   ar
    71    75    76   ar
    72     8     6    1
    73   137   138    1
    74    70    71    1
    75    71    72   ar
    76    64    63    1
    77    60    61    2
    78    60    59    1
    79    76    74   ar
    80    79    80    2
    81    79    78    1
    82     6     5    1
    83    72    74   ar
    84    23    24    2
    85    23    28   am
    86    59    58    1
    87    59    62    1
    88    63    62    1
    89    63    65    1
    90   138   139    1
    91    78    77    1
    92    78    81    1
    93    28    29    1
    94     1     2    1
    95   140   139    2
    96   170   169    1
    97   168   169    1
    98   168   165    1
    99   166   167    2
   100   166   165    1
   101    49    48    2
   102   139   141   am
   103     5     2    1
   104     5     7    1
   105    11    12    2
   106    11    10    1
   107     2     3    1
   108    14    13    1
   109   169   171    1
   110    81    82    1
   111   165   164    1
   112    31    30    2
   113    29    30    1
   114    29    32    1
   115    48    47    1
   116    84    82    1
   117   141   142    1
   118    10    13    1
   119    10     9    1
   120    52    54   ar
   121    52    51   ar
   122    50    51    1
   123    50    47    1
   124    13    15    1
   125    82    83    1
   126     3     4    2
   127    32    33    1
   128    54    56   ar
   129   144   143    2
   130   154   152   ar
   131    51    53   ar
   132    47    46    1
   133   151   152    1
   134   151   148    1
   135   150   149    2
   136   142   143    1
   137   142   145    1
   138   149   148    1
   139   152   153   ar
   140    56    57    1
   141    56    55   ar
   142    53    55   ar
   143   148   147    1
   144    33    34    1
   145   176   173    1
   146   145   146    1
   147   173   172    1
   148   173   174    1
   149    34    35    1
   150    40    39    2
   151    39    38    1
   152    35    36    1
   153   174   177   am
   154   174   175    2
   155   177   178    1
   156    42    43    1
   157    42    41    1
   158    45    43   ar
   159    43    44   ar
   160    41    38    1
   161   184   182   ar
   162   158   157    2
   163    38    37    1
   164   178   179    1
   165   178   181    1
   166   182   183   ar
   167   182   181    1
   168   157   156    1
   169   179   180    2
   170   156   155    1
   171   156   159    1
   172   159   160    1
   173   160   161    1
   174   161   162    1
   175   162   163    1
