@<TRIPOS>MOLECULE
tmp/5usyA00.pdb
 162 155 0 0 0
SMALL
GASTEIGER

@<TRIPOS>ATOM
      1  N         -6.6090   21.8550   94.3090 N.3    15  GLN15      -0.1231
      2  CA        -7.6640   21.0320   93.7060 C.3    15  GLN15       0.1698
      3  C         -8.6210   20.5630   94.7870 C.2    15  GLN15       0.2592
      4  O         -8.1830   20.0680   95.8210 O.2    15  GLN15      -0.2718
      5  CB        -7.0870   19.8000   93.0060 C.3    15  GLN15       0.0381
      6  CG        -6.2450   20.0880   91.7850 C.3    15  GLN15       0.0905
      7  CD        -7.1160   20.5080   90.6400 C.2    15  GLN15       0.2608
      8  OE1       -8.3410   20.2840   90.6600 O.2    15  GLN15      -0.2717
      9  NE2       -6.5150   21.1410   89.6420 N.am   15  GLN15      -0.0878
     10  N         -9.9220   20.6800   94.5380 N.am   16  LEU16      -0.1966
     11  CA       -10.9220   20.3190   95.5370 C.3    16  LEU16       0.1728
     12  C        -11.6320   19.0080   95.2290 C.2    16  LEU16       0.2616
     13  O        -12.1340   18.3590   96.1420 O.2    16  LEU16      -0.2715
     14  CB       -11.9780   21.4260   95.6630 C.3    16  LEU16       0.0311
     15  CG       -11.4710   22.7710   96.1950 C.3    16  LEU16       0.0022
     16  CD1      -12.5640   23.8150   96.1670 C.3    16  LEU16       0.0001
     17  CD2      -10.8350   22.6220   97.5970 C.3    16  LEU16       0.0001
     18  N        -11.6640   18.5780   93.9820 N.am   17  GLY17      -0.1955
     19  CA       -12.4930   17.4370   93.6420 C.3    17  GLY17       0.1869
     20  C        -12.7200   17.3840   92.1490 C.2    17  GLY17       0.2309
     21  O        -12.9710   18.4210   91.5190 O.2    17  GLY17      -0.2863
     22  N        -13.5830   20.9010   90.4270 N.3    24  VAL24      -0.1245
     23  CA       -13.6170   22.1610   91.1610 C.3    24  VAL24       0.1561
     24  C        -12.2340   22.4520   91.7500 C.2    24  VAL24       0.2260
     25  O        -11.5740   21.5650   92.3180 O.2    24  VAL24      -0.2867
     26  CB       -14.6780   22.1700   92.2830 C.3    24  VAL24       0.0252
     27  CG1      -14.7890   23.5670   92.8870 C.3    24  VAL24       0.0019
     28  CG2      -16.0550   21.7120   91.7620 C.3    24  VAL24       0.0019
     29  N        -14.3000   29.3810   94.6170 N.3    41  ALA41      -0.1245
     30  CA       -14.2970   28.0470   94.0300 C.3    41  ALA41       0.1562
     31  C        -14.6420   28.1430   92.5510 C.2    41  ALA41       0.2260
     32  O        -15.5310   28.9170   92.1640 O.2    41  ALA41      -0.2867
     33  CB       -15.2910   27.1220   94.7430 C.3    41  ALA41       0.0290
     34  N        -25.3370   27.8830   98.0810 N.3    72  VAL72      -0.1245
     35  CA       -24.0090   28.3750   97.6960 C.3    72  VAL72       0.1561
     36  C        -24.1080   29.6480   96.8530 C.2    72  VAL72       0.2260
     37  O        -24.9020   29.7280   95.9120 O.2    72  VAL72      -0.2867
     38  CB       -23.2520   27.2710   96.9460 C.3    72  VAL72       0.0252
     39  CG1      -21.8600   27.7910   96.4700 C.3    72  VAL72       0.0019
     40  CG2      -23.1100   26.0650   97.8710 C.3    72  VAL72       0.0019
     41  N        -17.8460   30.5850   92.1070 N.3    90  MET90      -0.1230
     42  CA       -18.8010   30.6150   93.2080 C.3    90  MET90       0.1702
     43  C        -18.0500   30.7680   94.5200 C.2    90  MET90       0.2592
     44  O        -16.8210   30.7720   94.5510 O.2    90  MET90      -0.2718
     45  CB       -19.6710   29.3460   93.2070 C.3    90  MET90       0.0401
     46  CG       -18.9530   28.0650   93.5980 C.3    90  MET90       0.0596
     47  SD       -19.9200   26.6170   93.0720 S.3    90  MET90      -0.1393
     48  CE       -18.6200   25.6240   92.3510 C.3    90  MET90       0.0692
     49  N        -18.7840   30.8770   95.6210 N.am   91  GLU91      -0.1966
     50  CA       -18.1040   30.9990   96.8980 C.3    91  GLU91       0.1733
     51  C        -17.4540   29.6720   97.2960 C.2    91  GLU91       0.2616
     52  O        -17.9100   28.5810   96.9350 O.2    91  GLU91      -0.2715
     53  CB       -19.0550   31.4720   97.9880 C.3    91  GLU91       0.0429
     54  CG       -19.7590   30.3970   98.6460 C.3    91  GLU91       0.1163
     55  CD       -20.6710   30.8750   99.7600 C.2    91  GLU91       0.3649
     56  OE1      -21.8800   30.6540   99.6770 O.co2  91  GLU91      -0.2457
     57  OE2      -20.1850   31.4380  100.7350 O.co2  91  GLU91      -0.2457
     58  N        -16.3700   29.7870   98.0550 N.am   92  TYR92      -0.1960
     59  CA       -15.6360   28.6390   98.5780 C.3    92  TYR92       0.1771
     60  C        -16.0670   28.3540  100.0210 C.2    92  TYR92       0.2619
     61  O        -15.9230   29.2050  100.8950 O.2    92  TYR92      -0.2715
     62  CB       -14.1310   28.9080   98.5100 C.3    92  TYR92       0.0574
     63  CG       -13.3750   27.8220   99.2220 C.ar   92  TYR92      -0.0198
     64  CD1      -13.3410   26.5450   98.6900 C.ar   92  TYR92      -0.0009
     65  CD2      -12.7760   28.0530  100.4720 C.ar   92  TYR92      -0.0009
     66  CE1      -12.6860   25.5150   99.3480 C.ar   92  TYR92       0.0417
     67  CE2      -12.1270   27.0180  101.1580 C.ar   92  TYR92       0.0417
     68  CZ       -12.0880   25.7460  100.5740 C.ar   92  TYR92       0.1957
     69  OH       -11.4750   24.6870  101.1950 O.3    92  TYR92      -0.2866
     70  N        -16.5720   27.1520  100.2790 N.am   93  LEU93      -0.1964
     71  CA       -16.9940   26.8040  101.6410 C.3    93  LEU93       0.1713
     72  C        -15.9210   25.9530  102.3040 C.2    93  LEU93       0.2458
     73  O        -15.6530   24.8250  101.8480 O.2    93  LEU93      -0.2730
     74  CB       -18.3460   26.0680  101.6310 C.3    93  LEU93       0.0310
     75  CG       -19.5250   27.0200  101.3290 C.3    93  LEU93       0.0022
     76  CD1      -19.7660   27.1190   99.8390 C.3    93  LEU93       0.0001
     77  CD2      -20.8280   26.6350  102.0100 C.3    93  LEU93       0.0001
     78  N        -15.3030   26.4260  103.3730 N.am   94  PRO94      -0.2716
     79  CA       -14.0650   25.7790  103.8400 C.3    94  PRO94       0.1536
     80  C        -14.2070   24.3170  104.2640 C.2    94  PRO94       0.2599
     81  O        -13.2350   23.5700  104.1000 O.2    94  PRO94      -0.2715
     82  CB       -13.6380   26.6750  105.0180 C.3    94  PRO94       0.0310
     83  CG       -14.1600   28.0530  104.6310 C.3    94  PRO94       0.0237
     84  CD       -15.5340   27.7230  104.0330 C.3    94  PRO94       0.0939
     85  N        -15.3590   23.8680  104.7810 N.am   95  TYR95      -0.1960
     86  CA       -15.4200   22.5540  105.4270 C.3    95  TYR95       0.1771
     87  C        -15.9810   21.4810  104.5160 C.2    95  TYR95       0.2620
     88  O        -16.2770   20.3810  104.9840 O.2    95  TYR95      -0.2715
     89  CB       -16.2290   22.6140  106.7290 C.3    95  TYR95       0.0574
     90  CG       -15.4910   23.4280  107.7850 C.ar   95  TYR95      -0.0198
     91  CD1      -14.4710   22.8470  108.5680 C.ar   95  TYR95      -0.0009
     92  CD2      -15.7350   24.7810  107.9290 C.ar   95  TYR95      -0.0009
     93  CE1      -13.7620   23.6060  109.5070 C.ar   95  TYR95       0.0417
     94  CE2      -15.0230   25.5540  108.8540 C.ar   95  TYR95       0.0417
     95  CZ       -14.0460   24.9620  109.6380 C.ar   95  TYR95       0.1957
     96  OH       -13.3560   25.7330  110.5440 O.3    95  TYR95      -0.2866
     97  N        -16.1900   21.7930  103.2530 N.am   96  GLY96      -0.1940
     98  CA       -16.4600   20.7680  102.2760 C.3    96  GLY96       0.2014
     99  C        -17.8770   20.2360  102.3830 C.2    96  GLY96       0.2639
    100  O        -18.8020   20.9170  102.8670 O.2    96  GLY96      -0.2714
    101  N        -18.0610   19.0070  101.9060 N.am   97  SER97      -0.1949
    102  CA       -19.4200   18.4840  101.9010 C.3    97  SER97       0.1924
    103  C        -19.8390   18.1010  103.3040 C.2    97  SER97       0.2314
    104  O        -19.0130   17.7280  104.1610 O.2    97  SER97      -0.2863
    105  CB       -19.5550   17.2670  100.9840 C.3    97  SER97       0.2116
    106  OG       -19.0090   16.0980  101.5860 O.3    97  SER97      -0.2180
    107  N        -18.6810   14.5910  104.2210 N.3   100  ASP100     -0.1239
    108  CA       -17.3150   14.4680  104.7310 C.3   100  ASP100      0.1674
    109  C        -17.1990   15.0950  106.1100 C.2   100  ASP100      0.2266
    110  O        -16.5090   14.5610  106.9890 O.2   100  ASP100     -0.2867
    111  CB       -16.3320   15.0980  103.7620 C.3   100  ASP100      0.1410
    112  CG       -16.1970   14.2880  102.4650 C.2   100  ASP100      0.3668
    113  OD1      -16.6210   13.1050  102.4350 O.co2 100  ASP100     -0.2456
    114  OD2      -15.6650   14.8410  101.4790 O.co2 100  ASP100     -0.2456
    115  N        -15.6920   13.5440  109.4770 N.3   104  LYS104     -0.1245
    116  CA       -14.4140   14.0950  109.9420 C.3   104  LYS104      0.1561
    117  C        -14.5060   14.8120  111.2840 C.2   104  LYS104      0.2260
    118  O        -13.5050   14.8950  112.0080 O.2   104  LYS104     -0.2867
    119  CB       -13.8610   15.1130  108.9460 C.3   104  LYS104      0.0271
    120  CG       -13.3800   14.5920  107.6220 C.3   104  LYS104      0.0035
    121  CD       -12.8710   15.7710  106.8250 C.3   104  LYS104      0.0206
    122  CE       -12.7550   15.4520  105.3440 C.3   104  LYS104      0.1093
    123  NZ       -12.2650   16.6350  104.5990 N.3   104  LYS104     -0.1314
    124  N        -23.6930   14.5270  100.2690 N.3   141  ARG141     -0.1231
    125  CA       -22.5270   14.8400   99.4590 C.3   141  ARG141      0.1694
    126  C        -22.6730   16.1560   98.7050 C.2   141  ARG141      0.2592
    127  O        -21.6680   16.7010   98.2580 O.2   141  ARG141     -0.2718
    128  CB       -22.2540   13.7080   98.4630 C.3   141  ARG141      0.0321
    129  CG       -23.1660   13.7400   97.2740 C.3   141  ARG141      0.0489
    130  CD       -23.1290   12.4350   96.4990 C.3   141  ARG141      0.2205
    131  NE       -23.7530   12.5710   95.1850 N.pl3 141  ARG141     -0.0865
    132  CZ       -24.9380   12.0800   94.8040 C.cat 141  ARG141      0.5346
    133  NH1      -25.7220   11.3650   95.6160 N.pl3 141  ARG141      0.1354
    134  NH2      -25.3250   12.3050   93.5560 N.pl3 141  ARG141      0.1354
    135  N        -23.8870   16.6690   98.5280 N.am  142  ASN142     -0.1974
    136  CA       -24.0980   17.8930   97.7560 C.3   142  ASN142      0.1688
    137  C        -24.4760   19.0710   98.6220 C.2   142  ASN142      0.2292
    138  O        -24.7800   20.1480   98.0870 O.2   142  ASN142     -0.2864
    139  CB       -25.1830   17.6830   96.6890 C.3   142  ASN142      0.1181
    140  CG       -24.7750   16.6410   95.6700 C.2   142  ASN142      0.2629
    141  OD1      -23.5820   16.4000   95.4880 O.2   142  ASN142     -0.2716
    142  ND2      -25.7530   15.9790   95.0330 N.am  142  ASN142     -0.0877
    143  N        -22.9990   21.6310  101.4950 N.3   144  LEU144     -0.1245
    144  CA       -21.6770   22.1080  101.8660 C.3   144  LEU144      0.1561
    145  C        -21.7220   22.8400  103.1960 C.2   144  LEU144      0.2260
    146  O        -22.7460   23.4150  103.5840 O.2   144  LEU144     -0.2867
    147  CB       -21.0880   23.0580  100.8010 C.3   144  LEU144      0.0270
    148  CG       -21.1160   22.4880   99.3890 C.3   144  LEU144      0.0019
    149  CD1      -20.2620   23.3190   98.3890 C.3   144  LEU144      0.0001
    150  CD2      -20.6670   21.0410   99.4160 C.3   144  LEU144      0.0001
    151  N        -25.6320   22.9010   97.4210 N.3   154  GLY154     -0.1210
    152  CA       -24.8410   23.1370   96.2270 C.3   154  GLY154      0.1956
    153  C        -25.1710   22.1280   95.1440 C.2   154  GLY154      0.2611
    154  O        -26.2100   21.4380   95.2030 O.2   154  GLY154     -0.2717
    155  N        -24.2940   22.0500   94.1520 N.am  155  ASP155     -0.1973
    156  CA       -24.3860   21.1720   92.9900 C.3   155  ASP155      0.1709
    157  C        -25.7480   21.1790   92.3130 C.2   155  ASP155      0.2293
    158  O        -26.5460   20.2360   92.4590 O.2   155  ASP155     -0.2864
    159  CB       -24.0410   19.7230   93.3220 C.3   155  ASP155      0.1436
    160  CG       -24.1100   18.8350   92.0650 C.2   155  ASP155      0.3671
    161  OD1      -23.6580   19.3250   90.9950 O.co2 155  ASP155     -0.2456
    162  OD2      -24.6610   17.7050   92.1410 O.co2 155  ASP155     -0.2456
@<TRIPOS>BOND
     1     9     7   am
     2    22    23    1
     3     7     8    2
     4     7     6    1
     5   161   160   ar
     6    23    24    1
     7    23    26    1
     8    21    20    2
     9    24    25    2
    10    28    26    1
    11     6     5    1
    12   160   162   ar
    13   160   159    1
    14    41    42    1
    15    20    19    1
    16    32    31    2
    17    26    27    1
    18   157   158    2
    19   157   156    1
    20    48    47    1
    21    31    30    1
    22   156   159    1
    23   156   155    1
    24     5     2    1
    25    47    46    1
    26    45    42    1
    27    45    46    1
    28    42    43    1
    29   134   132    1
    30    19    18    1
    31     2     1    1
    32     2     3    1
    33    18    12   am
    34    30    29    1
    35    30    33    1
    36   155   153   am
    37    43    44    2
    38    43    49   am
    39    10     3   am
    40    10    11    1
    41     3     4    2
    42   132   131    2
    43   132   133    1
    44   142   140   am
    45   153   154    2
    46   153   152    1
    47   131   130    1
    48    12    11    1
    49    12    13    2
    50   141   140    2
    51    11    14    1
    52    49    50    1
    53    14    15    1
    54   140   139    1
    55    37    36    2
    56    16    15    1
    57    15    17    1
    58   152   151    1
    59    39    38    1
    60   130   129    1
    61   139   136    1
    62    36    35    1
    63    50    51    1
    64    50    53    1
    65    52    51    2
    66    38    35    1
    67    38    40    1
    68   129   128    1
    69    51    58   am
    70    35    34    1
    71   136   135    1
    72   136   137    1
    73    53    54    1
    74    58    59    1
    75   138   137    2
    76   127   126    2
    77   149   148    1
    78   128   125    1
    79    62    59    1
    80    62    63    1
    81   135   126   am
    82    59    60    1
    83    54    55    1
    84    64    63   ar
    85    64    66   ar
    86   126   125    1
    87    63    65   ar
    88    66    68   ar
    89   148   150    1
    90   148   147    1
    91   125   124    1
    92    56    55   ar
    93    55    57   ar
    94    76    75    1
    95    60    70   am
    96    60    61    2
    97    70    71    1
    98    65    67   ar
    99    68    67   ar
   100    68    69    1
   101   147   144    1
   102   105   106    1
   103   105   102    1
   104    75    74    1
   105    75    77    1
   106   114   112   ar
   107   143   144    1
   108    74    71    1
   109    71    72    1
   110    73    72    2
   111   144   145    1
   112   102   101    1
   113   102   103    1
   114   101    99   am
   115    98    99    1
   116    98    97    1
   117    72    78   am
   118    99   100    2
   119   113   112   ar
   120   112   111    1
   121   145   146    2
   122    97    87   am
   123   103   104    2
   124    78    79    1
   125    78    84    1
   126   111   108    1
   127    79    80    1
   128    79    82    1
   129    84    83    1
   130    81    80    2
   131   107   108    1
   132    80    85   am
   133    87    88    2
   134    87    86    1
   135   123   122    1
   136    83    82    1
   137   108   109    1
   138    85    86    1
   139   122   121    1
   140    86    89    1
   141   109   110    2
   142    89    90    1
   143   121   120    1
   144   120   119    1
   145    90    92   ar
   146    90    91   ar
   147    92    94   ar
   148    91    93   ar
   149    94    95   ar
   150   119   116    1
   151   115   116    1
   152    93    95   ar
   153    95    96    1
   154   116   117    1
   155   117   118    2
