@<TRIPOS>MOLECULE
tmp/5ut0A00.pdb
 169 162 0 0 0
SMALL
GASTEIGER

@<TRIPOS>ATOM
      1  N        -10.6430   14.4180   27.5160 N.3    15  LEU15      -0.1231
      2  CA       -11.0560   13.7560   26.2880 C.3    15  LEU15       0.1693
      3  C        -10.5370   12.3290   26.1690 C.2    15  LEU15       0.2593
      4  O        -11.0230   11.5810   25.3130 O.2    15  LEU15      -0.2718
      5  CB       -10.5810   14.5630   25.0710 C.3    15  LEU15       0.0284
      6  CG       -11.1720   15.9690   24.9480 C.3    15  LEU15       0.0019
      7  CD1      -10.5860   16.6940   23.7490 C.3    15  LEU15       0.0001
      8  CD2      -12.6850   15.8840   24.8400 C.3    15  LEU15       0.0001
      9  N         -9.5730   11.9390   26.9890 N.am   16  GLY16      -0.1942
     10  CA        -9.0450   10.5920   26.9530 C.3    16  GLY16       0.2014
     11  C         -7.6170   10.5590   27.4600 C.2    16  GLY16       0.2638
     12  O         -7.1550   11.4920   28.1140 O.2    16  GLY16      -0.2714
     13  N         -6.9380    9.4560   27.1430 N.am   17  GLN17      -0.1977
     14  CA        -5.5670    9.2130   27.5640 C.3    17  GLN17       0.1601
     15  C         -4.7520    8.6700   26.4000 C.2    17  GLN17       0.2287
     16  O         -5.2850    8.0970   25.4480 O.2    17  GLN17      -0.2864
     17  CB        -5.4870    8.2070   28.7190 C.3    17  GLN17       0.0394
     18  CG        -6.2270    8.5900   29.9760 C.3    17  GLN17       0.0908
     19  CD        -6.1450    7.4990   31.0190 C.2    17  GLN17       0.2608
     20  OE1       -5.6690    6.3980   30.7400 O.2    17  GLN17      -0.2717
     21  NE2       -6.6030    7.7970   32.2290 N.am   17  GLN17      -0.0878
     22  N         -5.3510   13.7480   27.9110 N.3    23  ILE23      -0.1245
     23  CA        -5.8270   14.6330   26.8540 C.3    23  ILE23       0.1561
     24  C         -7.0040   15.4370   27.3810 C.2    23  ILE23       0.2260
     25  O         -7.8850   14.8890   28.0480 O.2    23  ILE23      -0.2867
     26  CB        -6.2460   13.8450   25.5970 C.3    23  ILE23       0.0252
     27  CG1       -5.2480   12.7280   25.2910 C.3    23  ILE23       0.0019
     28  CG2       -6.3910   14.7820   24.4190 C.3    23  ILE23       0.0019
     29  CD1       -3.8720   13.2210   24.9930 C.3    23  ILE23       0.0001
     30  N         -6.6170   21.5030   21.6900 N.3    43  LEU43      -0.1245
     31  CA        -6.3210   20.1960   22.2550 C.3    43  LEU43       0.1561
     32  C         -5.0980   20.3410   23.1490 C.2    43  LEU43       0.2260
     33  O         -4.0400   20.7860   22.6890 O.2    43  LEU43      -0.2867
     34  CB        -6.0610   19.1850   21.1400 C.3    43  LEU43       0.0270
     35  CG        -6.0610   17.6830   21.4370 C.3    43  LEU43       0.0019
     36  CD1       -4.8370   17.2420   22.2300 C.3    43  LEU43       0.0001
     37  CD2       -7.3500   17.2980   22.1450 C.3    43  LEU43       0.0001
     38  N         -2.4980   18.2660   25.3880 N.3    45  LYS45      -0.1245
     39  CA        -1.9610   16.9330   25.6360 C.3    45  LYS45       0.1561
     40  C         -0.8600   17.0580   26.6820 C.2    45  LYS45       0.2260
     41  O          0.1560   17.7130   26.4430 O.2    45  LYS45      -0.2867
     42  CB        -1.4490   16.3140   24.3370 C.3    45  LYS45       0.0271
     43  CG        -0.7920   14.9610   24.5030 C.3    45  LYS45       0.0035
     44  CD        -0.9850   14.1110   23.2550 C.3    45  LYS45       0.0206
     45  CE        -0.5770   14.8490   21.9970 C.3    45  LYS45       0.1093
     46  NZ        -0.9940   14.0920   20.7820 N.3    45  LYS45      -0.1314
     47  N         -2.1940   16.8660   11.5380 N.3    74  VAL74      -0.1245
     48  CA        -2.7040   17.7160   12.6090 C.3    74  VAL74       0.1561
     49  C         -1.8300   18.9620   12.7570 C.2    74  VAL74       0.2260
     50  O         -0.6080   18.9260   12.5600 O.2    74  VAL74      -0.2867
     51  CB        -2.7760   16.9330   13.9350 C.3    74  VAL74       0.0252
     52  CG1       -1.3790   16.5860   14.4390 C.3    74  VAL74       0.0019
     53  CG2       -3.5360   17.7160   14.9970 C.3    74  VAL74       0.0019
     54  N         -2.3570   21.6290   20.4600 N.3    90  GLN90      -0.1231
     55  CA        -2.6800   21.2220   19.0980 C.3    90  GLN90       0.1698
     56  C         -4.0960   21.6710   18.7350 C.2    90  GLN90       0.2592
     57  O         -4.8560   22.1580   19.5760 O.2    90  GLN90      -0.2718
     58  CB        -2.5350   19.7040   18.9480 C.3    90  GLN90       0.0381
     59  CG        -1.1830   19.1770   19.3910 C.3    90  GLN90       0.0905
     60  CD        -1.0450   17.6730   19.2050 C.2    90  GLN90       0.2608
     61  OE1       -1.9540   16.9060   19.5280 O.2    90  GLN90      -0.2717
     62  NE2        0.1000   17.2470   18.6780 N.am   90  GLN90      -0.0878
     63  N         -4.4580   21.5010   17.4660 N.am   91  GLU91      -0.1966
     64  CA        -5.7990   21.8780   17.0400 C.3    91  GLU91       0.1733
     65  C         -6.8270   20.9300   17.6410 C.2    91  GLU91       0.2616
     66  O         -6.5840   19.7300   17.7910 O.2    91  GLU91      -0.2715
     67  CB        -5.9110   21.8820   15.5130 C.3    91  GLU91       0.0429
     68  CG        -5.9360   20.5130   14.8630 C.3    91  GLU91       0.1163
     69  CD        -6.1150   20.5870   13.3540 C.2    91  GLU91       0.3649
     70  OE1       -7.1960   21.0050   12.8890 O.co2  91  GLU91      -0.2457
     71  OE2       -5.1650   20.2290   12.6260 O.co2  91  GLU91      -0.2457
     72  N         -7.9770   21.4780   18.0070 N.am   92  PHE92      -0.1960
     73  CA        -9.0740   20.6690   18.5090 C.3    92  PHE92       0.1771
     74  C         -9.9000   20.1910   17.3230 C.2    92  PHE92       0.2619
     75  O        -10.3340   20.9980   16.4970 O.2    92  PHE92      -0.2715
     76  CB        -9.9300   21.4630   19.4920 C.3    92  PHE92       0.0574
     77  CG       -11.1590   20.7380   19.9390 C.ar   92  PHE92      -0.0200
     78  CD1      -11.0670   19.6920   20.8500 C.ar   92  PHE92      -0.0042
     79  CD2      -12.4050   21.0990   19.4500 C.ar   92  PHE92      -0.0042
     80  CE1      -12.1960   19.0150   21.2670 C.ar   92  PHE92      -0.0003
     81  CE2      -13.5430   20.4310   19.8620 C.ar   92  PHE92      -0.0003
     82  CZ       -13.4420   19.3880   20.7740 C.ar   92  PHE92      -0.0000
     83  N        -10.0970   18.8830   17.2280 N.am   93  VAL93      -0.1963
     84  CA       -10.8690   18.2810   16.1500 C.3    93  VAL93       0.1727
     85  C        -12.2450   17.9290   16.6960 C.2    93  VAL93       0.2616
     86  O        -12.3580   17.2880   17.7460 O.2    93  VAL93      -0.2715
     87  CB       -10.1500   17.0480   15.5840 C.3    93  VAL93       0.0290
     88  CG1      -10.9620   16.4260   14.4840 C.3    93  VAL93       0.0023
     89  CG2       -8.7780   17.4390   15.0680 C.3    93  VAL93       0.0023
     90  N        -13.2900   18.3510   15.9850 N.am   94  LYS94      -0.1963
     91  CA       -14.6420   18.3090   16.5370 C.3    94  LYS94       0.1728
     92  C        -15.1090   16.8830   16.8220 C.2    94  LYS94       0.2616
     93  O        -15.7530   16.6270   17.8450 O.2    94  LYS94      -0.2715
     94  CB       -15.6040   19.0080   15.5750 C.3    94  LYS94       0.0311
     95  CG       -17.0470   19.0780   16.0370 C.3    94  LYS94       0.0038
     96  CD       -17.8900   19.8910   15.0600 C.3    94  LYS94       0.0206
     97  CE       -19.3280   20.0440   15.5520 C.3    94  LYS94       0.1093
     98  NZ       -20.1630   20.8770   14.6330 N.3    94  LYS94      -0.1314
     99  N        -14.8070   15.9400   15.9370 N.am   95  PHE95      -0.1960
    100  CA       -15.4230   14.6250   16.0220 C.3    95  PHE95       0.1771
    101  C        -14.5210   13.5770   16.6600 C.2    95  PHE95       0.2620
    102  O        -14.8980   12.4020   16.7130 O.2    95  PHE95      -0.2715
    103  CB       -15.8930   14.1990   14.6310 C.3    95  PHE95       0.0574
    104  CG       -16.8940   15.1590   14.0410 C.ar   95  PHE95      -0.0200
    105  CD1      -18.2170   15.1300   14.4470 C.ar   95  PHE95      -0.0042
    106  CD2      -16.4970   16.1310   13.1360 C.ar   95  PHE95      -0.0042
    107  CE1      -19.1360   16.0300   13.9340 C.ar   95  PHE95      -0.0003
    108  CE2      -17.4060   17.0340   12.6160 C.ar   95  PHE95      -0.0003
    109  CZ       -18.7300   16.9840   13.0150 C.ar   95  PHE95      -0.0000
    110  N        -13.3600   13.9780   17.1760 N.am   96  GLY96      -0.1940
    111  CA       -12.5190   13.0750   17.9340 C.3    96  GLY96       0.2014
    112  C        -11.7480   12.0900   17.0750 C.2    96  GLY96       0.2639
    113  O        -11.6320   12.2150   15.8540 O.2    96  GLY96      -0.2714
    114  N        -11.2160   11.0780   17.7510 N.am   97  SER97      -0.1949
    115  CA       -10.3410   10.1070   17.1180 C.3    97  SER97       0.1924
    116  C        -11.1530    9.0070   16.4330 C.2    97  SER97       0.2314
    117  O        -12.2950    8.7150   16.7980 O.2    97  SER97      -0.2863
    118  CB        -9.3820    9.5050   18.1460 C.3    97  SER97       0.2116
    119  OG       -10.0970    8.8430   19.1710 O.3    97  SER97      -0.2180
    120  N        -12.8180    5.5600   18.2390 N.3   100  THR100     -0.1203
    121  CA       -14.0870    5.7940   18.9200 C.3   100  THR100      0.1994
    122  C        -15.2110    6.0380   17.9220 C.2   100  THR100      0.2617
    123  O        -16.3130    5.5000   18.0730 O.2   100  THR100     -0.2717
    124  CB       -13.9480    6.9810   19.8760 C.3   100  THR100      0.1784
    125  OG1      -12.9400    6.6910   20.8530 O.3   100  THR100     -0.2211
    126  CG2      -15.2630    7.2650   20.5780 C.3   100  THR100      0.0376
    127  N        -14.9420    6.8360   16.8820 N.am  101  TYR101     -0.1975
    128  CA       -15.9700    7.1390   15.8900 C.3   101  TYR101      0.1639
    129  C        -16.4410    5.8780   15.1800 C.2   101  TYR101      0.2290
    130  O        -17.6380    5.7150   14.9160 O.2   101  TYR101     -0.2864
    131  CB       -15.4390    8.1510   14.8750 C.3   101  TYR101      0.0560
    132  CG       -16.5130    8.7320   13.9870 C.ar  101  TYR101     -0.0198
    133  CD1      -17.2440    9.8450   14.3920 C.ar  101  TYR101     -0.0009
    134  CD2      -16.8010    8.1720   12.7480 C.ar  101  TYR101     -0.0009
    135  CE1      -18.2320   10.3850   13.5880 C.ar  101  TYR101      0.0417
    136  CE2      -17.7910    8.7050   11.9370 C.ar  101  TYR101      0.0417
    137  CZ       -18.5000    9.8140   12.3610 C.ar  101  TYR101      0.1957
    138  OH       -19.4850   10.3580   11.5640 O.3   101  TYR101     -0.2866
    139  N         -6.5070    5.3110   16.5960 N.3   141  LYS141     -0.1231
    140  CA        -6.4900    6.2750   17.6880 C.3   141  LYS141      0.1693
    141  C         -5.7310    7.5390   17.3230 C.2   141  LYS141      0.2592
    142  O         -5.9630    8.5830   17.9370 O.2   141  LYS141     -0.2718
    143  CB        -5.8750    5.6480   18.9430 C.3   141  LYS141      0.0285
    144  CG        -6.2160    6.3440   20.2170 C.3   141  LYS141      0.0035
    145  CD        -5.4610    5.6880   21.3580 C.3   141  LYS141      0.0206
    146  CE        -5.1450    6.6890   22.4690 C.3   141  LYS141      0.1093
    147  NZ        -4.3120    7.8640   22.0020 N.3   141  LYS141     -0.1314
    148  N         -4.8380    7.4730   16.3380 N.am  142  ASN142     -0.1974
    149  CA        -4.0670    8.6290   15.9130 C.3   142  ASN142      0.1688
    150  C         -4.6190    9.2620   14.6410 C.2   142  ASN142      0.2292
    151  O         -3.9330   10.0730   14.0120 O.2   142  ASN142     -0.2864
    152  CB        -2.5940    8.2480   15.7450 C.3   142  ASN142      0.1181
    153  CG        -1.8630    8.1860   17.0750 C.2   142  ASN142      0.2629
    154  OD1       -2.2940    8.7980   18.0540 O.2   142  ASN142     -0.2716
    155  ND2       -0.7550    7.4510   17.1190 N.am  142  ASN142     -0.0877
    156  N         -7.8680   11.5960   13.2950 N.3   144  LEU144     -0.1245
    157  CA        -8.8850   12.5100   13.7910 C.3   144  LEU144      0.1561
    158  C         -9.8450   12.8700   12.6680 C.2   144  LEU144      0.2260
    159  O         -9.4230   13.1160   11.5320 O.2   144  LEU144     -0.2867
    160  CB        -8.2370   13.7750   14.3580 C.3   144  LEU144      0.0270
    161  CG        -7.0640   13.4940   15.3050 C.3   144  LEU144      0.0019
    162  CD1       -6.3380   14.7760   15.7000 C.3   144  LEU144      0.0001
    163  CD2       -7.5390   12.7370   16.5400 C.3   144  LEU144      0.0001
    164  N         -2.6070   12.3230   13.3710 N.3   162  SER162     -0.1217
    165  CA        -2.0380   13.0100   14.5170 C.3   162  SER162      0.1889
    166  C         -0.6250   12.4950   14.7830 C.2   162  SER162      0.2288
    167  O         -0.1510   11.5540   14.1450 O.2   162  SER162     -0.2866
    168  CB        -2.9340   12.8250   15.7440 C.3   162  SER162      0.2089
    169  OG        -2.5700   13.7130   16.7830 O.3   162  SER162     -0.2183
@<TRIPOS>BOND
     1   159   158    2
     2    47    48    1
     3   138   137    1
     4   136   137   ar
     5   136   134   ar
     6   137   135   ar
     7    50    49    2
     8    48    49    1
     9    48    51    1
    10   108   109   ar
    11   108   106   ar
    12    71    69   ar
    13   158   157    1
    14   134   132   ar
    15    70    69   ar
    16   109   107   ar
    17   106   104   ar
    18   156   157    1
    19    69    68    1
    20   164   165    1
    21   135   133   ar
    22   157   160    1
    23   107   105   ar
    24    51    52    1
    25    51    53    1
    26   132   133   ar
    27   132   131    1
    28   151   150    2
    29   104   105   ar
    30   104   103    1
    31   167   166    2
    32   160   161    1
    33    88    87    1
    34   165   166    1
    35   165   168    1
    36   103   100    1
    37    98    97    1
    38   150   149    1
    39    68    67    1
    40   131   128    1
    41   130   129    2
    42    96    97    1
    43    96    95    1
    44    89    87    1
    45   129   128    1
    46   161   162    1
    47   161   163    1
    48    67    64    1
    49    94    95    1
    50    94    91    1
    51    87    84    1
    52   168   169    1
    53   152   149    1
    54   152   153    1
    55   113   112    2
    56   128   127    1
    57   149   148    1
    58    99   100    1
    59    99    92   am
    60    90    91    1
    61    90    85   am
    62   100   101    1
    63    84    85    1
    64    84    83    1
    65   148   141   am
    66   116   117    2
    67   116   115    1
    68    75    74    2
    69    91    92    1
    70   139   140    1
    71   101   102    2
    72   101   110   am
    73    85    86    2
    74    92    93    2
    75   127   122   am
    76    64    63    1
    77    64    65    1
    78   112   114   am
    79   112   111    1
    80   153   155   am
    81   153   154    2
    82   115   114    1
    83   115   118    1
    84   110   111    1
    85    83    74   am
    86   141   140    1
    87   141   142    2
    88    74    73    1
    89    63    56   am
    90    65    66    2
    91    65    72   am
    92   140   143    1
    93   122   123    2
    94   122   121    1
    95    72    73    1
    96   118   119    1
    97   120   121    1
    98    73    76    1
    99    62    60   am
   100    56    55    1
   101    56    57    2
   102   121   124    1
   103   143   144    1
   104    58    55    1
   105    58    59    1
   106    55    54    1
   107    60    59    1
   108    60    61    2
   109    79    81   ar
   110    79    77   ar
   111    76    77    1
   112    81    82   ar
   113   124   126    1
   114   124   125    1
   115    77    78   ar
   116   144   145    1
   117    82    80   ar
   118    46    45    1
   119    78    80   ar
   120    34    35    1
   121    34    31    1
   122   145   146    1
   123    35    37    1
   124    35    36    1
   125    30    31    1
   126    45    44    1
   127   147   146    1
   128    31    32    1
   129    33    32    2
   130    44    43    1
   131     7     6    1
   132    42    43    1
   133    42    39    1
   134    28    26    1
   135     8     6    1
   136     6     5    1
   137    29    27    1
   138     5     2    1
   139    27    26    1
   140     4     3    2
   141    38    39    1
   142    16    15    2
   143    26    23    1
   144    39    40    1
   145     3     2    1
   146     3     9   am
   147     2     1    1
   148    15    14    1
   149    41    40    2
   150    23    24    1
   151    23    22    1
   152    10     9    1
   153    10    11    1
   154    13    11   am
   155    13    14    1
   156    24    25    2
   157    11    12    2
   158    14    17    1
   159    17    18    1
   160    18    19    1
   161    20    19    2
   162    19    21   am
