@<TRIPOS>MOLECULE
tmp/5ut1A00.pdb
 144 136 0 0 0
SMALL
GASTEIGER

@<TRIPOS>ATOM
      1  N        -10.7320   14.4300   27.8960 N.3    15  LEU15      -0.1245
      2  CA       -11.1730   13.6880   26.7230 C.3    15  LEU15       0.1561
      3  C        -10.6320   12.2680   26.6790 C.2    15  LEU15       0.2260
      4  O        -11.1020   11.4750   25.8570 O.2    15  LEU15      -0.2867
      5  CB       -10.7380   14.4180   25.4430 C.3    15  LEU15       0.0270
      6  CG       -11.3640   15.7960   25.2450 C.3    15  LEU15       0.0019
      7  CD1      -10.9100   16.4020   23.9290 C.3    15  LEU15       0.0001
      8  CD2      -12.8920   15.7380   25.3130 C.3    15  LEU15       0.0001
      9  N         -5.3650   13.8960   28.2150 N.3    23  ILE23      -0.1245
     10  CA        -5.7850   14.7580   27.1320 C.3    23  ILE23       0.1561
     11  C         -7.0450   15.5100   27.5560 C.2    23  ILE23       0.2260
     12  O         -7.9710   14.9070   28.1100 O.2    23  ILE23      -0.2867
     13  CB        -6.0080   13.9310   25.8500 C.3    23  ILE23       0.0252
     14  CG1       -4.6620   13.3160   25.4030 C.3    23  ILE23       0.0019
     15  CG2       -6.5480   14.8170   24.7670 C.3    23  ILE23       0.0019
     16  CD1       -4.8150   12.1600   24.4370 C.3    23  ILE23       0.0001
     17  N         -6.8950   21.3570   21.7890 N.3    43  LEU43      -0.1245
     18  CA        -6.6330   20.0670   22.4040 C.3    43  LEU43       0.1561
     19  C         -5.3480   20.1910   23.2150 C.2    43  LEU43       0.2260
     20  O         -4.3420   20.6990   22.7050 O.2    43  LEU43      -0.2867
     21  CB        -6.4990   18.9830   21.3330 C.3    43  LEU43       0.0270
     22  CG        -6.4390   17.6440   22.0680 C.3    43  LEU43       0.0019
     23  CD1       -7.8040   17.0640   22.2660 C.3    43  LEU43       0.0001
     24  CD2       -5.5410   16.7170   21.3500 C.3    43  LEU43       0.0001
     25  N         -2.5820   18.1960   25.3450 N.3    45  LYS45      -0.1245
     26  CA        -1.9860   16.9120   25.7060 C.3    45  LYS45       0.1561
     27  C         -0.9660   17.1750   26.7960 C.2    45  LYS45       0.2260
     28  O         -0.0770   18.0160   26.6270 O.2    45  LYS45      -0.2867
     29  CB        -1.3160   16.2320   24.5170 C.3    45  LYS45       0.0271
     30  CG        -2.2730   15.8180   23.4610 C.3    45  LYS45       0.0035
     31  CD        -1.5000   15.0690   22.3570 C.3    45  LYS45       0.0206
     32  CE        -2.4860   14.3400   21.4790 C.3    45  LYS45       0.1093
     33  NZ        -2.0230   14.1890   20.0890 N.3    45  LYS45      -0.1314
     34  N         -2.2760   17.0760   11.4600 N.3    74  VAL74      -0.1245
     35  CA        -2.8350   17.8900   12.5350 C.3    74  VAL74       0.1561
     36  C         -2.0070   19.1570   12.7320 C.2    74  VAL74       0.2260
     37  O         -0.7760   19.1660   12.5850 O.2    74  VAL74      -0.2867
     38  CB        -2.8620   17.0630   13.8360 C.3    74  VAL74       0.0252
     39  CG1       -1.4020   16.7680   14.2440 C.3    74  VAL74       0.0019
     40  CG2       -3.5380   17.8180   14.9650 C.3    74  VAL74       0.0019
     41  N         -2.6490   21.6620   20.5100 N.3    90  GLN90      -0.1231
     42  CA        -3.0190   21.3180   19.1350 C.3    90  GLN90       0.1698
     43  C         -4.4270   21.7910   18.7800 C.2    90  GLN90       0.2592
     44  O         -5.2520   22.1490   19.6450 O.2    90  GLN90      -0.2718
     45  CB        -2.9120   19.8040   18.9180 C.3    90  GLN90       0.0381
     46  CG        -1.5260   19.2560   19.2110 C.3    90  GLN90       0.0905
     47  CD        -1.4020   17.7400   18.9680 C.2    90  GLN90       0.2608
     48  OE1       -2.2690   16.9540   19.3930 O.2    90  GLN90      -0.2717
     49  NE2       -0.3130   17.3270   18.3060 N.am   90  GLN90      -0.0878
     50  N         -4.7100   21.7660   17.4720 N.am   91  GLU91      -0.1966
     51  CA        -6.0490   22.0880   17.0040 C.3    91  GLU91       0.1733
     52  C         -7.0620   21.1240   17.6120 C.2    91  GLU91       0.2616
     53  O         -6.7670   19.9550   17.8960 O.2    91  GLU91      -0.2715
     54  CB        -6.1210   22.0330   15.4770 C.3    91  GLU91       0.0429
     55  CG        -6.1830   20.6060   14.8870 C.3    91  GLU91       0.1163
     56  CD        -6.3070   20.6490   13.3540 C.2    91  GLU91       0.3649
     57  OE1       -7.3870   21.0580   12.8660 O.co2  91  GLU91      -0.2457
     58  OE2       -5.3230   20.3180   12.6430 O.co2  91  GLU91      -0.2457
     59  N         -8.2630   21.6240   17.8470 N.am   92  PHE92      -0.1960
     60  CA        -9.3120   20.7900   18.4180 C.3    92  PHE92       0.1771
     61  C        -10.2480   20.3770   17.2890 C.2    92  PHE92       0.2619
     62  O        -10.6640   21.2170   16.4910 O.2    92  PHE92      -0.2715
     63  CB       -10.0980   21.5320   19.5170 C.3    92  PHE92       0.0574
     64  CG       -11.2740   20.7490   20.0320 C.ar   92  PHE92      -0.0200
     65  CD1      -11.0770   19.7010   20.9390 C.ar   92  PHE92      -0.0042
     66  CD2      -12.5670   21.0350   19.5920 C.ar   92  PHE92      -0.0042
     67  CE1      -12.1760   18.9500   21.4260 C.ar   92  PHE92      -0.0003
     68  CE2      -13.6650   20.2880   20.0620 C.ar   92  PHE92      -0.0003
     69  CZ       -13.4540   19.2440   20.9790 C.ar   92  PHE92      -0.0000
     70  N        -10.6080   19.0990   17.2540 N.am   93  VAL93      -0.1963
     71  CA       -11.4250   18.5240   16.2010 C.3    93  VAL93       0.1727
     72  C        -12.7600   18.1330   16.8180 C.2    93  VAL93       0.2616
     73  O        -12.8060   17.3240   17.7520 O.2    93  VAL93      -0.2715
     74  CB       -10.7240   17.3100   15.5810 C.3    93  VAL93       0.0290
     75  CG1      -11.5460   16.7660   14.5050 C.3    93  VAL93       0.0023
     76  CG2       -9.3250   17.6770   15.0750 C.3    93  VAL93       0.0023
     77  N        -13.8450   18.6890   16.2870 N.am   94  LYS94      -0.1963
     78  CA       -15.1630   18.4740   16.8770 C.3    94  LYS94       0.1728
     79  C        -15.5320   16.9880   16.9590 C.2    94  LYS94       0.2616
     80  O        -16.1830   16.5530   17.9110 O.2    94  LYS94      -0.2715
     81  CB       -16.2170   19.2460   16.0640 C.3    94  LYS94       0.0311
     82  CG       -15.9840   20.7490   15.9930 C.3    94  LYS94       0.0038
     83  CD       -15.8940   21.4150   17.3560 C.3    94  LYS94       0.0206
     84  CE       -17.2750   21.5760   17.9210 C.3    94  LYS94       0.1093
     85  NZ       -17.3110   22.7860   18.7680 N.3    94  LYS94      -0.1314
     86  N        -15.1500   16.1910   15.9740 N.am   95  PHE95      -0.1960
     87  CA       -15.7300   14.8580   15.8930 C.3    95  PHE95       0.1771
     88  C        -14.8610   13.7760   16.5010 C.2    95  PHE95       0.2620
     89  O        -15.2390   12.5990   16.4460 O.2    95  PHE95      -0.2715
     90  CB       -16.0770   14.5520   14.4380 C.3    95  PHE95       0.0574
     91  CG       -17.0710   15.5370   13.8920 C.ar   95  PHE95      -0.0200
     92  CD1      -18.4000   15.4740   14.2840 C.ar   95  PHE95      -0.0042
     93  CD2      -16.6630   16.5650   13.0430 C.ar   95  PHE95      -0.0042
     94  CE1      -19.3230   16.4000   13.8030 C.ar   95  PHE95      -0.0003
     95  CE2      -17.5640   17.4930   12.5590 C.ar   95  PHE95      -0.0003
     96  CZ       -18.9120   17.4120   12.9440 C.ar   95  PHE95      -0.0000
     97  N        -13.7170   14.1380   17.0740 N.am   96  GLY96      -0.1940
     98  CA       -12.9170   13.1920   17.8200 C.3    96  GLY96       0.2014
     99  C        -12.0800   12.2620   16.9520 C.2    96  GLY96       0.2639
    100  O        -11.8620   12.4610   15.7400 O.2    96  GLY96      -0.2714
    101  N        -11.5990   11.2100   17.6000 N.am   97  SER97      -0.1949
    102  CA       -10.6600   10.3310   16.9330 C.3    97  SER97       0.1924
    103  C        -11.4290    9.2540   16.1760 C.2    97  SER97       0.2314
    104  O        -12.5990    9.0090   16.4280 O.2    97  SER97      -0.2863
    105  CB        -9.7020    9.7310   17.9480 C.3    97  SER97       0.2116
    106  OG       -10.4480    8.8980   18.8290 O.3    97  SER97      -0.2180
    107  N        -13.1160    5.8080   18.0260 N.3   100  THR100     -0.1218
    108  CA       -14.4180    6.0360   18.6410 C.3   100  THR100      0.1862
    109  C        -15.4950    6.2320   17.5870 C.2   100  THR100      0.2287
    110  O        -16.5870    5.6630   17.6760 O.2   100  THR100     -0.2866
    111  CB       -14.3200    7.2420   19.5610 C.3   100  THR100      0.1770
    112  OG1      -13.3090    6.9740   20.5410 O.3   100  THR100     -0.2211
    113  CG2      -15.6740    7.4950   20.2590 C.3   100  THR100      0.0375
    114  N         -6.8150    5.5530   16.5260 N.3   141  LYS141     -0.1231
    115  CA        -6.8930    6.4940   17.6330 C.3   141  LYS141      0.1693
    116  C         -6.0590    7.7350   17.3460 C.2   141  LYS141      0.2592
    117  O         -6.2960    8.7870   17.9560 O.2   141  LYS141     -0.2718
    118  CB        -6.4570    5.8070   18.9290 C.3   141  LYS141      0.0285
    119  CG        -6.4480    6.6980   20.1490 C.3   141  LYS141      0.0035
    120  CD        -6.3160    5.9000   21.4490 C.3   141  LYS141      0.0206
    121  CE        -6.2620    6.8130   22.6630 C.3   141  LYS141      0.1093
    122  NZ        -6.8340    6.1320   23.8720 N.3   141  LYS141     -0.1314
    123  N         -5.1240    7.6560   16.3950 N.am  142  ASN142     -0.1974
    124  CA        -4.3320    8.8230   16.0150 C.3   142  ASN142      0.1688
    125  C         -4.8400    9.4890   14.7440 C.2   142  ASN142      0.2292
    126  O         -4.1250   10.3250   14.1650 O.2   142  ASN142     -0.2864
    127  CB        -2.8430    8.4620   15.8460 C.3   142  ASN142      0.1181
    128  CG        -2.1230    8.3240   17.1860 C.2   142  ASN142      0.2629
    129  OD1       -2.5230    8.9240   18.1740 O.2   142  ASN142     -0.2716
    130  ND2       -1.0710    7.5270   17.2200 N.am  142  ASN142     -0.0877
    131  N         -7.9730   11.9100   13.2780 N.3   144  LEU144     -0.1245
    132  CA        -9.0460   12.8070   13.7060 C.3   144  LEU144      0.1561
    133  C        -10.0130   13.0580   12.5610 C.2   144  LEU144      0.2260
    134  O         -9.5930   13.2370   11.4080 O.2   144  LEU144     -0.2867
    135  CB        -8.4930   14.1370   14.1490 C.3   144  LEU144      0.0270
    136  CG        -7.2550   13.8870   14.9970 C.3   144  LEU144      0.0019
    137  CD1       -6.3920   15.1440   15.0970 C.3   144  LEU144      0.0001
    138  CD2       -7.7390   13.4110   16.3280 C.3   144  LEU144      0.0001
    139  N         -2.7860   12.5550   13.3720 N.3   162  SER162     -0.1217
    140  CA        -2.2140   13.3010   14.4960 C.3   162  SER162      0.1889
    141  C         -0.8030   12.7950   14.7800 C.2   162  SER162      0.2288
    142  O         -0.3240   11.8750   14.1170 O.2   162  SER162     -0.2866
    143  CB        -3.1160   13.1840   15.7290 C.3   162  SER162      0.2089
    144  OG        -2.6360   13.9830   16.8120 O.3   162  SER162     -0.2183
@<TRIPOS>BOND
     1   134   133    2
     2    34    35    1
     3    35    36    1
     4    35    38    1
     5    95    96   ar
     6    95    93   ar
     7   133   132    1
     8    37    36    2
     9    58    56   ar
    10    57    56   ar
    11    96    94   ar
    12    93    91   ar
    13   131   132    1
    14    56    55    1
    15   139   140    1
    16   132   135    1
    17    94    92   ar
    18    38    39    1
    19    38    40    1
    20    91    92   ar
    21    91    90    1
    22   142   141    2
    23   135   136    1
    24   126   125    2
    25    90    87    1
    26   140   141    1
    27   140   143    1
    28    75    74    1
    29   125   124    1
    30    55    54    1
    31   136   137    1
    32   136   138    1
    33    76    74    1
    34    54    51    1
    35    74    71    1
    36   143   144    1
    37   100    99    2
    38   127   124    1
    39   127   128    1
    40    87    86    1
    41    87    88    1
    42    86    79   am
    43    82    81    1
    44    82    83    1
    45   124   123    1
    46    81    78    1
    47   103   104    2
    48   103   102    1
    49    71    72    1
    50    71    70    1
    51    77    72   am
    52    77    78    1
    53   123   116   am
    54    89    88    2
    55    62    61    2
    56    88    97   am
    57   114   115    1
    58    72    73    2
    59    78    79    1
    60   102   101    1
    61   102   105    1
    62    99   101   am
    63    99    98    1
    64    79    80    2
    65    51    50    1
    66    51    52    1
    67    97    98    1
    68   128   130   am
    69   128   129    2
    70    70    61   am
    71    61    60    1
    72   116   115    1
    73   116   117    2
    74    83    84    1
    75    50    43   am
    76   109   110    2
    77   109   108    1
    78    52    59   am
    79    52    53    2
    80   115   118    1
    81    59    60    1
    82    84    85    1
    83   105   106    1
    84   107   108    1
    85    49    47   am
    86    60    63    1
    87   108   111    1
    88    43    42    1
    89    43    44    2
    90    45    42    1
    91    45    46    1
    92   118   119    1
    93    47    46    1
    94    47    48    2
    95    42    41    1
    96    63    64    1
    97   111   113    1
    98   111   112    1
    99    66    64   ar
   100    66    68   ar
   101    64    65   ar
   102    68    69   ar
   103    33    32    1
   104   119   120    1
   105    65    67   ar
   106    69    67   ar
   107    21    22    1
   108    21    18    1
   109    24    22    1
   110   120   121    1
   111    32    31    1
   112    17    18    1
   113    22    23    1
   114    31    30    1
   115    18    19    1
   116   121   122    1
   117    20    19    2
   118    30    29    1
   119     7     6    1
   120    16    14    1
   121    29    26    1
   122    15    13    1
   123     6     8    1
   124     6     5    1
   125    25    26    1
   126    14    13    1
   127     5     2    1
   128    26    27    1
   129    13    10    1
   130     4     3    2
   131    28    27    2
   132     3     2    1
   133     2     1    1
   134    10    11    1
   135    10     9    1
   136    11    12    2
