@<TRIPOS>MOLECULE
tmp/5ut2A00.pdb
 157 149 0 0 0
SMALL
GASTEIGER

@<TRIPOS>ATOM
      1  N        -10.9950   14.4980   28.4680 N.3    16  LEU16      -0.1231
      2  CA       -11.5130   13.6910   27.3750 C.3    16  LEU16       0.1693
      3  C        -10.9950   12.2640   27.4150 C.2    16  LEU16       0.2593
      4  O        -11.5630   11.3980   26.7390 O.2    16  LEU16      -0.2718
      5  CB       -11.1400   14.3190   26.0260 C.3    16  LEU16       0.0284
      6  CG       -11.6340   15.7570   25.8720 C.3    16  LEU16       0.0019
      7  CD1      -11.0540   16.3280   24.5600 C.3    16  LEU16       0.0001
      8  CD2      -13.1400   15.7960   25.8240 C.3    16  LEU16       0.0001
      9  N         -9.9510   12.0120   28.1820 N.am   17  GLY17      -0.1942
     10  CA        -9.4530   10.6670   28.3640 C.3    17  GLY17       0.2014
     11  C         -7.9640   10.6870   28.6120 C.2    17  GLY17       0.2638
     12  O         -7.4020   11.6900   29.0460 O.2    17  GLY17      -0.2714
     13  N         -7.3270    9.5530   28.3150 N.am   18  GLN18      -0.1977
     14  CA        -5.9210    9.3720   28.6230 C.3    18  GLN18       0.1601
     15  C         -5.2230    8.8070   27.4010 C.2    18  GLN18       0.2287
     16  O         -5.8160    8.0450   26.6220 O.2    18  GLN18      -0.2864
     17  CB        -5.6980    8.3970   29.8140 C.3    18  GLN18       0.0394
     18  CG        -6.3870    8.7940   31.0910 C.3    18  GLN18       0.0908
     19  CD        -6.1900    7.7690   32.1960 C.2    18  GLN18       0.2608
     20  OE1       -5.9500    6.5930   31.9340 O.2    18  GLN18      -0.2717
     21  NE2       -6.2820    8.2210   33.4440 N.am   18  GLN18      -0.0878
     22  N         -5.6810   14.0440   28.6420 N.3    24  ILE24      -0.1245
     23  CA        -6.1100   14.8580   27.5110 C.3    24  ILE24       0.1561
     24  C         -7.3770   15.6060   27.9000 C.2    24  ILE24       0.2260
     25  O         -8.2980   15.0190   28.4750 O.2    24  ILE24      -0.2867
     26  CB        -6.3280   13.9720   26.2680 C.3    24  ILE24       0.0252
     27  CG1       -4.9740   13.4300   25.8090 C.3    24  ILE24       0.0019
     28  CG2       -7.0490   14.7510   25.1480 C.3    24  ILE24       0.0019
     29  CD1       -5.0710   12.2330   24.9050 C.3    24  ILE24       0.0001
     30  N         -7.3240   21.3730   21.9540 N.3    44  LEU44      -0.1245
     31  CA        -7.0030   20.1180   22.6170 C.3    44  LEU44       0.1561
     32  C         -5.7370   20.3120   23.4530 C.2    44  LEU44       0.2260
     33  O         -4.7220   20.7960   22.9480 O.2    44  LEU44      -0.2867
     34  CB        -6.8100   19.0060   21.5760 C.3    44  LEU44       0.0270
     35  CG        -6.7240   17.6740   22.3300 C.3    44  LEU44       0.0019
     36  CD1       -8.1220   17.1130   22.6020 C.3    44  LEU44       0.0001
     37  CD2       -5.8110   16.7130   21.6850 C.3    44  LEU44       0.0001
     38  N         -2.9730   18.3800   25.5760 N.3    46  LYS46      -0.1245
     39  CA        -2.3760   17.0730   25.8530 C.3    46  LYS46       0.1561
     40  C         -1.3150   17.2940   26.9130 C.2    46  LYS46       0.2260
     41  O         -0.3860   18.0760   26.7040 O.2    46  LYS46      -0.2867
     42  CB        -1.7650   16.4330   24.5960 C.3    46  LYS46       0.0271
     43  CG        -2.7290   15.8660   23.6660 C.3    46  LYS46       0.0035
     44  CD        -2.0020   14.9440   22.6760 C.3    46  LYS46       0.0206
     45  CE        -2.9560   14.5090   21.6130 C.3    46  LYS46       0.1093
     46  NZ        -2.2550   13.9410   20.4650 N.3    46  LYS46      -0.1314
     47  N         -2.6130   17.1630   11.6190 N.3    75  VAL75      -0.1245
     48  CA        -3.1360   17.9980   12.7080 C.3    75  VAL75       0.1561
     49  C         -2.2460   19.2150   12.9110 C.2    75  VAL75       0.2260
     50  O         -1.0150   19.1430   12.8060 O.2    75  VAL75      -0.2867
     51  CB        -3.2370   17.1760   14.0150 C.3    75  VAL75       0.0252
     52  CG1       -1.8500   16.7390   14.4820 C.3    75  VAL75       0.0019
     53  CG2       -3.8940   17.9900   15.1440 C.3    75  VAL75       0.0019
     54  N         -3.0680   21.7130   20.6970 N.3    91  GLN91      -0.1231
     55  CA        -3.3940   21.2630   19.3430 C.3    91  GLN91       0.1698
     56  C         -4.7770   21.7280   18.9240 C.2    91  GLN91       0.2592
     57  O         -5.6220   22.0800   19.7580 O.2    91  GLN91      -0.2718
     58  CB        -3.3340   19.7300   19.2670 C.3    91  GLN91       0.0381
     59  CG        -1.9410   19.2150   19.4830 C.3    91  GLN91       0.0905
     60  CD        -1.8560   17.7100   19.4030 C.2    91  GLN91       0.2608
     61  OE1       -2.6940   17.0070   19.9590 O.2    91  GLN91      -0.2717
     62  NE2       -0.8330   17.2100   18.7090 N.am   91  GLN91      -0.0878
     63  N         -5.0080   21.7400   17.6080 N.am   92  GLU92      -0.1966
     64  CA        -6.3230   22.1080   17.1300 C.3    92  GLU92       0.1733
     65  C         -7.3700   21.1550   17.6890 C.2    92  GLU92       0.2616
     66  O         -7.1450   19.9470   17.8140 O.2    92  GLU92      -0.2715
     67  CB        -6.3720   22.1400   15.5920 C.3    92  GLU92       0.0429
     68  CG        -6.4060   20.8180   14.9370 C.3    92  GLU92       0.1163
     69  CD        -6.5190   20.9050   13.4110 C.2    92  GLU92       0.3649
     70  OE1       -7.5800   21.3110   12.8720 O.co2  92  GLU92      -0.2457
     71  OE2       -5.5250   20.5710   12.7440 O.co2  92  GLU92      -0.2457
     72  N         -8.5160   21.7100   18.0510 N.am   93  PHE93      -0.1960
     73  CA        -9.6250   20.8900   18.5040 C.3    93  PHE93       0.1771
     74  C        -10.4290   20.4130   17.2900 C.2    93  PHE93       0.2619
     75  O        -10.9080   21.2240   16.4950 O.2    93  PHE93      -0.2715
     76  CB       -10.5120   21.6570   19.4780 C.3    93  PHE93       0.0574
     77  CG       -11.6010   20.8110   20.0370 C.ar   93  PHE93      -0.0200
     78  CD1      -11.2990   19.8120   20.9310 C.ar   93  PHE93      -0.0042
     79  CD2      -12.9140   20.9900   19.6280 C.ar   93  PHE93      -0.0042
     80  CE1      -12.3070   18.9970   21.4490 C.ar   93  PHE93      -0.0003
     81  CE2      -13.9180   20.1890   20.1300 C.ar   93  PHE93      -0.0003
     82  CZ       -13.6100   19.1860   21.0400 C.ar   93  PHE93      -0.0000
     83  N        -10.5780   19.1010   17.1570 N.am   94  VAL94      -0.1963
     84  CA       -11.2280   18.4950   16.0030 C.3    94  VAL94       0.1727
     85  C        -12.5790   17.9920   16.4830 C.2    94  VAL94       0.2616
     86  O        -12.6600   17.0250   17.2470 O.2    94  VAL94      -0.2715
     87  CB       -10.3660   17.3860   15.3920 C.3    94  VAL94       0.0290
     88  CG1      -11.0820   16.7000   14.2300 C.3    94  VAL94       0.0023
     89  CG2       -9.0650   17.9730   14.9220 C.3    94  VAL94       0.0023
     90  N        -13.6370   18.6620   16.0190 N.am   95  LYS95      -0.1963
     91  CA       -14.9750   18.5260   16.5880 C.3    95  LYS95       0.1728
     92  C        -15.4170   17.0680   16.7520 C.2    95  LYS95       0.2616
     93  O        -15.9400   16.6810   17.8030 O.2    95  LYS95      -0.2715
     94  CB       -15.9650   19.2960   15.7000 C.3    95  LYS95       0.0311
     95  CG       -17.4160   19.1750   16.1120 C.3    95  LYS95       0.0038
     96  CD       -18.2820   20.0640   15.2410 C.3    95  LYS95       0.0206
     97  CE       -19.7080   20.1160   15.7460 C.3    95  LYS95       0.1093
     98  NZ       -20.4580   21.2470   15.1240 N.3    95  LYS95      -0.1314
     99  N        -15.2290   16.2460   15.7330 N.am   96  PHE96      -0.1960
    100  CA       -15.8400   14.9230   15.7710 C.3    96  PHE96       0.1771
    101  C        -14.9390   13.8550   16.3650 C.2    96  PHE96       0.2620
    102  O        -15.3350   12.6780   16.3830 O.2    96  PHE96      -0.2715
    103  CB       -16.3090   14.5320   14.3660 C.3    96  PHE96       0.0574
    104  CG       -17.3090   15.4870   13.8120 C.ar   96  PHE96      -0.0200
    105  CD1      -18.6390   15.4160   14.2000 C.ar   96  PHE96      -0.0042
    106  CD2      -16.9120   16.5060   12.9640 C.ar   96  PHE96      -0.0042
    107  CE1      -19.5650   16.3310   13.7270 C.ar   96  PHE96      -0.0003
    108  CE2      -17.8200   17.4200   12.4950 C.ar   96  PHE96      -0.0003
    109  CZ       -19.1590   17.3330   12.8720 C.ar   96  PHE96      -0.0000
    110  N        -13.7500   14.2290   16.8660 N.am   97  GLY97      -0.1940
    111  CA       -12.9270   13.2950   17.6200 C.3    97  GLY97       0.2014
    112  C        -12.2250   12.2770   16.7350 C.2    97  GLY97       0.2639
    113  O        -12.0910   12.4450   15.5190 O.2    97  GLY97      -0.2714
    114  N        -11.7940   11.1870   17.3580 N.am   98  SER98      -0.1949
    115  CA       -10.9790   10.2080   16.6590 C.3    98  SER98       0.1924
    116  C        -11.8430    9.1720   15.9460 C.2    98  SER98       0.2314
    117  O        -13.0040    8.9330   16.2870 O.2    98  SER98      -0.2863
    118  CB       -10.0220    9.5220   17.6340 C.3    98  SER98       0.2116
    119  OG       -10.7770    8.9040   18.6470 O.3    98  SER98      -0.2180
    120  N        -11.6710    5.8680   15.6110 N.3   100  ASP100     -0.1225
    121  CA       -12.1250    4.6020   16.1760 C.3   100  ASP100      0.1805
    122  C        -13.4720    4.7940   16.8800 C.2   100  ASP100      0.2598
    123  O        -14.4230    4.0280   16.6660 O.2   100  ASP100     -0.2718
    124  CB       -11.0560    4.0240   17.1160 C.3   100  ASP100      0.1424
    125  CG       -10.7370    4.9330   18.2920 C.2   100  ASP100      0.3668
    126  OD1      -10.7670    6.1680   18.1360 O.co2 100  ASP100     -0.2456
    127  OD2      -10.4390    4.4120   19.3960 O.co2 100  ASP100     -0.2456
    128  N        -13.6000    5.8760   17.6550 N.am  101  THR101     -0.1953
    129  CA       -14.8660    6.1290   18.3220 C.3   101  THR101      0.1897
    130  C        -15.9690    6.4130   17.3120 C.2   101  THR101      0.2313
    131  O        -17.0930    5.8990   17.4300 O.2   101  THR101     -0.2863
    132  CB       -14.6950    7.2920   19.2880 C.3   101  THR101      0.1794
    133  OG1      -13.6130    6.9850   20.1690 O.3   101  THR101     -0.2208
    134  CG2      -15.9730    7.5070   20.0780 C.3   101  THR101      0.0378
    135  N         -7.1630    5.5470   16.4020 N.3   142  LYS142     -0.1245
    136  CA        -7.2730    6.5380   17.4820 C.3   142  LYS142      0.1561
    137  C         -6.5390    7.8250   17.1370 C.2   142  LYS142      0.2260
    138  O         -6.8610    8.8810   17.7030 O.2   142  LYS142     -0.2867
    139  CB        -6.7210    5.9890   18.8100 C.3   142  LYS142      0.0271
    140  CG        -6.7660    7.0520   19.8980 C.3   142  LYS142      0.0035
    141  CD        -6.3460    6.5110   21.2610 C.3   142  LYS142      0.0206
    142  CE        -6.6780    7.5750   22.3180 C.3   142  LYS142      0.1093
    143  NZ        -5.9540    8.8320   22.0200 N.3   142  LYS142     -0.1314
    144  N         -8.3150   11.8580   13.0430 N.3   145  LEU145     -0.1245
    145  CA        -9.3380   12.7560   13.5510 C.3   145  LEU145      0.1561
    146  C        -10.2840   13.1300   12.4230 C.2   145  LEU145      0.2260
    147  O         -9.8400   13.4860   11.3260 O.2   145  LEU145     -0.2867
    148  CB        -8.6990   14.0240   14.1450 C.3   145  LEU145      0.0270
    149  CG        -7.6410   13.7550   15.2350 C.3   145  LEU145      0.0019
    150  CD1       -7.0260   15.0440   15.7520 C.3   145  LEU145      0.0001
    151  CD2       -8.2240   12.9280   16.3680 C.3   145  LEU145      0.0001
    152  N         -3.1680   12.6320   13.4520 N.3   163  SER163     -0.1217
    153  CA        -2.6890   13.3270   14.6310 C.3   163  SER163      0.1889
    154  C         -1.2660   12.8690   14.9410 C.2   163  SER163      0.2288
    155  O         -0.7210   12.0040   14.2620 O.2   163  SER163     -0.2866
    156  CB        -3.6350   13.0770   15.8110 C.3   163  SER163      0.2089
    157  OG        -3.2260   13.8450   16.9420 O.3   163  SER163     -0.2183
@<TRIPOS>BOND
     1   147   146    2
     2    47    48    1
     3   146   145    1
     4   108   109   ar
     5   108   106   ar
     6    48    49    1
     7    48    51    1
     8    71    69   ar
     9    50    49    2
    10   109   107   ar
    11    70    69   ar
    12   106   104   ar
    13   144   145    1
    14    69    68    1
    15   152   153    1
    16   145   148    1
    17   107   105   ar
    18   104   105   ar
    19   104   103    1
    20    51    52    1
    21    51    53    1
    22   148   149    1
    23    88    87    1
    24   155   154    2
    25   103   100    1
    26   153   154    1
    27   153   156    1
    28    89    87    1
    29    68    67    1
    30    98    97    1
    31   149   150    1
    32   149   151    1
    33    96    97    1
    34    96    95    1
    35    87    84    1
    36   113   112    2
    37    67    64    1
    38   120   121    1
    39    94    95    1
    40    94    91    1
    41    99   100    1
    42    99    92   am
    43   100   101    1
    44   156   157    1
    45   116   117    2
    46   116   115    1
    47    84    85    1
    48    84    83    1
    49    90    85   am
    50    90    91    1
    51   121   122    1
    52   121   124    1
    53   101   102    2
    54   101   110   am
    55   135   136    1
    56    85    86    2
    57    75    74    2
    58    91    92    1
    59   115   114    1
    60   115   118    1
    61   123   122    2
    62   112   114   am
    63   112   111    1
    64    92    93    2
    65   110   111    1
    66   122   128   am
    67   124   125    1
    68    64    63    1
    69    64    65    1
    70   137   136    1
    71   137   138    2
    72    83    74   am
    73    74    73    1
    74   130   131    2
    75   130   129    1
    76   136   139    1
    77    63    56   am
    78   118   119    1
    79   128   129    1
    80    65    66    2
    81    65    72   am
    82    72    73    1
    83   126   125   ar
    84   125   127   ar
    85   129   132    1
    86    73    76    1
    87    62    60   am
    88   139   140    1
    89    56    55    1
    90    56    57    2
    91    58    55    1
    92    58    59    1
    93   132   134    1
    94   132   133    1
    95    55    54    1
    96    60    59    1
    97    60    61    2
    98    76    77    1
    99    79    77   ar
   100    79    81   ar
   101   140   141    1
   102    77    78   ar
   103    81    82   ar
   104    46    45    1
   105    78    80   ar
   106    82    80   ar
   107   141   142    1
   108    34    35    1
   109    34    31    1
   110    45    44    1
   111    37    35    1
   112    30    31    1
   113   143   142    1
   114    35    36    1
   115    31    32    1
   116    44    43    1
   117    33    32    2
   118    43    42    1
   119     7     6    1
   120    42    39    1
   121    29    27    1
   122    28    26    1
   123    38    39    1
   124    27    26    1
   125     8     6    1
   126    39    40    1
   127     6     5    1
   128     5     2    1
   129    26    23    1
   130    16    15    2
   131    41    40    2
   132     4     3    2
   133     2     3    1
   134     2     1    1
   135    15    14    1
   136     3     9   am
   137    23    24    1
   138    23    22    1
   139    24    25    2
   140     9    10    1
   141    13    11   am
   142    13    14    1
   143    10    11    1
   144    11    12    2
   145    14    17    1
   146    17    18    1
   147    18    19    1
   148    20    19    2
   149    19    21   am
