@<TRIPOS>MOLECULE
tmp/5ut3A00.pdb
 136 128 0 0 0
SMALL
GASTEIGER

@<TRIPOS>ATOM
      1  N        -31.1640   14.5890   84.5540 N.3    15  LEU15      -0.1245
      2  CA       -31.5370   13.9020   83.3280 C.3    15  LEU15       0.1561
      3  C        -30.9260   12.5190   83.2440 C.2    15  LEU15       0.2260
      4  O        -31.1140   11.8340   82.2210 O.2    15  LEU15      -0.2867
      5  CB       -31.1090   14.7170   82.1040 C.3    15  LEU15       0.0270
      6  CG       -31.7580   16.0960   82.0280 C.3    15  LEU15       0.0019
      7  CD1      -31.1330   16.8440   80.8350 C.3    15  LEU15       0.0001
      8  CD2      -33.2590   15.9950   81.8680 C.3    15  LEU15       0.0001
      9  N        -25.8500   14.1650   84.8210 N.3    23  ILE23      -0.1245
     10  CA       -26.2880   15.1200   83.8160 C.3    23  ILE23       0.1561
     11  C        -27.5370   15.8480   84.3050 C.2    23  ILE23       0.2260
     12  O        -28.4080   15.2430   84.9530 O.2    23  ILE23      -0.2867
     13  CB       -26.5150   14.4010   82.4610 C.3    23  ILE23       0.0252
     14  CG1      -25.1780   14.2640   81.7180 C.3    23  ILE23       0.0019
     15  CG2      -27.3560   15.1790   81.5620 C.3    23  ILE23       0.0019
     16  CD1      -24.2680   13.2440   82.2890 C.3    23  ILE23       0.0001
     17  N        -27.3780   21.7370   78.6140 N.3    43  LEU43      -0.1245
     18  CA       -27.0780   20.4590   79.2460 C.3    43  LEU43       0.1561
     19  C        -25.8220   20.6210   80.0880 C.2    43  LEU43       0.2260
     20  O        -24.7890   21.0590   79.5700 O.2    43  LEU43      -0.2867
     21  CB       -26.8480   19.4180   78.1520 C.3    43  LEU43       0.0270
     22  CG       -26.7550   17.9310   78.5030 C.3    43  LEU43       0.0019
     23  CD1      -25.4460   17.5500   79.1760 C.3    43  LEU43       0.0001
     24  CD2      -28.0040   17.4880   79.2990 C.3    43  LEU43       0.0001
     25  N        -23.0950   18.6360   82.2790 N.3    45  LYS45      -0.1245
     26  CA       -22.5280   17.3160   82.5170 C.3    45  LYS45       0.1561
     27  C        -21.4620   17.4760   83.6020 C.2    45  LYS45       0.2260
     28  O        -20.5010   18.2240   83.4150 O.2    45  LYS45      -0.2867
     29  CB       -21.9620   16.7610   81.2080 C.3    45  LYS45       0.0271
     30  CG       -21.5000   15.3490   81.2370 C.3    45  LYS45       0.0035
     31  CD       -21.1510   14.8590   79.8180 C.3    45  LYS45       0.0206
     32  CE       -22.3350   14.9380   78.8630 C.3    45  LYS45       0.1093
     33  NZ       -22.0370   14.3590   77.5030 N.3    45  LYS45      -0.1314
     34  N        -22.8660   17.2910   68.3730 N.3    74  VAL74      -0.1245
     35  CA       -23.3560   18.1280   69.4710 C.3    74  VAL74       0.1561
     36  C        -22.4550   19.3320   69.6730 C.2    74  VAL74       0.2260
     37  O        -21.2200   19.2440   69.5740 O.2    74  VAL74      -0.2867
     38  CB       -23.4380   17.2850   70.7600 C.3    74  VAL74       0.0252
     39  CG1      -22.0330   16.8950   71.2030 C.3    74  VAL74       0.0019
     40  CG2      -24.1070   18.0470   71.9120 C.3    74  VAL74       0.0019
     41  N        -23.1580   21.9940   77.3870 N.3    90  GLN90      -0.1231
     42  CA       -23.4890   21.6110   76.0130 C.3    90  GLN90       0.1698
     43  C        -24.8830   22.0680   75.6100 C.2    90  GLN90       0.2592
     44  O        -25.6990   22.4670   76.4380 O.2    90  GLN90      -0.2718
     45  CB       -23.4240   20.0920   75.8300 C.3    90  GLN90       0.0381
     46  CG       -22.0820   19.5370   76.2040 C.3    90  GLN90       0.0905
     47  CD       -22.0160   18.0470   76.0210 C.2    90  GLN90       0.2608
     48  OE1      -22.8880   17.3130   76.4950 O.2    90  GLN90      -0.2717
     49  NE2      -20.9700   17.5890   75.3380 N.am   90  GLN90      -0.0878
     50  N        -25.1840   21.9960   74.3070 N.am   91  GLU91      -0.1966
     51  CA       -26.5290   22.3440   73.8710 C.3    91  GLU91       0.1733
     52  C        -27.5540   21.3820   74.4660 C.2    91  GLU91       0.2616
     53  O        -27.2890   20.1880   74.6600 O.2    91  GLU91      -0.2715
     54  CB       -26.6390   22.3500   72.3340 C.3    91  GLU91       0.0429
     55  CG       -26.6550   20.9850   71.7150 C.3    91  GLU91       0.1163
     56  CD       -26.8540   21.0180   70.1950 C.2    91  GLU91       0.3649
     57  OE1      -27.9440   21.3890   69.6880 O.co2  91  GLU91      -0.2457
     58  OE2      -25.8850   20.6460   69.5150 O.co2  91  GLU91      -0.2457
     59  N        -28.7250   21.9210   74.7750 N.am   92  PHE92      -0.1960
     60  CA       -29.8140   21.1190   75.2980 C.3    92  PHE92       0.1771
     61  C        -30.6870   20.6270   74.1560 C.2    92  PHE92       0.2619
     62  O        -31.1290   21.4090   73.3150 O.2    92  PHE92      -0.2715
     63  CB       -30.6640   21.9070   76.2940 C.3    92  PHE92       0.0574
     64  CG       -31.8440   21.1320   76.7830 C.ar   92  PHE92      -0.0200
     65  CD1      -31.6700   20.0360   77.6310 C.ar   92  PHE92      -0.0042
     66  CD2      -33.1180   21.4560   76.3570 C.ar   92  PHE92      -0.0042
     67  CE1      -32.7670   19.3160   78.0760 C.ar   92  PHE92      -0.0003
     68  CE2      -34.2140   20.7310   76.7940 C.ar   92  PHE92      -0.0003
     69  CZ       -34.0290   19.6530   77.6520 C.ar   92  PHE92      -0.0000
     70  N        -30.9230   19.3150   74.1340 N.am   93  VAL93      -0.1963
     71  CA       -31.6870   18.6660   73.0790 C.3    93  VAL93       0.1727
     72  C        -33.0140   18.2210   73.6690 C.2    93  VAL93       0.2616
     73  O        -33.0480   17.3810   74.5790 O.2    93  VAL93      -0.2715
     74  CB       -30.9080   17.4910   72.4880 C.3    93  VAL93       0.0290
     75  CG1      -31.7180   16.8370   71.4190 C.3    93  VAL93       0.0023
     76  CG2      -29.5860   17.9750   71.9440 C.3    93  VAL93       0.0023
     77  N        -34.1090   18.7730   73.1370 N.am   94  LYS94      -0.1963
     78  CA       -35.4120   18.6430   73.7790 C.3    94  LYS94       0.1728
     79  C        -35.8390   17.1850   73.9250 C.2    94  LYS94       0.2616
     80  O        -36.4280   16.8090   74.9410 O.2    94  LYS94      -0.2715
     81  CB       -36.4750   19.4230   72.9930 C.3    94  LYS94       0.0311
     82  CG       -37.7780   19.5820   73.7270 C.3    94  LYS94       0.0038
     83  CD       -37.6160   20.7370   74.6730 C.3    94  LYS94       0.0206
     84  CE       -38.8490   21.0550   75.4660 C.3    94  LYS94       0.1093
     85  NZ       -38.5950   22.2540   76.2640 N.3    94  LYS94      -0.1314
     86  N        -35.5680   16.3500   72.9200 N.am   95  PHE95      -0.1960
     87  CA       -36.1300   15.0020   72.9440 C.3    95  PHE95       0.1771
     88  C        -35.1840   13.9670   73.5220 C.2    95  PHE95       0.2620
     89  O        -35.5100   12.7680   73.5170 O.2    95  PHE95      -0.2715
     90  CB       -36.5940   14.6090   71.5350 C.3    95  PHE95       0.0574
     91  CG       -37.5870   15.5750   70.9820 C.ar   95  PHE95      -0.0200
     92  CD1      -38.9040   15.5510   71.4160 C.ar   95  PHE95      -0.0042
     93  CD2      -37.2030   16.5480   70.0670 C.ar   95  PHE95      -0.0042
     94  CE1      -39.8370   16.4650   70.9310 C.ar   95  PHE95      -0.0003
     95  CE2      -38.1190   17.4670   69.5810 C.ar   95  PHE95      -0.0003
     96  CZ       -39.4460   17.4290   70.0130 C.ar   95  PHE95      -0.0000
     97  N        -34.0260   14.3830   74.0010 N.am   96  GLY96      -0.1940
     98  CA       -33.1700   13.5080   74.7730 C.3    96  GLY96       0.2014
     99  C        -32.4370   12.4690   73.9420 C.2    96  GLY96       0.2639
    100  O        -32.2640   12.5860   72.7350 O.2    96  GLY96      -0.2714
    101  N        -31.9900   11.4290   74.6310 N.am   97  SER97      -0.1949
    102  CA       -31.0890   10.4630   74.0450 C.3    97  SER97       0.1924
    103  C        -31.8750    9.3700   73.3390 C.2    97  SER97       0.2314
    104  O        -33.0200    9.0640   73.6660 O.2    97  SER97      -0.2863
    105  CB       -30.1570    9.8630   75.1010 C.3    97  SER97       0.2116
    106  OG       -30.9000    9.2760   76.1280 O.3    97  SER97      -0.2180
    107  N        -33.4410    6.0200   75.1650 N.3   100  THR100     -0.1218
    108  CA       -34.7060    6.2590   75.8490 C.3   100  THR100      0.1862
    109  C        -35.8310    6.4670   74.8540 C.2   100  THR100      0.2287
    110  O        -36.9300    5.9260   75.0150 O.2   100  THR100     -0.2866
    111  CB       -34.5640    7.4730   76.7580 C.3   100  THR100      0.1770
    112  OG1      -33.5300    7.2240   77.7170 O.3   100  THR100     -0.2211
    113  CG2      -35.8730    7.7680   77.4900 C.3   100  THR100      0.0375
    114  N        -27.1950    5.6870   73.5190 N.3   141  LYS141     -0.1245
    115  CA       -27.1900    6.6590   74.6140 C.3   141  LYS141      0.1561
    116  C        -26.4460    7.9370   74.2510 C.2   141  LYS141      0.2260
    117  O        -26.7170    8.9890   74.8420 O.2   141  LYS141     -0.2867
    118  CB       -26.5660    6.0300   75.8700 C.3   141  LYS141      0.0271
    119  CG       -26.6500    6.9220   77.0870 C.3   141  LYS141      0.0035
    120  CD       -25.8440    6.4040   78.2610 C.3   141  LYS141      0.0206
    121  CE       -25.9720    7.2380   79.5000 C.3   141  LYS141      0.1093
    122  NZ       -25.9270    8.6840   79.3130 N.3   141  LYS141     -0.1314
    123  N        -28.5460   11.9460   70.1510 N.3   144  LEU144     -0.1245
    124  CA       -29.5430   12.8800   70.6510 C.3   144  LEU144      0.1561
    125  C        -30.5310   13.1920   69.5470 C.2   144  LEU144      0.2260
    126  O        -30.1290   13.4310   68.3990 O.2   144  LEU144     -0.2867
    127  CB       -28.8820   14.1720   71.1170 C.3   144  LEU144      0.0270
    128  CG       -27.7630   13.9090   72.1270 C.3   144  LEU144      0.0019
    129  CD1      -27.0850   15.2070   72.5250 C.3   144  LEU144      0.0001
    130  CD2      -28.3130   13.1560   73.3440 C.3   144  LEU144      0.0001
    131  N        -23.3390   12.7400   70.3040 N.3   162  SER162     -0.1217
    132  CA       -22.8110   13.4310   71.4640 C.3   162  SER162      0.1889
    133  C        -21.3800   12.9600   71.7370 C.2   162  SER162      0.2288
    134  O        -20.8820   12.0390   71.0770 O.2   162  SER162     -0.2866
    135  CB       -23.7490   13.1840   72.6460 C.3   162  SER162      0.2089
    136  OG       -23.4080   14.0020   73.7450 O.3   162  SER162     -0.2183
@<TRIPOS>BOND
     1    34    35    1
     2   126   125    2
     3    35    36    1
     4    35    38    1
     5    58    56   ar
     6   125   124    1
     7    37    36    2
     8    95    96   ar
     9    95    93   ar
    10    57    56   ar
    11    96    94   ar
    12    93    91   ar
    13   123   124    1
    14    56    55    1
    15   131   132    1
    16   124   127    1
    17    38    39    1
    18    38    40    1
    19    94    92   ar
    20    91    92   ar
    21    91    90    1
    22   134   133    2
    23   127   128    1
    24    75    74    1
    25   132   133    1
    26   132   135    1
    27    90    87    1
    28    55    54    1
    29    76    74    1
    30   128   129    1
    31   128   130    1
    32    54    51    1
    33    74    71    1
    34   135   136    1
    35   100    99    2
    36    86    87    1
    37    86    79   am
    38    87    88    1
    39    81    82    1
    40    81    78    1
    41    71    72    1
    42    71    70    1
    43    77    72   am
    44    77    78    1
    45    62    61    2
    46   103   104    2
    47   103   102    1
    48    89    88    2
    49   114   115    1
    50    88    97   am
    51    72    73    2
    52    82    83    1
    53    78    79    1
    54    51    50    1
    55    51    52    1
    56    79    80    2
    57    99   101   am
    58    99    98    1
    59    97    98    1
    60   102   101    1
    61   102   105    1
    62    70    61   am
    63    61    60    1
    64   116   115    1
    65   116   117    2
    66    50    43   am
    67    52    53    2
    68    52    59   am
    69   115   118    1
    70    83    84    1
    71    59    60    1
    72   109   110    2
    73   109   108    1
    74   105   106    1
    75   107   108    1
    76    60    63    1
    77    49    47   am
    78    84    85    1
    79    43    42    1
    80    43    44    2
    81    45    42    1
    82    45    46    1
    83   108   111    1
    84   118   119    1
    85    42    41    1
    86    47    46    1
    87    47    48    2
    88    63    64    1
    89    66    64   ar
    90    66    68   ar
    91   111   113    1
    92   111   112    1
    93    64    65   ar
    94    68    69   ar
    95   119   120    1
    96    33    32    1
    97    65    67   ar
    98    69    67   ar
    99    21    22    1
   100    21    18    1
   101   120   121    1
   102    22    23    1
   103    22    24    1
   104    17    18    1
   105    32    31    1
   106    18    19    1
   107   122   121    1
   108    20    19    2
   109    31    30    1
   110     7     6    1
   111    29    30    1
   112    29    26    1
   113    15    13    1
   114    14    16    1
   115    14    13    1
   116     8     6    1
   117     6     5    1
   118     5     2    1
   119     4     3    2
   120    25    26    1
   121    13    10    1
   122    26    27    1
   123     3     2    1
   124     2     1    1
   125    28    27    2
   126    10    11    1
   127    10     9    1
   128    11    12    2
