@<TRIPOS>MOLECULE
tmp/5ut4A00.pdb
 191 181 0 0 0
SMALL
GASTEIGER

@<TRIPOS>ATOM
      1  N        -12.5010   19.8840   30.0030 N.3    13  GLU13      -0.1245
      2  CA       -12.8360   18.4920   30.2850 C.3    13  GLU13       0.1567
      3  C        -11.7660   17.5270   29.7890 C.2    13  GLU13       0.2260
      4  O        -11.1530   17.7240   28.7360 O.2    13  GLU13      -0.2867
      5  CB       -14.1900   18.1160   29.6780 C.3    13  GLU13       0.0388
      6  CG       -14.2730   18.1880   28.1770 C.3    13  GLU13       0.1160
      7  CD       -14.9070   19.4780   27.7030 C.2    13  GLU13       0.3649
      8  OE1      -14.6730   20.5270   28.3430 O.co2  13  GLU13      -0.2457
      9  OE2      -15.6440   19.4390   26.6930 O.co2  13  GLU13      -0.2457
     10  N        -10.5040   14.3450   27.9910 N.3    15  LEU15      -0.1231
     11  CA       -10.9570   13.5800   26.8390 C.3    15  LEU15       0.1693
     12  C        -10.4420   12.1500   26.8390 C.2    15  LEU15       0.2593
     13  O        -10.9840   11.3120   26.1100 O.2    15  LEU15      -0.2718
     14  CB       -10.5190   14.2690   25.5400 C.3    15  LEU15       0.0284
     15  CG       -11.0210   15.7110   25.4020 C.3    15  LEU15       0.0019
     16  CD1      -10.4110   16.3940   24.1940 C.3    15  LEU15       0.0001
     17  CD2      -12.5330   15.7310   25.3080 C.3    15  LEU15       0.0001
     18  N         -9.4130   11.8550   27.6190 N.am   16  GLY16      -0.1942
     19  CA        -8.8900   10.5040   27.6640 C.3    16  GLY16       0.2014
     20  C         -7.4260   10.5140   28.0550 C.2    16  GLY16       0.2638
     21  O         -6.9300   11.4780   28.6370 O.2    16  GLY16      -0.2714
     22  N         -6.7530    9.4190   27.7070 N.am   17  GLN17      -0.1977
     23  CA        -5.3670    9.1980   28.0800 C.3    17  GLN17       0.1601
     24  C         -4.6040    8.6180   26.8990 C.2    17  GLN17       0.2287
     25  O         -5.1500    7.8300   26.1240 O.2    17  GLN17      -0.2864
     26  CB        -5.2570    8.2460   29.2830 C.3    17  GLN17       0.0394
     27  CG        -5.9720    8.7320   30.5350 C.3    17  GLN17       0.0908
     28  CD        -6.1040    7.6580   31.6060 C.2    17  GLN17       0.2608
     29  OE1       -5.7570    6.4960   31.3890 O.2    17  GLN17      -0.2717
     30  NE2       -6.6110    8.0480   32.7710 N.am   17  GLN17      -0.0878
     31  N         -5.0750   13.8080   28.3690 N.3    23  ILE23      -0.1245
     32  CA        -5.4930   14.6640   27.2650 C.3    23  ILE23       0.1561
     33  C         -6.7590   15.4010   27.6770 C.2    23  ILE23       0.2260
     34  O         -7.6790   14.7940   28.2340 O.2    23  ILE23      -0.2867
     35  CB        -5.7100   13.8420   25.9810 C.3    23  ILE23       0.0252
     36  CG1       -4.4010   13.1660   25.5700 C.3    23  ILE23       0.0019
     37  CG2       -6.2130   14.7210   24.8560 C.3    23  ILE23       0.0019
     38  CD1       -4.5910   11.9910   24.6350 C.3    23  ILE23       0.0001
     39  N         -9.5640   18.9040   26.7270 N.3    25  LYS25      -0.1245
     40  CA        -9.9760   20.0540   25.9430 C.3    25  LYS25       0.1561
     41  C         -9.6460   21.3250   26.7200 C.2    25  LYS25       0.2260
     42  O         -9.6760   21.3450   27.9540 O.2    25  LYS25      -0.2867
     43  CB       -11.4700   19.9910   25.6180 C.3    25  LYS25       0.0271
     44  CG       -11.9370   21.1180   24.6980 C.3    25  LYS25       0.0035
     45  CD       -13.3970   20.9810   24.2980 C.3    25  LYS25       0.0206
     46  CE       -13.7910   22.0680   23.3010 C.3    25  LYS25       0.1093
     47  NZ       -15.1790   21.8850   22.7890 N.3    25  LYS25      -0.1314
     48  N         -6.5100   21.4290   21.9610 N.3    43  LEU43      -0.1245
     49  CA        -6.2440   20.1200   22.5320 C.3    43  LEU43       0.1561
     50  C         -4.9740   20.2210   23.3630 C.2    43  LEU43       0.2260
     51  O         -3.9280   20.6420   22.8560 O.2    43  LEU43      -0.2867
     52  CB        -6.0870   19.0740   21.4240 C.3    43  LEU43       0.0270
     53  CG        -6.1320   17.5620   21.7200 C.3    43  LEU43       0.0019
     54  CD1       -4.8740   17.0580   22.4230 C.3    43  LEU43       0.0001
     55  CD2       -7.3810   17.1880   22.5100 C.3    43  LEU43       0.0001
     56  N         -2.2500   18.2000   25.6140 N.3    45  LYS45      -0.1245
     57  CA        -1.6690   16.9110   25.9750 C.3    45  LYS45       0.1561
     58  C         -0.6290   17.1290   27.0660 C.2    45  LYS45       0.2260
     59  O          0.2840   17.9390   26.8990 O.2    45  LYS45      -0.2867
     60  CB        -1.0450   16.2290   24.7520 C.3    45  LYS45       0.0271
     61  CG        -0.2980   14.9680   25.1280 C.3    45  LYS45       0.0035
     62  CD         0.3730   14.3150   23.9590 C.3    45  LYS45       0.0206
     63  CE        -0.6240   13.5510   23.1380 C.3    45  LYS45       0.1093
     64  NZ         0.0960   12.6930   22.1480 N.3    45  LYS45      -0.1314
     65  N         -2.4360   17.2270   11.7870 N.3    74  VAL74      -0.1245
     66  CA        -2.9780   18.1140   12.8120 C.3    74  VAL74       0.1561
     67  C         -1.9730   19.2160   13.1300 C.2    74  VAL74       0.2260
     68  O         -0.7560   18.9930   13.1510 O.2    74  VAL74      -0.2867
     69  CB        -3.3470   17.3070   14.0690 C.3    74  VAL74       0.0252
     70  CG1       -2.1360   16.5910   14.5820 C.3    74  VAL74       0.0019
     71  CG2       -3.9090   18.2120   15.1590 C.3    74  VAL74       0.0019
     72  N         -2.2860   21.8530   20.7790 N.3    90  GLN90      -0.1231
     73  CA        -2.5640   21.4510   19.4080 C.3    90  GLN90       0.1698
     74  C         -3.9740   21.8590   18.9970 C.2    90  GLN90       0.2592
     75  O         -4.8020   22.2550   19.8230 O.2    90  GLN90      -0.2718
     76  CB        -2.4000   19.9360   19.2350 C.3    90  GLN90       0.0381
     77  CG        -1.0770   19.4040   19.7460 C.3    90  GLN90       0.0905
     78  CD        -0.9160   17.9200   19.4960 C.2    90  GLN90       0.2608
     79  OE1       -1.7900   17.1250   19.8400 O.2    90  GLN90      -0.2717
     80  NE2        0.1990   17.5400   18.8830 N.am   90  GLN90      -0.0878
     81  N         -4.2290   21.7490   17.6940 N.am   91  GLU91      -0.1966
     82  CA        -5.5440   22.0250   17.1270 C.3    91  GLU91       0.1733
     83  C         -6.5870   21.0560   17.6740 C.2    91  GLU91       0.2616
     84  O         -6.3300   19.8600   17.8230 O.2    91  GLU91      -0.2715
     85  CB        -5.4580   21.9260   15.5970 C.3    91  GLU91       0.0429
     86  CG        -6.7280   21.5050   14.8770 C.3    91  GLU91       0.1163
     87  CD        -6.5100   21.3100   13.3770 C.2    91  GLU91       0.3649
     88  OE1       -5.3590   21.0400   12.9590 O.co2  91  GLU91      -0.2457
     89  OE2       -7.4920   21.4300   12.6160 O.co2  91  GLU91      -0.2457
     90  N         -7.7730   21.5810   17.9790 N.am   92  PHE92      -0.1960
     91  CA        -8.8810   20.7590   18.4600 C.3    92  PHE92       0.1771
     92  C         -9.7470   20.3560   17.2710 C.2    92  PHE92       0.2619
     93  O        -10.4160   21.2020   16.6660 O.2    92  PHE92      -0.2715
     94  CB        -9.7060   21.5050   19.5080 C.3    92  PHE92       0.0574
     95  CG       -10.8200   20.6840   20.0930 C.ar   92  PHE92      -0.0200
     96  CD1      -10.5580   19.7480   21.0800 C.ar   92  PHE92      -0.0042
     97  CD2      -12.1270   20.8450   19.6580 C.ar   92  PHE92      -0.0042
     98  CE1      -11.5790   18.9800   21.6220 C.ar   92  PHE92      -0.0003
     99  CE2      -13.1540   20.0830   20.1990 C.ar   92  PHE92      -0.0003
    100  CZ       -12.8790   19.1490   21.1830 C.ar   92  PHE92      -0.0000
    101  N         -9.7370   19.0690   16.9410 N.am   93  VAL93      -0.1963
    102  CA       -10.4940   18.5410   15.8120 C.3    93  VAL93       0.1727
    103  C        -11.8800   18.1530   16.3060 C.2    93  VAL93       0.2616
    104  O        -12.0140   17.2950   17.1850 O.2    93  VAL93      -0.2715
    105  CB        -9.7730   17.3450   15.1770 C.3    93  VAL93       0.0290
    106  CG1      -10.5160   16.8670   13.9430 C.3    93  VAL93       0.0023
    107  CG2       -8.3380   17.7180   14.8350 C.3    93  VAL93       0.0023
    108  N        -12.9120   18.7570   15.7110 N.am   94  LYS94      -0.1963
    109  CA       -14.2460   18.7720   16.3090 C.3    94  LYS94       0.1728
    110  C        -14.7460   17.3780   16.6900 C.2    94  LYS94       0.2616
    111  O        -15.1830   17.1550   17.8210 O.2    94  LYS94      -0.2715
    112  CB       -15.2300   19.4410   15.3510 C.3    94  LYS94       0.0311
    113  CG       -16.6570   19.4760   15.8560 C.3    94  LYS94       0.0038
    114  CD       -17.4620   20.5410   15.1300 C.3    94  LYS94       0.0206
    115  CE       -18.9110   20.5370   15.5780 C.3    94  LYS94       0.1093
    116  NZ       -19.7030   21.5980   14.8880 N.3    94  LYS94      -0.1314
    117  N        -14.7030   16.4280   15.7590 N.am   95  PHE95      -0.1960
    118  CA       -15.3830   15.1530   15.9580 C.3    95  PHE95       0.1771
    119  C        -14.4900   14.0700   16.5560 C.2    95  PHE95       0.2620
    120  O        -14.9450   12.9340   16.7230 O.2    95  PHE95      -0.2715
    121  CB       -15.9900   14.6780   14.6360 C.3    95  PHE95       0.0574
    122  CG       -17.0200   15.6210   14.0840 C.ar   95  PHE95      -0.0200
    123  CD1      -18.3360   15.5520   14.5090 C.ar   95  PHE95      -0.0042
    124  CD2      -16.6700   16.5900   13.1570 C.ar   95  PHE95      -0.0042
    125  CE1      -19.2890   16.4260   14.0130 C.ar   95  PHE95      -0.0003
    126  CE2      -17.6170   17.4640   12.6560 C.ar   95  PHE95      -0.0003
    127  CZ       -18.9270   17.3830   13.0860 C.ar   95  PHE95      -0.0000
    128  N        -13.2420   14.3870   16.8830 N.am   96  GLY96      -0.1940
    129  CA       -12.4400   13.4410   17.6370 C.3    96  GLY96       0.2014
    130  C        -11.9190   12.2350   16.8650 C.2    96  GLY96       0.2639
    131  O        -11.9030   12.1840   15.6310 O.2    96  GLY96      -0.2714
    132  N        -11.4860   11.2440   17.6430 N.am   97  SER97      -0.1949
    133  CA       -10.7790   10.0960   17.0960 C.3    97  SER97       0.1924
    134  C        -11.6860    9.2670   16.1960 C.2    97  SER97       0.2314
    135  O        -12.8970    9.1670   16.4190 O.2    97  SER97      -0.2863
    136  CB       -10.2270    9.2270   18.2300 C.3    97  SER97       0.2116
    137  OG        -9.0520    9.8040   18.7710 O.3    97  SER97      -0.2180
    138  N        -11.6500    5.9490   15.6860 N.3    99  ASP99      -0.1225
    139  CA       -12.1150    4.6570   16.1890 C.3    99  ASP99       0.1805
    140  C        -13.3870    4.8150   17.0180 C.2    99  ASP99       0.2598
    141  O        -14.3350    4.0310   16.8700 O.2    99  ASP99      -0.2718
    142  CB       -11.0110    3.9560   16.9900 C.3    99  ASP99       0.1424
    143  CG       -10.6340    4.6940   18.2540 C.2    99  ASP99       0.3668
    144  OD1      -10.6090    5.9390   18.2380 O.co2  99  ASP99      -0.2456
    145  OD2      -10.3650    4.0220   19.2770 O.co2  99  ASP99      -0.2456
    146  N        -13.4330    5.8320   17.8830 N.am  100  THR100     -0.1953
    147  CA       -14.6630    6.1350   18.6080 C.3   100  THR100      0.1897
    148  C        -15.7960    6.4530   17.6410 C.2   100  THR100      0.2313
    149  O        -16.9100    5.9270   17.7690 O.2   100  THR100     -0.2863
    150  CB       -14.4320    7.3070   19.5650 C.3   100  THR100      0.1794
    151  OG1      -13.2860    7.0440   20.3860 O.3   100  THR100     -0.2208
    152  CG2      -15.6480    7.5130   20.4570 C.3   100  THR100      0.0378
    153  N         -7.0870    5.5910   16.3710 N.3   141  LYS141     -0.1231
    154  CA        -7.1960    6.5760   17.4420 C.3   141  LYS141      0.1693
    155  C         -6.4450    7.8560   17.1080 C.2   141  LYS141      0.2592
    156  O         -6.7830    8.9280   17.6280 O.2   141  LYS141     -0.2718
    157  CB        -6.6770    5.9890   18.7560 C.3   141  LYS141      0.0285
    158  CG        -6.7290    6.9600   19.9330 C.3   141  LYS141      0.0035
    159  CD        -6.3890    6.2310   21.2340 C.3   141  LYS141      0.0206
    160  CE        -6.4920    7.1730   22.4250 C.3   141  LYS141      0.1093
    161  NZ        -5.2530    7.9860   22.5740 N.3   141  LYS141     -0.1314
    162  N         -5.4150    7.7690   16.2680 N.am  142  ASN142     -0.1974
    163  CA        -4.6350    8.9350   15.8730 C.3   142  ASN142      0.1688
    164  C         -5.1230    9.5550   14.5670 C.2   142  ASN142      0.2292
    165  O         -4.4380   10.4150   14.0040 O.2   142  ASN142     -0.2864
    166  CB        -3.1520    8.5720   15.7590 C.3   142  ASN142      0.1181
    167  CG        -2.4760    8.4700   17.1100 C.2   142  ASN142      0.2629
    168  OD1       -2.9500    9.0460   18.0930 O.2   142  ASN142     -0.2716
    169  ND2       -1.3640    7.7400   17.1690 N.am  142  ASN142     -0.0877
    170  N         -8.2880   11.8060   13.1270 N.3   144  LEU144     -0.1245
    171  CA        -9.2890   12.7010   13.6810 C.3   144  LEU144      0.1561
    172  C        -10.1850   13.2150   12.5670 C.2   144  LEU144      0.2260
    173  O         -9.7180   13.4900   11.4560 O.2   144  LEU144     -0.2867
    174  CB        -8.6120   13.8530   14.4160 C.3   144  LEU144      0.0270
    175  CG        -7.7040   13.3120   15.5220 C.3   144  LEU144      0.0019
    176  CD1       -6.5280   14.2260   15.7570 C.3   144  LEU144      0.0001
    177  CD2       -8.4940   13.1090   16.8040 C.3   144  LEU144      0.0001
    178  N         -2.8390   12.5940   13.5890 N.3   162  SER162     -0.1202
    179  CA        -2.2960   13.2380   14.7740 C.3   162  SER162      0.2020
    180  C         -0.8440   12.8180   15.0020 C.2   162  SER162      0.2618
    181  O         -0.3030   11.9560   14.3070 O.2   162  SER162     -0.2717
    182  CB        -3.1500   12.9230   15.9990 C.3   162  SER162      0.2103
    183  OG        -2.6890   13.6550   17.1220 O.3   162  SER162     -0.2182
    184  N         -0.2000   13.4360   15.9930 N.am  163  ASP163     -0.1973
    185  CA         1.1910   13.1210   16.2790 C.3   163  ASP163      0.1709
    186  C          1.2980   11.7380   16.9240 C.2   163  ASP163      0.2293
    187  O          0.3380   11.2430   17.5200 O.2   163  ASP163     -0.2864
    188  CB         1.8120   14.1940   17.1750 C.3   163  ASP163      0.1436
    189  CG         1.5540   13.9570   18.6440 C.2   163  ASP163      0.3671
    190  OD1        0.4520   14.3070   19.1150 O.co2 163  ASP163     -0.2456
    191  OD2        2.4560   13.4190   19.3220 O.co2 163  ASP163     -0.2456
@<TRIPOS>BOND
     1   173   172    2
     2    65    66    1
     3   172   171    1
     4    89    87   ar
     5   126   127   ar
     6   126   124   ar
     7    66    67    1
     8    66    69    1
     9    88    87   ar
    10   127   125   ar
    11   170   171    1
    12    67    68    2
    13   124   122   ar
    14    87    86    1
    15   178   179    1
    16   171   174    1
    17   106   105    1
    18   165   164    2
    19   125   123   ar
    20    69    70    1
    21    69    71    1
    22   122   123   ar
    23   122   121    1
    24   181   180    2
    25   174   175    1
    26   164   163    1
    27   121   118    1
    28   179   180    1
    29   179   182    1
    30   107   105    1
    31    86    85    1
    32   116   115    1
    33   180   184   am
    34   114   115    1
    35   114   113    1
    36   105   102    1
    37   112   113    1
    38   112   109    1
    39   175   176    1
    40   175   177    1
    41    85    82    1
    42   131   130    2
    43   138   139    1
    44   108   103   am
    45   108   109    1
    46   117   118    1
    47   117   110   am
    48   166   163    1
    49   166   167    1
    50   102   103    1
    51   102   101    1
    52   163   162    1
    53   118   119    1
    54   184   185    1
    55   182   183    1
    56   139   142    1
    57   139   140    1
    58   134   135    2
    59   134   133    1
    60   162   155   am
    61   185   186    1
    62   185   188    1
    63   103   104    2
    64   109   110    1
    65   153   154    1
    66   119   120    2
    67   119   128   am
    68    93    92    2
    69   110   111    2
    70   130   129    1
    71   130   132   am
    72   141   140    2
    73   128   129    1
    74   186   187    2
    75   101    92   am
    76   142   143    1
    77   140   146   am
    78   133   132    1
    79   133   136    1
    80   155   154    1
    81   155   156    2
    82   167   169   am
    83   167   168    2
    84    82    83    1
    85    82    81    1
    86   188   189    1
    87    92    91    1
    88   154   157    1
    89   148   149    2
    90   148   147    1
    91    83    84    2
    92    83    90   am
    93    81    74   am
    94   146   147    1
    95    90    91    1
    96   136   137    1
    97   144   143   ar
    98   143   145   ar
    99    91    94    1
   100   147   150    1
   101   189   190   ar
   102   189   191   ar
   103   157   158    1
   104    80    78   am
   105    74    73    1
   106    74    75    2
   107    76    73    1
   108    76    77    1
   109    73    72    1
   110    78    77    1
   111    78    79    2
   112    94    95    1
   113   150   151    1
   114   150   152    1
   115    97    95   ar
   116    97    99   ar
   117   158   159    1
   118    95    96   ar
   119    99   100   ar
   120    96    98   ar
   121   100    98   ar
   122   159   160    1
   123    52    53    1
   124    52    49    1
   125    53    54    1
   126    53    55    1
   127    48    49    1
   128    64    63    1
   129   160   161    1
   130    49    50    1
   131    47    46    1
   132    51    50    2
   133    63    62    1
   134    46    45    1
   135    62    61    1
   136    16    15    1
   137    45    44    1
   138    38    36    1
   139    44    43    1
   140    60    61    1
   141    60    57    1
   142    37    35    1
   143    17    15    1
   144    15    14    1
   145    14    11    1
   146    36    35    1
   147    56    57    1
   148    43    40    1
   149    40    41    1
   150    40    39    1
   151    57    58    1
   152    35    32    1
   153    13    12    2
   154    25    24    2
   155     9     7   ar
   156    41    42    2
   157    12    11    1
   158    12    18   am
   159    11    10    1
   160    59    58    2
   161    24    23    1
   162    32    33    1
   163    32    31    1
   164    18    19    1
   165    19    20    1
   166    33    34    2
   167     7     6    1
   168     7     8   ar
   169    22    20   am
   170    22    23    1
   171    20    21    2
   172    23    26    1
   173     6     5    1
   174     4     3    2
   175    26    27    1
   176     5     2    1
   177     3     2    1
   178     1     2    1
   179    27    28    1
   180    29    28    2
   181    28    30   am
