@<TRIPOS>MOLECULE
tmp/5ut5A00.pdb
 177 169 0 0 0
SMALL
GASTEIGER

@<TRIPOS>ATOM
      1  N        -10.2980   14.2700   27.7620 N.3    15  LEU15      -0.1231
      2  CA       -10.5270   13.4430   26.5860 C.3    15  LEU15       0.1693
      3  C         -9.8430   12.0820   26.6970 C.2    15  LEU15       0.2593
      4  O         -9.6850   11.3870   25.6900 O.2    15  LEU15      -0.2718
      5  CB       -10.0450   14.1700   25.3320 C.3    15  LEU15       0.0284
      6  CG       -10.6930   15.5470   25.1450 C.3    15  LEU15       0.0019
      7  CD1      -10.1380   16.2010   23.9090 C.3    15  LEU15       0.0001
      8  CD2      -12.1970   15.4050   25.0170 C.3    15  LEU15       0.0001
      9  N         -9.4260   11.6920   27.8910 N.am   16  GLY16      -0.1942
     10  CA        -8.8000   10.4100   28.0830 C.3    16  GLY16       0.2014
     11  C         -7.3030   10.5170   28.2780 C.2    16  GLY16       0.2639
     12  O         -6.7540   11.5560   28.6430 O.2    16  GLY16      -0.2714
     13  N         -6.6300    9.4040   28.0370 N.am   17  GLN17      -0.1963
     14  CA        -5.2040    9.3590   28.3030 C.3    17  GLN17       0.1733
     15  C         -4.5030    8.6220   27.1810 C.2    17  GLN17       0.2616
     16  O         -5.0740    7.7390   26.5370 O.2    17  GLN17      -0.2715
     17  CB        -4.9030    8.7080   29.6670 C.3    17  GLN17       0.0408
     18  CG        -5.6930    7.4500   29.9640 C.3    17  GLN17       0.0908
     19  CD        -5.6450    7.0710   31.4360 C.2    17  GLN17       0.2608
     20  OE1       -5.6380    5.8950   31.7830 O.2    17  GLN17      -0.2717
     21  NE2       -5.6180    8.0740   32.3070 N.am   17  GLN17      -0.0878
     22  N         -3.2630    9.0330   26.9260 N.am   18  GLY18      -0.1955
     23  CA        -2.3620    8.3150   26.0610 C.3    18  GLY18       0.1869
     24  C         -1.2510    7.6770   26.8670 C.2    18  GLY18       0.2309
     25  O         -1.3150    7.5730   28.0930 O.2    18  GLY18      -0.2863
     26  N         -5.0150   13.9550   28.2850 N.3    23  ILE23      -0.1245
     27  CA        -5.4390   14.7960   27.1750 C.3    23  ILE23       0.1561
     28  C         -6.7230   15.5150   27.5600 C.2    23  ILE23       0.2260
     29  O         -7.6000   14.9150   28.1890 O.2    23  ILE23      -0.2867
     30  CB        -5.6360   13.9400   25.9010 C.3    23  ILE23       0.0252
     31  CG1       -4.3480   13.1810   25.5680 C.3    23  ILE23       0.0019
     32  CG2       -6.0590   14.8130   24.7400 C.3    23  ILE23       0.0019
     33  CD1       -4.5640   11.9040   24.7270 C.3    23  ILE23       0.0001
     34  N         -9.6520   18.8730   26.3700 N.3    25  LYS25      -0.1245
     35  CA       -10.0830   20.0150   25.5810 C.3    25  LYS25       0.1561
     36  C         -9.7730   21.2780   26.3770 C.2    25  LYS25       0.2260
     37  O         -9.8570   21.2890   27.6040 O.2    25  LYS25      -0.2867
     38  CB       -11.5760   19.9200   25.2550 C.3    25  LYS25       0.0271
     39  CG       -12.0780   21.0330   24.3470 C.3    25  LYS25       0.0035
     40  CD       -13.5470   20.8440   23.9900 C.3    25  LYS25       0.0206
     41  CE       -13.9800   21.9010   22.9640 C.3    25  LYS25       0.1093
     42  NZ       -15.4160   21.6900   22.6120 N.3    25  LYS25      -0.1314
     43  N         -6.5460   21.4200   21.6940 N.3    43  LEU43      -0.1245
     44  CA        -6.2520   20.1250   22.2890 C.3    43  LEU43       0.1561
     45  C         -5.0060   20.2920   23.1520 C.2    43  LEU43       0.2260
     46  O         -3.9670   20.7380   22.6600 O.2    43  LEU43      -0.2867
     47  CB        -6.0440   19.0800   21.1890 C.3    43  LEU43       0.0270
     48  CG        -5.9080   17.5740   21.4890 C.3    43  LEU43       0.0019
     49  CD1       -4.6370   17.2270   22.2370 C.3    43  LEU43       0.0001
     50  CD2       -7.1330   17.0640   22.2090 C.3    43  LEU43       0.0001
     51  N         -2.4720   17.1010   11.6370 N.3    74  VAL74      -0.1245
     52  CA        -2.9500   17.9800   12.7020 C.3    74  VAL74       0.1561
     53  C         -1.9290   19.0730   12.9890 C.2    74  VAL74       0.2260
     54  O         -0.7200   18.8190   13.0570 O.2    74  VAL74      -0.2867
     55  CB        -3.2450   17.1460   13.9650 C.3    74  VAL74       0.0252
     56  CG1       -3.5420   18.0440   15.1550 C.3    74  VAL74       0.0019
     57  CG2       -4.4130   16.2140   13.7140 C.3    74  VAL74       0.0019
     58  N         -2.3330   21.8540   20.5620 N.3    90  GLN90      -0.1231
     59  CA        -2.5970   21.4050   19.2060 C.3    90  GLN90       0.1698
     60  C         -3.9920   21.8120   18.7590 C.2    90  GLN90       0.2592
     61  O         -4.8570   22.1910   19.5490 O.2    90  GLN90      -0.2718
     62  CB        -2.4420   19.8780   19.0990 C.3    90  GLN90       0.0381
     63  CG        -1.0550   19.4090   19.4640 C.3    90  GLN90       0.0905
     64  CD        -0.9190   17.8990   19.4050 C.2    90  GLN90       0.2608
     65  OE1       -1.8500   17.1700   19.7420 O.2    90  GLN90      -0.2717
     66  NE2        0.2400   17.4280   18.9600 N.am   90  GLN90      -0.0878
     67  N         -4.1990   21.7050   17.4580 N.am   91  GLU91      -0.1966
     68  CA        -5.5070   21.9470   16.8750 C.3    91  GLU91       0.1733
     69  C         -6.5480   20.9970   17.4680 C.2    91  GLU91       0.2616
     70  O         -6.2880   19.8110   17.6820 O.2    91  GLU91      -0.2715
     71  CB        -5.3960   21.7780   15.3570 C.3    91  GLU91       0.0429
     72  CG        -6.5860   21.1720   14.6870 C.3    91  GLU91       0.1163
     73  CD        -6.3780   21.0340   13.1970 C.2    91  GLU91       0.3649
     74  OE1       -5.2100   20.8700   12.7730 O.co2  91  GLU91      -0.2457
     75  OE2       -7.3860   21.0840   12.4610 O.co2  91  GLU91      -0.2457
     76  N         -7.7290   21.5270   17.7630 N.am   92  PHE92      -0.1960
     77  CA        -8.8340   20.7110   18.2520 C.3    92  PHE92       0.1771
     78  C         -9.7250   20.3160   17.0790 C.2    92  PHE92       0.2619
     79  O        -10.2970   21.1860   16.4180 O.2    92  PHE92      -0.2715
     80  CB        -9.6520   21.4620   19.3040 C.3    92  PHE92       0.0574
     81  CG       -10.8160   20.6740   19.8110 C.ar   92  PHE92      -0.0200
     82  CD1      -10.6310   19.7110   20.7720 C.ar   92  PHE92      -0.0042
     83  CD2      -12.0880   20.8830   19.2950 C.ar   92  PHE92      -0.0042
     84  CE1      -11.7120   18.9530   21.2430 C.ar   92  PHE92      -0.0003
     85  CE2      -13.1650   20.1400   19.7490 C.ar   92  PHE92      -0.0003
     86  CZ       -12.9730   19.1730   20.7320 C.ar   92  PHE92      -0.0000
     87  N         -9.8440   19.0130   16.8330 N.am   93  VAL93      -0.1963
     88  CA       -10.5840   18.4680   15.6940 C.3    93  VAL93       0.1727
     89  C        -11.9870   18.1200   16.1720 C.2    93  VAL93       0.2616
     90  O        -12.1480   17.3290   17.1080 O.2    93  VAL93      -0.2715
     91  CB        -9.8680   17.2350   15.1190 C.3    93  VAL93       0.0290
     92  CG1      -10.6060   16.6600   13.9110 C.3    93  VAL93       0.0023
     93  CG2       -8.4280   17.5810   14.7560 C.3    93  VAL93       0.0023
     94  N        -13.0020   18.6810   15.5110 N.am   94  LYS94      -0.1963
     95  CA       -14.3630   18.6680   16.0520 C.3    94  LYS94       0.1728
     96  C        -14.8610   17.2660   16.4320 C.2    94  LYS94       0.2616
     97  O        -15.4520   17.0790   17.5000 O.2    94  LYS94      -0.2715
     98  CB       -15.3220   19.2980   15.0500 C.3    94  LYS94       0.0311
     99  CG       -16.7240   19.4750   15.5850 C.3    94  LYS94       0.0038
    100  CD       -17.5930   20.2410   14.6000 C.3    94  LYS94       0.0206
    101  CE       -19.0140   20.3590   15.1130 C.3    94  LYS94       0.1093
    102  NZ       -19.9410   20.9640   14.1070 N.3    94  LYS94      -0.1314
    103  N        -14.7150   16.2850   15.5480 N.am   95  PHE95      -0.1960
    104  CA       -15.4040   15.0140   15.7640 C.3    95  PHE95       0.1771
    105  C        -14.5310   13.9360   16.3730 C.2    95  PHE95       0.2620
    106  O        -15.0160   12.8190   16.5770 O.2    95  PHE95      -0.2715
    107  CB       -16.0080   14.5100   14.4520 C.3    95  PHE95       0.0574
    108  CG       -17.0490   15.4230   13.9120 C.ar   95  PHE95      -0.0200
    109  CD1      -18.3510   15.3290   14.3460 C.ar   95  PHE95      -0.0042
    110  CD2      -16.7110   16.4200   13.0040 C.ar   95  PHE95      -0.0042
    111  CE1      -19.3190   16.2040   13.8640 C.ar   95  PHE95      -0.0003
    112  CE2      -17.6590   17.2900   12.5200 C.ar   95  PHE95      -0.0003
    113  CZ       -18.9730   17.1840   12.9490 C.ar   95  PHE95      -0.0000
    114  N        -13.2600   14.2230   16.6380 N.am   96  GLY96      -0.1940
    115  CA       -12.4340   13.3330   17.4330 C.3    96  GLY96       0.2014
    116  C        -11.9110   12.0870   16.7310 C.2    96  GLY96       0.2639
    117  O        -11.8920   11.9580   15.5060 O.2    96  GLY96      -0.2714
    118  N        -11.4700   11.1470   17.5670 N.am   97  SER97      -0.1949
    119  CA       -10.7400    9.9750   17.1030 C.3    97  SER97       0.1924
    120  C        -11.6310    9.0710   16.2690 C.2    97  SER97       0.2314
    121  O        -12.8120    8.8880   16.5750 O.2    97  SER97      -0.2863
    122  CB       -10.1970    9.1890   18.3080 C.3    97  SER97       0.2116
    123  OG        -9.0630    9.8290   18.8650 O.3    97  SER97      -0.2180
    124  N        -11.5800    5.7300   15.7620 N.3    99  ASP99      -0.1225
    125  CA       -12.0760    4.4480   16.2660 C.3    99  ASP99       0.1805
    126  C        -13.3700    4.6310   17.0620 C.2    99  ASP99       0.2598
    127  O        -14.3110    3.8330   16.9310 O.2    99  ASP99      -0.2718
    128  CB       -11.0000    3.7380   17.0980 C.3    99  ASP99       0.1424
    129  CG       -10.6460    4.4790   18.3700 C.2    99  ASP99       0.3668
    130  OD1      -10.7010    5.7190   18.3800 O.co2  99  ASP99      -0.2456
    131  OD2      -10.3090    3.8100   19.3680 O.co2  99  ASP99      -0.2456
    132  N        -13.4490    5.6970   17.8700 N.am  100  THR100     -0.1953
    133  CA       -14.6760    5.9660   18.6180 C.3   100  THR100      0.1897
    134  C        -15.8240    6.2820   17.6750 C.2   100  THR100      0.2313
    135  O        -16.9500    5.8100   17.8650 O.2   100  THR100     -0.2863
    136  CB       -14.4570    7.1370   19.5820 C.3   100  THR100      0.1794
    137  OG1      -13.3700    6.8360   20.4680 O.3   100  THR100     -0.2208
    138  CG2      -15.7220    7.4070   20.3920 C.3   100  THR100      0.0378
    139  N         -7.0750    5.4700   16.4150 N.3   141  LYS141     -0.1231
    140  CA        -7.2940    6.5050   17.4210 C.3   141  LYS141      0.1693
    141  C         -6.5010    7.7680   17.1020 C.2   141  LYS141      0.2592
    142  O         -6.8900    8.8550   17.5480 O.2   141  LYS141     -0.2718
    143  CB        -6.9770    5.9890   18.8310 C.3   141  LYS141      0.0285
    144  CG        -5.5200    5.8460   19.1610 C.3   141  LYS141      0.0035
    145  CD        -5.3480    5.7540   20.6790 C.3   141  LYS141      0.0206
    146  CE        -3.8810    5.6130   21.0800 C.3   141  LYS141      0.1093
    147  NZ        -3.0080    6.7470   20.6330 N.3   141  LYS141     -0.1314
    148  N         -5.4450    7.6620   16.2930 N.am  142  ASN142     -0.1974
    149  CA        -4.6790    8.8280   15.8640 C.3   142  ASN142      0.1688
    150  C         -5.1680    9.3980   14.5320 C.2   142  ASN142      0.2292
    151  O         -4.4860   10.2400   13.9390 O.2   142  ASN142     -0.2864
    152  CB        -3.1880    8.4920   15.7710 C.3   142  ASN142      0.1181
    153  CG        -2.5180    8.3840   17.1330 C.2   142  ASN142      0.2629
    154  OD1       -3.0420    8.8630   18.1410 O.2   142  ASN142     -0.2716
    155  ND2       -1.3420    7.7610   17.1660 N.am  142  ASN142     -0.0877
    156  N         -8.2320   11.6610   13.1290 N.3   144  LEU144     -0.1245
    157  CA        -9.2280   12.5810   13.6390 C.3   144  LEU144      0.1561
    158  C        -10.1380   13.0490   12.5160 C.2   144  LEU144      0.2260
    159  O         -9.6710   13.3460   11.4100 O.2   144  LEU144     -0.2867
    160  CB        -8.5540   13.7810   14.2830 C.3   144  LEU144      0.0270
    161  CG        -7.6380   13.2520   15.3840 C.3   144  LEU144      0.0019
    162  CD1       -6.6770   14.3070   15.7600 C.3   144  LEU144      0.0001
    163  CD2       -8.4740   12.8310   16.5800 C.3   144  LEU144      0.0001
    164  N         -2.8890   12.5760   13.6010 N.3   162  SER162     -0.1202
    165  CA        -2.3430   13.2860   14.7480 C.3   162  SER162      0.2020
    166  C         -0.9090   12.8220   15.0040 C.2   162  SER162      0.2618
    167  O         -0.4070   11.8970   14.3620 O.2   162  SER162     -0.2717
    168  CB        -3.2170   13.0720   15.9880 C.3   162  SER162      0.2103
    169  OG        -3.2190   11.7010   16.3710 O.3   162  SER162     -0.2182
    170  N         -0.2350   13.4660   15.9590 N.am  163  ASP163     -0.1973
    171  CA         1.1730   13.1560   16.2040 C.3   163  ASP163      0.1709
    172  C          1.3260   11.7630   16.8210 C.2   163  ASP163      0.2293
    173  O          0.3960   11.2480   17.4460 O.2   163  ASP163     -0.2864
    174  CB         1.8170   14.2180   17.0960 C.3   163  ASP163      0.1436
    175  CG         1.5910   13.9740   18.5700 C.2   163  ASP163      0.3671
    176  OD1        0.5350   14.4080   19.0710 O.co2 163  ASP163     -0.2456
    177  OD2        2.4660   13.3470   19.2150 O.co2 163  ASP163     -0.2456
@<TRIPOS>BOND
     1   159   158    2
     2    51    52    1
     3    75    73   ar
     4   158   157    1
     5   112   113   ar
     6   112   110   ar
     7    52    53    1
     8    52    55    1
     9    74    73   ar
    10   113   111   ar
    11    53    54    2
    12   110   108   ar
    13   156   157    1
    14    73    72    1
    15   164   165    1
    16   157   160    1
    17    57    55    1
    18   111   109   ar
    19    92    91    1
    20   108   109   ar
    21   108   107    1
    22   151   150    2
    23    55    56    1
    24   102   101    1
    25   160   161    1
    26   167   166    2
    27   107   104    1
    28   150   149    1
    29   100   101    1
    30   100    99    1
    31    72    71    1
    32   165   166    1
    33   165   168    1
    34    93    91    1
    35   166   170   am
    36    98    99    1
    37    98    95    1
    38    91    88    1
    39    71    68    1
    40   161   162    1
    41   161   163    1
    42   117   116    2
    43    94    95    1
    44    94    89   am
    45   103   104    1
    46   103    96   am
    47    88    89    1
    48    88    87    1
    49   124   125    1
    50   104   105    1
    51   152   149    1
    52   152   153    1
    53   149   148    1
    54   170   171    1
    55   168   169    1
    56    95    96    1
    57    89    90    2
    58   171   172    1
    59   171   174    1
    60   125   126    1
    61   125   128    1
    62   120   121    2
    63   120   119    1
    64   148   141   am
    65   105   106    2
    66   105   114   am
    67   139   140    1
    68    79    78    2
    69    96    97    2
    70   114   115    1
    71   116   115    1
    72   116   118   am
    73   172   173    2
    74    87    78   am
    75    68    67    1
    76    68    69    1
    77   127   126    2
    78   126   132   am
    79    78    77    1
    80   174   175    1
    81   128   129    1
    82   141   140    1
    83   141   142    2
    84   119   118    1
    85   119   122    1
    86   153   155   am
    87   153   154    2
    88   140   143    1
    89    67    60   am
    90    69    70    2
    91    69    76   am
    92   134   135    2
    93   134   133    1
    94    76    77    1
    95   132   133    1
    96    77    80    1
    97   122   123    1
    98   129   130   ar
    99   129   131   ar
   100   175   176   ar
   101   175   177   ar
   102   133   136    1
   103    60    59    1
   104    60    61    2
   105   143   144    1
   106    66    64   am
   107    62    59    1
   108    62    63    1
   109   144   145    1
   110    59    58    1
   111    83    85   ar
   112    83    81   ar
   113    80    81    1
   114    64    63    1
   115    64    65    2
   116   136   138    1
   117   136   137    1
   118    85    86   ar
   119    81    82   ar
   120   147   146    1
   121   145   146    1
   122    86    84   ar
   123    82    84   ar
   124    47    48    1
   125    47    44    1
   126    48    50    1
   127    48    49    1
   128    43    44    1
   129    44    45    1
   130    42    41    1
   131    46    45    2
   132    41    40    1
   133     7     6    1
   134    40    39    1
   135    39    38    1
   136    33    31    1
   137    32    30    1
   138     8     6    1
   139     6     5    1
   140    38    35    1
   141     5     2    1
   142    31    30    1
   143    35    34    1
   144    35    36    1
   145     4     3    2
   146    30    27    1
   147    23    24    1
   148    23    22    1
   149    36    37    2
   150    16    15    2
   151     2     3    1
   152     2     1    1
   153     3     9   am
   154    24    25    2
   155    22    15   am
   156    27    28    1
   157    27    26    1
   158    15    14    1
   159    28    29    2
   160     9    10    1
   161    13    11   am
   162    13    14    1
   163    10    11    1
   164    11    12    2
   165    14    17    1
   166    17    18    1
   167    18    19    1
   168    19    20    2
   169    19    21   am
