@<TRIPOS>MOLECULE
tmp/5ut6A00.pdb
 153 144 0 0 0
SMALL
GASTEIGER

@<TRIPOS>ATOM
      1  N        -31.8080   14.5040   84.6260 N.3    15  LEU15      -0.1245
      2  CA       -32.1640   13.7870   83.4040 C.3    15  LEU15       0.1561
      3  C        -31.5140   12.4160   83.2990 C.2    15  LEU15       0.2260
      4  O        -31.6520   11.7580   82.2550 O.2    15  LEU15      -0.2867
      5  CB       -31.7800   14.6220   82.1800 C.3    15  LEU15       0.0270
      6  CG       -32.4870   15.9780   82.0910 C.3    15  LEU15       0.0019
      7  CD1      -31.9420   16.7310   80.8600 C.3    15  LEU15       0.0001
      8  CD2      -34.0020   15.8690   82.0340 C.3    15  LEU15       0.0001
      9  N        -28.0940    9.5540   84.4750 N.3    17  GLN17      -0.1245
     10  CA       -26.6900    9.4080   84.8230 C.3    17  GLN17       0.1566
     11  C        -25.9500    8.7160   83.6970 C.2    17  GLN17       0.2260
     12  O        -26.5380    7.9640   82.9170 O.2    17  GLN17      -0.2867
     13  CB       -26.4640    8.5860   86.0910 C.3    17  GLN17       0.0367
     14  CG       -27.5210    8.6190   87.1300 C.3    17  GLN17       0.0905
     15  CD       -27.1850    7.6690   88.2560 C.2    17  GLN17       0.2608
     16  OE1      -26.5930    6.6170   88.0300 O.2    17  GLN17      -0.2717
     17  NE2      -27.5390    8.0410   89.4760 N.am   17  GLN17      -0.0878
     18  N        -26.5060   14.0240   84.7320 N.3    23  ILE23      -0.1245
     19  CA       -26.9390   15.0290   83.7740 C.3    23  ILE23       0.1561
     20  C        -28.1810   15.7290   84.3090 C.2    23  ILE23       0.2260
     21  O        -29.0560   15.0850   84.9130 O.2    23  ILE23      -0.2867
     22  CB       -27.2270   14.3640   82.4080 C.3    23  ILE23       0.0252
     23  CG1      -25.9030   14.1460   81.6710 C.3    23  ILE23       0.0019
     24  CG2      -28.0900   15.1870   81.6240 C.3    23  ILE23       0.0019
     25  CD1      -25.1630   12.9670   82.2200 C.3    23  ILE23       0.0001
     26  N        -28.0630   21.5530   78.6500 N.3    43  LEU43      -0.1245
     27  CA       -27.7590   20.2770   79.3160 C.3    43  LEU43       0.1561
     28  C        -26.4980   20.4440   80.1490 C.2    43  LEU43       0.2260
     29  O        -25.4550   20.8620   79.6310 O.2    43  LEU43      -0.2867
     30  CB       -27.5320   19.2300   78.2290 C.3    43  LEU43       0.0270
     31  CG       -27.4530   17.7520   78.5910 C.3    43  LEU43       0.0019
     32  CD1      -26.1270   17.3960   79.2230 C.3    43  LEU43       0.0001
     33  CD2      -28.7110   17.3600   79.3930 C.3    43  LEU43       0.0001
     34  N        -23.7250   18.4980   82.2660 N.3    45  LYS45      -0.1245
     35  CA       -23.1950   17.1610   82.4840 C.3    45  LYS45       0.1561
     36  C        -22.1010   17.2990   83.5390 C.2    45  LYS45       0.2260
     37  O        -21.1650   18.0850   83.3600 O.2    45  LYS45      -0.2867
     38  CB       -22.7100   16.5890   81.1380 C.3    45  LYS45       0.0271
     39  CG       -22.2700   15.1810   81.1880 C.3    45  LYS45       0.0035
     40  CD       -21.8200   14.6900   79.7640 C.3    45  LYS45       0.0206
     41  CE       -22.9390   14.7270   78.7620 C.3    45  LYS45       0.1093
     42  NZ       -22.5300   14.0580   77.4560 N.3    45  LYS45      -0.1314
     43  N        -23.3230   17.1580   68.3110 N.3    74  VAL74      -0.1245
     44  CA       -23.8460   18.0090   69.3770 C.3    74  VAL74       0.1561
     45  C        -22.9810   19.2540   69.5750 C.2    74  VAL74       0.2260
     46  O        -21.7460   19.2230   69.4580 O.2    74  VAL74      -0.2867
     47  CB       -23.9580   17.1830   70.6770 C.3    74  VAL74       0.0252
     48  CG1      -22.5740   16.8970   71.2390 C.3    74  VAL74       0.0019
     49  CG2      -24.8170   17.9130   71.7490 C.3    74  VAL74       0.0019
     50  N        -23.7940   21.8810   77.4190 N.3    90  GLN90      -0.1231
     51  CA       -24.1310   21.4440   76.0650 C.3    90  GLN90       0.1698
     52  C        -25.5280   21.9420   75.6660 C.2    90  GLN90       0.2592
     53  O        -26.3430   22.3230   76.5250 O.2    90  GLN90      -0.2718
     54  CB       -24.0130   19.8960   76.0550 C.3    90  GLN90       0.0381
     55  CG       -24.5920   19.0700   74.9320 C.3    90  GLN90       0.0905
     56  CD       -24.3390   17.5530   75.2090 C.2    90  GLN90       0.2608
     57  OE1      -25.2820   16.7220   75.3750 O.2    90  GLN90      -0.2717
     58  NE2      -23.0490   17.2100   75.2990 N.am   90  GLN90      -0.0878
     59  N        -25.8060   22.0020   74.3480 N.am   91  GLU91      -0.1966
     60  CA       -27.1430   22.3950   73.9250 C.3    91  GLU91       0.1733
     61  C        -28.1710   21.4540   74.5350 C.2    91  GLU91       0.2616
     62  O        -27.9250   20.2480   74.6970 O.2    91  GLU91      -0.2715
     63  CB       -27.2780   22.3790   72.3910 C.3    91  GLU91       0.0429
     64  CG       -27.0400   21.0150   71.7520 C.3    91  GLU91       0.1163
     65  CD       -27.2660   21.0030   70.2390 C.2    91  GLU91       0.3649
     66  OE1      -28.3140   21.5240   69.7700 O.co2  91  GLU91      -0.2457
     67  OE2      -26.3900   20.4990   69.4950 O.co2  91  GLU91      -0.2457
     68  N        -29.3340   22.0020   74.8780 N.am   92  PHE92      -0.1960
     69  CA       -30.4130   21.1370   75.3520 C.3    92  PHE92       0.1771
     70  C        -31.2080   20.6050   74.1650 C.2    92  PHE92       0.2619
     71  O        -31.6920   21.3780   73.3370 O.2    92  PHE92      -0.2715
     72  CB       -31.3350   21.8740   76.3200 C.3    92  PHE92       0.0574
     73  CG       -32.4680   21.0310   76.7900 C.ar   92  PHE92      -0.0200
     74  CD1      -32.2470   20.0380   77.7590 C.ar   92  PHE92      -0.0042
     75  CD2      -33.7400   21.2520   76.3170 C.ar   92  PHE92      -0.0042
     76  CE1      -33.3210   19.2520   78.2190 C.ar   92  PHE92      -0.0003
     77  CE2      -34.8160   20.4770   76.7480 C.ar   92  PHE92      -0.0003
     78  CZ       -34.6040   19.4810   77.7220 C.ar   92  PHE92      -0.0000
     79  N        -31.3330   19.2800   74.0610 N.am   93  VAL93      -0.1963
     80  CA       -32.0640   18.6550   72.9670 C.3    93  VAL93       0.1727
     81  C        -33.4390   18.2720   73.4860 C.2    93  VAL93       0.2616
     82  O        -33.5520   17.5890   74.5120 O.2    93  VAL93      -0.2715
     83  CB       -31.2810   17.4450   72.4530 C.3    93  VAL93       0.0290
     84  CG1      -32.0960   16.6200   71.4960 C.3    93  VAL93       0.0023
     85  CG2      -29.9800   17.9180   71.8260 C.3    93  VAL93       0.0023
     86  N        -34.4870   18.7160   72.7920 N.am   94  LYS94      -0.1963
     87  CA       -35.8350   18.6100   73.3460 C.3    94  LYS94       0.1728
     88  C        -36.2630   17.1520   73.6060 C.2    94  LYS94       0.2616
     89  O        -36.9590   16.8690   74.5880 O.2    94  LYS94      -0.2715
     90  CB       -36.8110   19.3070   72.4080 C.3    94  LYS94       0.0311
     91  CG       -38.2650   19.1850   72.8200 C.3    94  LYS94       0.0038
     92  CD       -39.1530   20.1760   72.1060 C.3    94  LYS94       0.0206
     93  CE       -40.5000   20.2500   72.8250 C.3    94  LYS94       0.1093
     94  NZ       -41.4480   21.2610   72.2620 N.3    94  LYS94      -0.1314
     95  N        -35.8880   16.2120   72.7470 N.am   95  PHE95      -0.1960
     96  CA       -36.5050   14.8930   72.8560 C.3    95  PHE95       0.1771
     97  C        -35.5950   13.8600   73.5070 C.2    95  PHE95       0.2620
     98  O        -35.9570   12.6660   73.5670 O.2    95  PHE95      -0.2715
     99  CB       -36.9930   14.4390   71.4610 C.3    95  PHE95       0.0574
    100  CG       -38.0490   15.3490   70.9190 C.ar   95  PHE95      -0.0200
    101  CD1      -39.3540   15.2430   71.3680 C.ar   95  PHE95      -0.0042
    102  CD2      -37.7370   16.3540   70.0070 C.ar   95  PHE95      -0.0042
    103  CE1      -40.3500   16.1060   70.9130 C.ar   95  PHE95      -0.0003
    104  CE2      -38.7180   17.2150   69.5370 C.ar   95  PHE95      -0.0003
    105  CZ       -40.0360   17.0960   69.9980 C.ar   95  PHE95      -0.0000
    106  N        -34.4220   14.2780   73.9670 N.am   96  GLY96      -0.1940
    107  CA       -33.5410   13.4380   74.7470 C.3    96  GLY96       0.2014
    108  C        -32.7590   12.4230   73.9370 C.2    96  GLY96       0.2639
    109  O        -32.5960   12.5180   72.7040 O.2    96  GLY96      -0.2714
    110  N        -32.2720   11.4110   74.6540 N.am   97  SER97      -0.1949
    111  CA       -31.3970   10.4230   74.0520 C.3    97  SER97       0.1924
    112  C        -32.2240    9.3250   73.4010 C.2    97  SER97       0.2314
    113  O        -33.3770    9.0510   73.7700 O.2    97  SER97      -0.2863
    114  CB       -30.4260    9.8370   75.0840 C.3    97  SER97       0.2116
    115  OG       -31.1420    9.1780   76.1300 O.3    97  SER97      -0.2180
    116  N        -33.7740    6.0210   75.3600 N.3   100  THR100     -0.1218
    117  CA       -35.0450    6.2390   76.0410 C.3   100  THR100      0.1862
    118  C        -36.1630    6.4280   75.0390 C.2   100  THR100      0.2287
    119  O        -37.2660    5.8920   75.2100 O.2   100  THR100     -0.2866
    120  CB       -34.9410    7.4590   76.9440 C.3   100  THR100      0.1770
    121  OG1      -33.9180    7.2180   77.9090 O.3   100  THR100     -0.2211
    122  CG2      -36.2760    7.7390   77.6330 C.3   100  THR100      0.0375
    123  N        -27.6190    5.6180   73.5610 N.3   141  LYS141     -0.1231
    124  CA       -27.6260    6.5960   74.6480 C.3   141  LYS141      0.1693
    125  C        -26.8410    7.8600   74.2700 C.2   141  LYS141      0.2592
    126  O        -27.0660    8.9240   74.8700 O.2   141  LYS141     -0.2718
    127  CB       -27.0670    5.9710   75.9630 C.3   141  LYS141      0.0285
    128  CG       -27.1740    6.8490   77.1820 C.3   141  LYS141      0.0035
    129  CD       -26.6970    6.1150   78.4480 C.3   141  LYS141      0.0206
    130  CE       -26.7600    7.0400   79.6690 C.3   141  LYS141      0.1093
    131  NZ       -26.9070    6.2470   80.9370 N.3   141  LYS141     -0.1314
    132  N        -25.9450    7.7750   73.2970 N.am  142  ASN142     -0.1974
    133  CA       -25.1760    8.9210   72.8400 C.3   142  ASN142      0.1688
    134  C        -25.7270    9.5040   71.5340 C.2   142  ASN142      0.2292
    135  O        -25.0460   10.3020   70.9090 O.2   142  ASN142     -0.2864
    136  CB       -23.6870    8.5710   72.7070 C.3   142  ASN142      0.1181
    137  CG       -23.0080    8.4800   74.0690 C.2   142  ASN142      0.2629
    138  OD1      -23.4670    9.0880   75.0390 O.2   142  ASN142     -0.2716
    139  ND2      -21.9040    7.7620   74.1370 N.am  142  ASN142     -0.0877
    140  N        -28.8990   11.8460   70.1120 N.3   144  LEU144     -0.1245
    141  CA       -29.8860   12.7730   70.6350 C.3   144  LEU144      0.1561
    142  C        -30.8920   13.1100   69.5460 C.2   144  LEU144      0.2260
    143  O        -30.5070   13.3530   68.3910 O.2   144  LEU144     -0.2867
    144  CB       -29.2020   14.0580   71.1210 C.3   144  LEU144      0.0270
    145  CG       -27.9780   13.8320   72.0600 C.3   144  LEU144      0.0019
    146  CD1      -27.3100   15.1760   72.4060 C.3   144  LEU144      0.0001
    147  CD2      -28.4300   13.1200   73.3190 C.3   144  LEU144      0.0001
    148  N        -23.7300   12.6560   70.3020 N.3   162  SER162     -0.1217
    149  CA       -23.1820   13.3720   71.4420 C.3   162  SER162      0.1889
    150  C        -21.7700   12.8770   71.7390 C.2   162  SER162      0.2288
    151  O        -21.2680   11.9720   71.0740 O.2   162  SER162     -0.2866
    152  CB       -24.0900   13.1920   72.6570 C.3   162  SER162      0.2089
    153  OG       -23.6900   14.0650   73.7220 O.3   162  SER162     -0.2183
@<TRIPOS>BOND
     1    43    44    1
     2   143   142    2
     3    44    45    1
     4    44    47    1
     5    46    45    2
     6    67    65   ar
     7   104   105   ar
     8   104   102   ar
     9   142   141    1
    10    66    65   ar
    11   105   103   ar
    12   102   100   ar
    13   140   141    1
    14    65    64    1
    15   148   149    1
    16   141   144    1
    17    47    48    1
    18    47    49    1
    19   135   134    2
    20   103   101   ar
    21   100   101   ar
    22   100    99    1
    23   151   150    2
    24   144   145    1
    25   149   150    1
    26   149   152    1
    27    99    96    1
    28    84    83    1
    29   134   133    1
    30    64    63    1
    31    85    83    1
    32   145   146    1
    33   145   147    1
    34    92    91    1
    35    92    93    1
    36    94    93    1
    37    63    60    1
    38    90    91    1
    39    90    87    1
    40    83    80    1
    41   152   153    1
    42   109   108    2
    43   136   133    1
    44   136   137    1
    45    95    96    1
    46    95    88   am
    47    86    87    1
    48    86    81   am
    49   133   132    1
    50    96    97    1
    51    80    81    1
    52    80    79    1
    53   132   125   am
    54    71    70    2
    55    87    88    1
    56   112   113    2
    57   112   111    1
    58    81    82    2
    59    97    98    2
    60    97   106   am
    61   123   124    1
    62    88    89    2
    63    60    59    1
    64    60    61    1
    65   108   110   am
    66   108   107    1
    67   106   107    1
    68   111   110    1
    69   111   114    1
    70    79    70   am
    71   137   139   am
    72   137   138    2
    73    70    69    1
    74   125   124    1
    75   125   126    2
    76    59    52   am
    77    61    62    2
    78    61    68   am
    79   124   127    1
    80    68    69    1
    81    55    56    1
    82    55    54    1
    83   118   119    2
    84   118   117    1
    85   114   115    1
    86    56    58   am
    87    56    57    2
    88    69    72    1
    89   116   117    1
    90    52    51    1
    91    52    53    2
    92   127   128    1
    93   117   120    1
    94    54    51    1
    95    51    50    1
    96    75    77   ar
    97    75    73   ar
    98    72    73    1
    99    77    78   ar
   100    73    74   ar
   101   120   122    1
   102   120   121    1
   103   128   129    1
   104    42    41    1
   105    78    76   ar
   106    74    76   ar
   107    30    31    1
   108    30    27    1
   109   129   130    1
   110    31    32    1
   111    31    33    1
   112    26    27    1
   113    41    40    1
   114    27    28    1
   115    29    28    2
   116   130   131    1
   117    40    39    1
   118     7     6    1
   119    38    39    1
   120    38    35    1
   121    24    22    1
   122    23    25    1
   123    23    22    1
   124     8     6    1
   125     6     5    1
   126     5     2    1
   127     4     3    2
   128    34    35    1
   129    22    19    1
   130    35    36    1
   131    12    11    2
   132     3     2    1
   133    37    36    2
   134     2     1    1
   135    11    10    1
   136    19    20    1
   137    19    18    1
   138    20    21    2
   139     9    10    1
   140    10    13    1
   141    13    14    1
   142    14    15    1
   143    16    15    2
   144    15    17   am
