@<TRIPOS>MOLECULE
tmp/5utiA00.pdb
 113 106 0 0 0
SMALL
GASTEIGER

@<TRIPOS>ATOM
      1  N          5.5350    7.9060   93.1910 N.3    92  ASP92      -0.1225
      2  CA         6.3390    8.9490   93.8170 C.3    92  ASP92       0.1805
      3  C          5.4960    9.6300   94.8890 C.2    92  ASP92       0.2598
      4  O          4.2680    9.5210   94.9080 O.2    92  ASP92      -0.2718
      5  CB         6.8720    9.9540   92.7890 C.3    92  ASP92       0.1424
      6  CG         8.1150   10.7420   93.3030 C.2    92  ASP92       0.3668
      7  OD1        8.5210   10.5920   94.5040 O.co2  92  ASP92      -0.2456
      8  OD2        8.6920   11.5170   92.5090 O.co2  92  ASP92      -0.2456
      9  N          6.1630   10.3220   95.8010 N.am   93  SER93      -0.1952
     10  CA         5.5030   10.8130   97.0050 C.3    93  SER93       0.1924
     11  C          4.8550   12.1770   96.8500 C.2    93  SER93       0.2314
     12  O          4.1140   12.5930   97.7450 O.2    93  SER93      -0.2863
     13  CB         6.5110   10.8710   98.1390 C.3    93  SER93       0.2116
     14  OG         7.6140   11.6260   97.7200 O.3    93  SER93      -0.2180
     15  N          8.5260   16.2640   94.8920 N.3    96  TYR96      -0.1227
     16  CA         9.2160   16.9740   93.8230 C.3    96  TYR96       0.1736
     17  C          8.2470   17.7970   92.9800 C.2    96  TYR96       0.2595
     18  O          8.5320   18.9570   92.6610 O.2    96  TYR96      -0.2718
     19  CB         9.9860   15.9800   92.9520 C.3    96  TYR96       0.0548
     20  CG        10.7400   16.6190   91.8070 C.ar   96  TYR96      -0.0200
     21  CD1       11.9990   17.1720   92.0000 C.ar   96  TYR96      -0.0009
     22  CD2       10.1950   16.6590   90.5290 C.ar   96  TYR96      -0.0009
     23  CE1       12.6940   17.7560   90.9510 C.ar   96  TYR96       0.0417
     24  CE2       10.8780   17.2430   89.4760 C.ar   96  TYR96       0.0417
     25  CZ        12.1260   17.7860   89.6910 C.ar   96  TYR96       0.1957
     26  OH        12.8070   18.3610   88.6410 O.3    96  TYR96      -0.2866
     27  N          7.0970   17.2170   92.6170 N.am   97  GLN97      -0.1979
     28  CA         6.1370   17.9320   91.7770 C.3    97  GLN97       0.1601
     29  C          5.5350   19.1100   92.5120 C.2    97  GLN97       0.2287
     30  O          5.2340   20.1390   91.9000 O.2    97  GLN97      -0.2864
     31  CB         5.0020   17.0140   91.3270 C.3    97  GLN97       0.0394
     32  CG         5.2880   16.2690   90.0710 C.3    97  GLN97       0.0908
     33  CD         6.3860   15.2730   90.2720 C.2    97  GLN97       0.2608
     34  OE1        6.4700   14.6430   91.3280 O.2    97  GLN97      -0.2717
     35  NE2        7.2580   15.1350   89.2760 N.am   97  GLN97      -0.0878
     36  N          9.7760   13.5200  100.6570 N.3   144  ASP144     -0.1239
     37  CA        11.0400   14.2270  100.8570 C.3   144  ASP144      0.1674
     38  C         10.9070   15.6980  100.4940 C.2   144  ASP144      0.2266
     39  O          9.9070   16.1390   99.9270 O.2   144  ASP144     -0.2867
     40  CB        12.2010   13.5700  100.0780 C.3   144  ASP144      0.1410
     41  CG        11.9970   13.5870   98.5670 C.2   144  ASP144      0.3668
     42  OD1       10.8390   13.6500   98.1180 O.co2 144  ASP144     -0.2456
     43  OD2       13.0030   13.5220   97.8080 O.co2 144  ASP144     -0.2456
     44  N         12.8820   18.4670   98.2860 N.3   146  CYS146     -0.1235
     45  CA        13.8350   18.4480   97.1910 C.3   146  CYS146      0.1677
     46  C         14.7810   19.6390   97.2900 C.2   146  CYS146      0.2270
     47  O         14.3750   20.7450   97.6550 O.2   146  CYS146     -0.2867
     48  CB        13.0860   18.4040   95.8620 C.3   146  CYS146      0.0956
     49  SG        12.1110   16.8590   95.7280 S.3   146  CYS146     -0.0801
     50  N         14.6130    7.8900  100.3890 N.3   189  ILE189     -0.1245
     51  CA        15.2590    8.7110   99.3660 C.3   189  ILE189      0.1561
     52  C         16.4670    9.4180   99.9760 C.2   189  ILE189      0.2260
     53  O         16.3210   10.2600  100.8740 O.2   189  ILE189     -0.2867
     54  CB        14.2930    9.7310   98.7480 C.3   189  ILE189      0.0252
     55  CG1       13.0860    9.0380   98.1140 C.3   189  ILE189      0.0019
     56  CG2       15.0230   10.5710   97.7000 C.3   189  ILE189      0.0019
     57  CD1       11.9690   10.0000   97.7590 C.3   189  ILE189      0.0001
     58  N         19.3410   12.1310  100.0750 N.3   191  GLN191     -0.1245
     59  CA        19.5650   13.5060   99.6220 C.3   191  GLN191      0.1566
     60  C         21.0020   13.9140   99.9650 C.2   191  GLN191      0.2260
     61  O         21.8490   13.0710  100.2710 O.2   191  GLN191     -0.2867
     62  CB        18.4890   14.4470  100.1780 C.3   191  GLN191      0.0367
     63  CG        17.0580   14.1670   99.6550 C.3   191  GLN191      0.0905
     64  CD        16.8610   14.5380   98.1830 C.2   191  GLN191      0.2608
     65  OE1       17.7110   15.1670   97.5650 O.2   191  GLN191     -0.2717
     66  NE2       15.7270   14.1330   97.6200 N.am  191  GLN191     -0.0878
     67  N         18.3410    7.2260   95.0850 N.3   216  VAL216     -0.1231
     68  CA        19.2550    8.3530   95.0590 C.3   216  VAL216      0.1692
     69  C         18.4350    9.5160   94.5170 C.2   216  VAL216      0.2593
     70  O         18.1230    9.5760   93.3130 O.2   216  VAL216     -0.2718
     71  CB        20.4930    8.0660   94.2130 C.3   216  VAL216      0.0266
     72  CG1       21.4030    9.2890   94.1950 C.3   216  VAL216      0.0020
     73  CG2       21.2240    6.8780   94.7630 C.3   216  VAL216      0.0020
     74  N         18.0470   10.4170   95.4130 N.am  217  GLY217     -0.1942
     75  CA        17.2850   11.5700   95.0140 C.3   217  GLY217      0.2014
     76  C         18.1820   12.7660   94.7690 C.2   217  GLY217      0.2639
     77  O         19.3760   12.7720   95.0600 O.2   217  GLY217     -0.2714
     78  N         17.5950   13.7950   94.1850 N.am  218  GLY218     -0.1939
     79  CA        18.2850   15.0500   94.0230 C.3   218  GLY218      0.2014
     80  C         19.2800   15.1140   92.8940 C.2   218  GLY218      0.2639
     81  O         20.0650   16.0620   92.8460 O.2   218  GLY218     -0.2714
     82  N         19.2720   14.1550   91.9840 N.am  219  LEU219     -0.1963
     83  CA        20.1330   14.1910   90.8110 C.3   219  LEU219      0.1728
     84  C         19.2850   14.3410   89.5510 C.2   219  LEU219      0.2616
     85  O         18.0520   14.3200   89.5920 O.2   219  LEU219     -0.2715
     86  CB        21.0310   12.9450   90.7570 C.3   219  LEU219      0.0311
     87  CG        22.0360   12.7710   91.9100 C.3   219  LEU219      0.0022
     88  CD1       22.8320   11.4880   91.7160 C.3   219  LEU219      0.0001
     89  CD2       22.9720   13.9620   92.0170 C.3   219  LEU219      0.0001
     90  N         19.9600   14.5060   88.4170 N.am  220  ALA220     -0.1963
     91  CA        19.2850   14.7970   87.1560 C.3   220  ALA220      0.1728
     92  C         18.3700   16.0080   87.2980 C.2   220  ALA220      0.2616
     93  O         17.2300   16.0180   86.8320 O.2   220  ALA220     -0.2715
     94  CB        18.5330   13.5750   86.6260 C.3   220  ALA220      0.0334
     95  N         18.8990   17.0530   87.9390 N.am  221  VAL221     -0.1977
     96  CA        18.1710   18.2980   88.1560 C.3   221  VAL221      0.1596
     97  C         18.9770   19.4750   87.6180 C.2   221  VAL221      0.2287
     98  O         18.8430   20.6040   88.1040 O.2   221  VAL221     -0.2864
     99  CB        17.8370   18.4840   89.6460 C.3   221  VAL221      0.0276
    100  CG1       16.8150   17.4420   90.0900 C.3   221  VAL221      0.0022
    101  CG2       19.1070   18.3980   90.4900 C.3   221  VAL221      0.0022
    102  N         15.8730    8.1270   90.4110 N.3   248  MET248     -0.1230
    103  CA        14.5890    8.6940   90.0150 C.3   248  MET248      0.1702
    104  C         14.7640    9.6950   88.8820 C.2   248  MET248      0.2592
    105  O         15.6420   10.5580   88.9370 O.2   248  MET248     -0.2718
    106  CB        13.9540    9.3830   91.2140 C.3   248  MET248      0.0401
    107  CG        13.8400    8.4250   92.4080 C.3   248  MET248      0.0596
    108  SD        12.8630    8.9860   93.7800 S.3   248  MET248     -0.1393
    109  CE        13.9430   10.2130   94.3960 C.3   248  MET248      0.0692
    110  N         13.9080    9.5980   87.8700 N.am  249  GLY249     -0.1957
    111  CA        13.9030   10.5690   86.7850 C.3   249  GLY249      0.1869
    112  C         15.1250   10.5270   85.8890 C.2   249  GLY249      0.2309
    113  O         15.6090   11.5800   85.4610 O.2   249  GLY249     -0.2863
@<TRIPOS>BOND
     1   113   112    2
     2   112   111    1
     3    94    91    1
     4   111   110    1
     5    93    92    2
     6    91    92    1
     7    91    90    1
     8    92    95   am
     9    97    98    2
    10    97    96    1
    11   110   104   am
    12    95    96    1
    13    96    99    1
    14    90    84   am
    15    26    25    1
    16   104   105    2
    17   104   103    1
    18    35    33   am
    19    24    25   ar
    20    24    22   ar
    21    84    85    2
    22    84    83    1
    23    99   100    1
    24    99   101    1
    25    25    23   ar
    26   103   102    1
    27   103   106    1
    28    32    33    1
    29    32    31    1
    30    33    34    2
    31    22    20   ar
    32    86    83    1
    33    86    87    1
    34    83    82    1
    35    23    21   ar
    36   106   107    1
    37    31    28    1
    38    88    87    1
    39    28    29    1
    40    28    27    1
    41    20    21   ar
    42    20    19    1
    43    30    29    2
    44    87    89    1
    45    82    80   am
    46   107   108    1
    47     8     6   ar
    48    27    17   am
    49    18    17    2
    50     5     6    1
    51     5     2    1
    52    81    80    2
    53    80    79    1
    54    19    16    1
    55    17    16    1
    56     1     2    1
    57     6     7   ar
    58    70    69    2
    59   108   109    1
    60     2     3    1
    61    16    15    1
    62    79    78    1
    63    78    76   am
    64    72    71    1
    65    71    73    1
    66    71    68    1
    67    69    68    1
    68    69    74   am
    69    76    75    1
    70    76    77    2
    71     3     4    2
    72     3     9   am
    73    75    74    1
    74    68    67    1
    75    49    48    1
    76     9    10    1
    77    48    45    1
    78    11    10    1
    79    11    12    2
    80    10    13    1
    81    45    46    1
    82    45    44    1
    83    46    47    2
    84    65    64    2
    85    66    64   am
    86    56    54    1
    87    14    13    1
    88    57    55    1
    89    43    41   ar
    90    55    54    1
    91    42    41   ar
    92    64    63    1
    93    41    40    1
    94    54    51    1
    95    51    52    1
    96    51    50    1
    97    59    60    1
    98    59    58    1
    99    59    62    1
   100    63    62    1
   101    39    38    2
   102    60    61    2
   103    52    53    2
   104    40    37    1
   105    38    37    1
   106    36    37    1
