@<TRIPOS>MOLECULE
tmp/5utiA02.pdb
 109 105 0 0 0
SMALL
GASTEIGER

@<TRIPOS>ATOM
      1  N         19.2500    1.9450   67.8970 N.3   284  TRP284     -0.1241
      2  CA        20.5670    1.5010   68.3410 C.3   284  TRP284      0.1605
      3  C         21.6980    2.3440   67.7610 C.2   284  TRP284      0.2264
      4  O         22.8230    2.2690   68.2710 O.2   284  TRP284     -0.2867
      5  CB        20.7510    0.0040   68.0580 C.3   284  TRP284      0.0550
      6  CG        19.7820   -0.7710   68.8700 C.ar  284  TRP284      0.0003
      7  CD1       18.6340   -1.3610   68.4350 C.ar  284  TRP284      0.0946
      8  CD2       19.8330   -0.9840   70.2840 C.ar  284  TRP284      0.0152
      9  NE1       17.9760   -1.9370   69.4870 N.ar  284  TRP284     -0.2442
     10  CE2       18.6920   -1.7210   70.6320 C.ar  284  TRP284      0.0810
     11  CE3       20.7360   -0.6240   71.2850 C.ar  284  TRP284      0.0012
     12  CZ2       18.4260   -2.1030   71.9320 C.ar  284  TRP284      0.0191
     13  CZ3       20.4710   -1.0140   72.5790 C.ar  284  TRP284      0.0001
     14  CH2       19.3270   -1.7470   72.8870 C.ar  284  TRP284      0.0015
     15  N         16.5370   -3.6860   63.8600 N.3   305  GLU305     -0.1245
     16  CA        16.7620   -4.8330   64.7310 C.3   305  GLU305      0.1567
     17  C         15.7530   -4.9160   65.8680 C.2   305  GLU305      0.2260
     18  O         15.7170   -5.9250   66.5740 O.2   305  GLU305     -0.2867
     19  CB        18.1800   -4.7970   65.3150 C.3   305  GLU305      0.0388
     20  CG        19.2710   -5.0180   64.2730 C.3   305  GLU305      0.1160
     21  CD        20.6510   -4.8620   64.8610 C.2   305  GLU305      0.3649
     22  OE1       21.3770   -5.8730   64.9670 O.co2 305  GLU305     -0.2457
     23  OE2       21.0030   -3.7290   65.2380 O.co2 305  GLU305     -0.2457
     24  N         12.5890   -5.5930   68.1080 N.3   307  HIS307     -0.1241
     25  CA        11.6190   -6.6800   68.1600 C.3   307  HIS307      0.1621
     26  C         10.1770   -6.2040   68.3470 C.2   307  HIS307      0.2264
     27  O          9.2690   -7.0390   68.4070 O.2   307  HIS307     -0.2867
     28  CB        11.9680   -7.6420   69.3110 C.3   307  HIS307      0.0745
     29  CG        13.2050   -8.4540   69.0820 C.ar  307  HIS307      0.0817
     30  ND1       13.5910   -9.4650   69.9340 N.ar  307  HIS307     -0.2268
     31  CD2       14.1440   -8.4030   68.1090 C.ar  307  HIS307      0.1154
     32  CE1       14.7130  -10.0080   69.4940 C.ar  307  HIS307      0.1986
     33  NE2       15.0680   -9.3840   68.3840 N.ar  307  HIS307     -0.2212
     34  N         14.0220   -3.3760   75.7390 N.3   344  GLN344     -0.1245
     35  CA        15.0490   -4.1990   75.1100 C.3   344  GLN344      0.1566
     36  C         16.4380   -3.8100   75.5960 C.2   344  GLN344      0.2260
     37  O         17.2870   -4.6750   75.8090 O.2   344  GLN344     -0.2867
     38  CB        14.9150   -4.1300   73.5870 C.3   344  GLN344      0.0367
     39  CG        13.7130   -4.9130   73.0610 C.3   344  GLN344      0.0905
     40  CD        13.3430   -4.5950   71.6310 C.2   344  GLN344      0.2608
     41  OE1       14.0400   -4.9510   70.7000 O.2   344  GLN344     -0.2717
     42  NE2       12.2250   -3.9360   71.4550 N.am  344  GLN344     -0.0878
     43  N         16.7420   -5.4190   78.9500 N.3   347  GLN347     -0.1231
     44  CA        16.9730   -6.8500   78.7820 C.3   347  GLN347      0.1698
     45  C         18.4240   -7.1500   78.4200 C.2   347  GLN347      0.2592
     46  O         19.0360   -8.0810   78.9700 O.2   347  GLN347     -0.2718
     47  CB        16.0190   -7.4220   77.7320 C.3   347  GLN347      0.0381
     48  CG        16.0850   -8.9160   77.6230 C.3   347  GLN347      0.0905
     49  CD        15.6220   -9.6020   78.8990 C.2   347  GLN347      0.2608
     50  OE1       14.5280   -9.3280   79.4040 O.2   347  GLN347     -0.2717
     51  NE2       16.4550  -10.4900   79.4320 N.am  347  GLN347     -0.0878
     52  N         18.9990   -6.3640   77.5080 N.am  348  LYS348     -0.1980
     53  CA        20.3980   -6.5640   77.1290 C.3   348  LYS348      0.1596
     54  C         21.3320   -6.2880   78.2960 C.2   348  LYS348      0.2287
     55  O         22.3510   -6.9780   78.4670 O.2   348  LYS348     -0.2864
     56  CB        20.7560   -5.6510   75.9600 C.3   348  LYS348      0.0298
     57  CG        20.1060   -6.0590   74.6630 C.3   348  LYS348      0.0038
     58  CD        20.4760   -5.0940   73.5680 C.3   348  LYS348      0.0206
     59  CE        19.7110   -5.3500   72.2830 C.3   348  LYS348      0.1093
     60  NZ        19.8770   -6.7500   71.8090 N.3   348  LYS348     -0.1314
     61  N         20.8990   -9.3920   80.6760 N.3   351  ASP351     -0.1239
     62  CA        21.5570  -10.5760   80.1400 C.3   351  ASP351      0.1674
     63  C         23.0660  -10.4320   80.1820 C.2   351  ASP351      0.2266
     64  O         23.7730  -11.3750   80.5530 O.2   351  ASP351     -0.2867
     65  CB        21.1020  -10.8390   78.7140 C.3   351  ASP351      0.1410
     66  CG        19.7030  -11.4020   78.6400 C.2   351  ASP351      0.3668
     67  OD1       19.2680  -12.0460   79.6160 O.co2 351  ASP351     -0.2456
     68  OD2       19.0510  -11.2390   77.5910 O.co2 351  ASP351     -0.2456
     69  N         29.3930   -5.0290   76.6750 N.3   361  PHE361     -0.1241
     70  CA        28.1320   -4.5120   76.1640 C.3   361  PHE361      0.1605
     71  C         28.1040   -2.9910   76.2240 C.2   361  PHE361      0.2264
     72  O         27.7020   -2.3250   75.2670 O.2   361  PHE361     -0.2867
     73  CB        26.9280   -5.0740   76.9310 C.3   361  PHE361      0.0534
     74  CG        25.6760   -4.3500   76.5940 C.ar  361  PHE361     -0.0203
     75  CD1       25.0600   -4.5920   75.3820 C.ar  361  PHE361     -0.0042
     76  CD2       25.1530   -3.3780   77.4190 C.ar  361  PHE361     -0.0042
     77  CE1       23.9300   -3.9050   75.0080 C.ar  361  PHE361     -0.0003
     78  CE2       24.0300   -2.6750   77.0330 C.ar  361  PHE361     -0.0003
     79  CZ        23.4170   -2.9500   75.8280 C.ar  361  PHE361     -0.0000
     80  N         30.3360   -1.5180   73.5220 N.3   364  ASP364     -0.1225
     81  CA        29.7470   -1.7170   72.2010 C.3   364  ASP364      0.1805
     82  C         28.5240   -0.8350   72.0170 C.2   364  ASP364      0.2597
     83  O         28.3060   -0.2700   70.9370 O.2   364  ASP364     -0.2718
     84  CB        29.3510   -3.1840   72.0150 C.3   364  ASP364      0.1424
     85  CG        30.5410   -4.1210   71.9670 C.2   364  ASP364      0.3668
     86  OD1       31.6740   -3.6400   71.7990 O.co2 364  ASP364     -0.2456
     87  OD2       30.3310   -5.3460   72.0950 O.co2 364  ASP364     -0.2456
     88  N         27.7050   -0.7190   73.0620 N.am  365  PHE365     -0.1976
     89  CA        26.5090    0.1040   72.9770 C.3   365  PHE365      0.1639
     90  C         26.8700    1.5570   72.7040 C.2   365  PHE365      0.2290
     91  O         26.3060    2.1950   71.8030 O.2   365  PHE365     -0.2864
     92  CB        25.6970    0.0150   74.2700 C.3   365  PHE365      0.0560
     93  CG        24.6540    1.0690   74.3520 C.ar  365  PHE365     -0.0200
     94  CD1       23.4940    0.9440   73.6150 C.ar  365  PHE365     -0.0042
     95  CD2       24.8610    2.2200   75.0860 C.ar  365  PHE365     -0.0042
     96  CE1       22.5460    1.9290   73.6270 C.ar  365  PHE365     -0.0003
     97  CE2       23.8990    3.2230   75.1080 C.ar  365  PHE365     -0.0003
     98  CZ        22.7380    3.0690   74.3850 C.ar  365  PHE365     -0.0000
     99  N         28.3580    2.4090   69.1010 N.3   368  ARG368     -0.1245
    100  CA        27.3700    2.4740   68.0400 C.3   368  ARG368      0.1563
    101  C         26.3740    3.6070   68.2540 C.2   368  ARG368      0.2260
    102  O         26.0270    4.3220   67.3020 O.2   368  ARG368     -0.2867
    103  CB        26.6380    1.1420   67.9630 C.3   368  ARG368      0.0307
    104  CG        25.6060    1.1160   66.8970 C.3   368  ARG368      0.0489
    105  CD        25.0500   -0.2520   66.6810 C.3   368  ARG368      0.2205
    106  NE        23.9720   -0.1750   65.7140 N.pl3 368  ARG368     -0.0865
    107  CZ        23.1240   -1.1590   65.4620 C.cat 368  ARG368      0.5346
    108  NH1       23.2290   -2.3050   66.1140 N.pl3 368  ARG368      0.1354
    109  NH2       22.1660   -0.9830   64.5660 N.pl3 368  ARG368      0.1354
@<TRIPOS>BOND
     1    15    16    1
     2    20    21    1
     3    20    19    1
     4   109   107    1
     5    16    19    1
     6    16    17    1
     7    21    22   ar
     8    21    23   ar
     9   107   106    2
    10   107   108    1
    11   106   105    1
    12    17    18    2
    13   105   104    1
    14   104   103    1
    15   102   101    2
    16     3     4    2
    17     3     2    1
    18     1     2    1
    19   103   100    1
    20   100   101    1
    21   100    99    1
    22     5     2    1
    23     5     6    1
    24    24    25    1
    25    31    33   ar
    26    31    29   ar
    27    25    26    1
    28    25    28    1
    29    26    27    2
    30    33    32   ar
    31     7     6   ar
    32     7     9   ar
    33     6     8   ar
    34    29    28    1
    35    29    30   ar
    36     9    10   ar
    37    32    30   ar
    38     8    10   ar
    39     8    11   ar
    40    10    12   ar
    41    41    40    2
    42    83    82    2
    43    11    13   ar
    44    42    40   am
    45    40    39    1
    46    86    85   ar
    47    91    90    2
    48    60    59    1
    49    12    14   ar
    50    85    84    1
    51    85    87   ar
    52    84    81    1
    53    82    81    1
    54    82    88   am
    55    81    80    1
    56    59    58    1
    57    13    14   ar
    58    90    89    1
    59    89    88    1
    60    89    92    1
    61    39    38    1
    62    58    57    1
    63    38    35    1
    64    94    96   ar
    65    94    93   ar
    66    96    98   ar
    67    92    93    1
    68    93    95   ar
    69    98    97   ar
    70    57    56    1
    71    77    75   ar
    72    77    79   ar
    73    95    97   ar
    74    35    36    1
    75    35    34    1
    76    72    71    2
    77    75    74   ar
    78    36    37    2
    79    79    78   ar
    80    56    53    1
    81    70    71    1
    82    70    69    1
    83    70    73    1
    84    74    73    1
    85    74    76   ar
    86    78    76   ar
    87    53    52    1
    88    53    54    1
    89    52    45   am
    90    68    66   ar
    91    48    47    1
    92    48    49    1
    93    47    44    1
    94    54    55    2
    95    45    44    1
    96    45    46    2
    97    66    65    1
    98    66    67   ar
    99    65    62    1
   100    44    43    1
   101    49    50    2
   102    49    51   am
   103    62    63    1
   104    62    61    1
   105    63    64    2
