@<TRIPOS>MOLECULE
tmp/5utjA01.pdb
 93 85 0 0 0
SMALL
GASTEIGER

@<TRIPOS>ATOM
      1  N          5.4240    7.3230   92.8860 N.3    93  ASP93      -0.1225
      2  CA         6.2350    8.3570   93.5180 C.3    93  ASP93       0.1805
      3  C          5.4710    8.9600   94.6960 C.2    93  ASP93       0.2598
      4  O          4.2750    8.7070   94.8990 O.2    93  ASP93      -0.2718
      5  CB         6.6520    9.4210   92.4920 C.3    93  ASP93       0.1424
      6  CG         5.4950    9.9530   91.6780 C.2    93  ASP93       0.3668
      7  OD1        4.3780   10.0640   92.2110 O.co2  93  ASP93      -0.2456
      8  OD2        5.7110   10.2840   90.4910 O.co2  93  ASP93      -0.2456
      9  N          6.1720    9.7340   95.5150 N.am   94  SER94      -0.1952
     10  CA         5.5390   10.2290   96.7280 C.3    94  SER94       0.1924
     11  C          4.7860   11.5330   96.5130 C.2    94  SER94       0.2314
     12  O          3.9700   11.9120   97.3640 O.2    94  SER94      -0.2863
     13  CB         6.5770   10.4230   97.8260 C.3    94  SER94       0.2116
     14  OG         7.5130   11.3910   97.4130 O.3    94  SER94      -0.2180
     15  N          8.2710   15.5500   95.5310 N.3    97  TYR97      -0.1227
     16  CA         9.2940   16.0210   94.6080 C.3    97  TYR97       0.1736
     17  C          8.6600   16.7230   93.4140 C.2    97  TYR97       0.2595
     18  O          9.1220   17.7890   92.9800 O.2    97  TYR97      -0.2718
     19  CB        10.1420   14.8370   94.1540 C.3    97  TYR97       0.0548
     20  CG        11.3280   15.2220   93.3140 C.ar   97  TYR97      -0.0200
     21  CD1       11.2020   15.4180   91.9440 C.ar   97  TYR97      -0.0009
     22  CD2       12.5780   15.4020   93.8950 C.ar   97  TYR97      -0.0009
     23  CE1       12.2970   15.7900   91.1740 C.ar   97  TYR97       0.0417
     24  CE2       13.6700   15.7690   93.1400 C.ar   97  TYR97       0.0417
     25  CZ        13.5280   15.9530   91.7850 C.ar   97  TYR97       0.1957
     26  OH        14.6300   16.3170   91.0560 O.3    97  TYR97      -0.2866
     27  N          7.5910   16.1390   92.8770 N.am   98  GLN98      -0.1979
     28  CA         6.9530   16.6850   91.6860 C.3    98  GLN98       0.1601
     29  C          6.4100   18.0800   91.9540 C.2    98  GLN98       0.2287
     30  O          6.7220   19.0350   91.2340 O.2    98  GLN98      -0.2864
     31  CB         5.8320   15.7460   91.2270 C.3    98  GLN98       0.0394
     32  CG         6.2940   14.4060   90.6090 C.3    98  GLN98       0.0908
     33  CD         6.9840   13.4520   91.5900 C.2    98  GLN98       0.2608
     34  OE1        6.6560   13.3860   92.7910 O.2    98  GLN98      -0.2717
     35  NE2        7.9540   12.6980   91.0680 N.am   98  GLN98      -0.0878
     36  N          9.8560   12.7770  100.0240 N.3   137  ASP137     -0.1239
     37  CA        11.1230   13.4910  100.0750 C.3   137  ASP137      0.1674
     38  C         10.9640   14.8770   99.4830 C.2   137  ASP137      0.2266
     39  O          9.9080   15.2540   98.9830 O.2   137  ASP137     -0.2867
     40  CB        12.2300   12.7400   99.3290 C.3   137  ASP137      0.1410
     41  CG        11.9460   12.6100   97.8510 C.2   137  ASP137      0.3668
     42  OD1       10.7610   12.6500   97.4550 O.co2 137  ASP137     -0.2456
     43  OD2       12.9120   12.4590   97.0810 O.co2 137  ASP137     -0.2456
     44  N         14.7810    7.2180   99.7610 N.3   182  ILE182     -0.1245
     45  CA        15.4140    8.0070   98.6990 C.3   182  ILE182      0.1561
     46  C         16.6150    8.7470   99.2770 C.2   182  ILE182      0.2260
     47  O         16.4580    9.6330  100.1250 O.2   182  ILE182     -0.2867
     48  CB        14.4330    8.9970   98.0430 C.3   182  ILE182      0.0252
     49  CG1       13.2070    8.2580   97.5000 C.3   182  ILE182      0.0019
     50  CG2       15.1440    9.7490   96.9250 C.3   182  ILE182      0.0019
     51  CD1       12.0810    9.1550   97.0820 C.3   182  ILE182      0.0001
     52  N         19.4160   11.4980   99.2340 N.3   184  GLN184     -0.1245
     53  CA        19.6260   12.8380   98.7040 C.3   184  GLN184      0.1566
     54  C         21.0300   13.2910   99.0900 C.2   184  GLN184      0.2260
     55  O         21.8790   12.4490   99.4090 O.2   184  GLN184     -0.2867
     56  CB        18.5180   13.7750   99.2060 C.3   184  GLN184      0.0367
     57  CG        17.1040   13.3520   98.7200 C.3   184  GLN184      0.0905
     58  CD        16.8730   13.5810   97.2240 C.2   184  GLN184      0.2608
     59  OE1       17.7220   14.1320   96.5320 O.2   184  GLN184     -0.2717
     60  NE2       15.7120   13.1510   96.7290 N.am  184  GLN184     -0.0878
     61  N         18.1210    9.6570   94.6160 N.3   210  GLY210     -0.1210
     62  CA        17.3340   10.7930   94.2000 C.3   210  GLY210      0.1956
     63  C         18.1940   11.9750   93.8170 C.2   210  GLY210      0.2612
     64  O         19.3890   12.0060   94.0750 O.2   210  GLY210     -0.2717
     65  N         17.5580   12.9420   93.1690 N.am  211  GLY211     -0.1956
     66  CA        18.1860   14.2190   92.8990 C.3   211  GLY211      0.1869
     67  C         19.2510   14.2280   91.8320 C.2   211  GLY211      0.2309
     68  O         20.0720   15.1560   91.8200 O.2   211  GLY211     -0.2863
     69  N         18.3750   13.6530   88.3900 N.3   213  ALA213     -0.1245
     70  CA        17.7700   14.0450   87.1240 C.3   213  ALA213      0.1562
     71  C         17.5120   15.5430   87.1190 C.2   213  ALA213      0.2260
     72  O         16.3930   16.0000   86.9070 O.2   213  ALA213     -0.2867
     73  CB        16.4920   13.2540   86.8960 C.3   213  ALA213      0.0290
     74  N         16.1640    7.4290   89.9960 N.3   241  MET241     -0.1230
     75  CA        14.8850    8.0370   89.6550 C.3   241  MET241      0.1702
     76  C         15.0250    9.0260   88.5050 C.2   241  MET241      0.2592
     77  O         15.9070    9.8900   88.5170 O.2   241  MET241     -0.2718
     78  CB        14.3160    8.7550   90.8710 C.3   241  MET241      0.0401
     79  CG        14.1860    7.8510   92.0780 C.3   241  MET241      0.0596
     80  SD        13.3330    8.5730   93.4860 S.3   241  MET241     -0.1393
     81  CE        11.6500    8.4280   92.8920 C.3   241  MET241      0.0692
     82  N         14.1180    8.9230   87.5390 N.am  242  GLY242     -0.1957
     83  CA        14.0620    9.8600   86.4300 C.3   242  GLY242      0.1869
     84  C         15.1340    9.7520   85.3660 C.2   242  GLY242      0.2309
     85  O         15.2640   10.6720   84.5630 O.2   242  GLY242     -0.2863
     86  N         13.3520    4.7400   85.6530 N.3   261  ASP261     -0.1239
     87  CA        12.1300    5.2400   85.0420 C.3   261  ASP261      0.1674
     88  C         12.4550    6.5560   84.3620 C.2   261  ASP261      0.2266
     89  O         13.3080    7.3160   84.8310 O.2   261  ASP261     -0.2867
     90  CB        11.0230    5.5030   86.0660 C.3   261  ASP261      0.1410
     91  CG        11.2260    6.8290   86.7890 C.2   261  ASP261      0.3668
     92  OD1       11.9550    6.8860   87.8150 O.co2 261  ASP261     -0.2456
     93  OD2       10.7020    7.8430   86.3000 O.co2 261  ASP261     -0.2456
@<TRIPOS>BOND
     1    88    89    2
     2    88    87    1
     3    85    84    2
     4    87    86    1
     5    87    90    1
     6    84    83    1
     7    90    91    1
     8    93    91   ar
     9    83    82    1
    10    91    92   ar
    11    73    70    1
    12    72    71    2
    13    71    70    1
    14    70    69    1
    15    82    76   am
    16    76    77    2
    17    76    75    1
    18    75    74    1
    19    75    78    1
    20     8     6   ar
    21    32    31    1
    22    32    33    1
    23    78    79    1
    24    26    25    1
    25    35    33   am
    26    23    25   ar
    27    23    21   ar
    28    31    28    1
    29    30    29    2
    30    33    34    2
    31     6     7   ar
    32     6     5    1
    33    28    29    1
    34    28    27    1
    35    25    24   ar
    36    68    67    2
    37    67    66    1
    38    21    20   ar
    39    79    80    1
    40     5     2    1
    41    27    17   am
    42     1     2    1
    43    81    80    1
    44    66    65    1
    45    18    17    2
    46    24    22   ar
    47    65    63   am
    48    20    22   ar
    49    20    19    1
    50    17    16    1
    51     2     3    1
    52    63    64    2
    53    63    62    1
    54    19    16    1
    55    62    61    1
    56    16    15    1
    57     3     4    2
    58     3     9   am
    59     9    10    1
    60    11    10    1
    61    11    12    2
    62    59    58    2
    63    10    13    1
    64    60    58   am
    65    50    48    1
    66    43    41   ar
    67    51    49    1
    68    58    57    1
    69    14    13    1
    70    42    41   ar
    71    49    48    1
    72    41    40    1
    73    48    45    1
    74    45    46    1
    75    45    44    1
    76    53    54    1
    77    53    56    1
    78    53    52    1
    79    57    56    1
    80    39    38    2
    81    54    55    2
    82    46    47    2
    83    40    37    1
    84    38    37    1
    85    36    37    1
