@<TRIPOS>MOLECULE
tmp/5utnB00.pdb
 164 156 0 0 0
SMALL
GASTEIGER

@<TRIPOS>ATOM
      1  N         -6.2280  -23.1650  -15.1310 N.3    41  ILE41      -0.1245
      2  CA        -5.3120  -24.0340  -14.3940 C.3    41  ILE41       0.1561
      3  C         -4.1690  -23.1780  -13.8650 C.2    41  ILE41       0.2260
      4  O         -3.3880  -22.6230  -14.6440 O.2    41  ILE41      -0.2867
      5  CB        -4.7680  -25.1720  -15.2760 C.3    41  ILE41       0.0252
      6  CG1       -5.9110  -25.9850  -15.9030 C.3    41  ILE41       0.0019
      7  CG2       -3.8050  -26.0610  -14.4810 C.3    41  ILE41       0.0019
      8  CD1       -6.9230  -26.5660  -14.9380 C.3    41  ILE41       0.0001
      9  N         -2.6110  -19.9570  -15.2560 N.3    44  LEU44      -0.1245
     10  CA        -1.8790  -20.0030  -16.5150 C.3    44  LEU44       0.1561
     11  C         -2.7520  -19.4660  -17.6510 C.2    44  LEU44       0.2260
     12  O         -3.9380  -19.7950  -17.7330 O.2    44  LEU44      -0.2867
     13  CB        -1.4350  -21.4340  -16.8290 C.3    44  LEU44       0.0270
     14  CG        -0.4350  -22.0740  -15.8560 C.3    44  LEU44       0.0019
     15  CD1       -0.3070  -23.5660  -16.1110 C.3    44  LEU44       0.0001
     16  CD2        0.9180  -21.3900  -15.9710 C.3    44  LEU44       0.0001
     17  N         -5.3190  -21.7080  -20.4340 N.3    47  THR47      -0.1218
     18  CA        -5.7350  -22.9720  -19.8360 C.3    47  THR47       0.1862
     19  C         -7.1730  -22.8990  -19.3370 C.2    47  THR47       0.2287
     20  O         -7.5150  -23.5150  -18.3170 O.2    47  THR47      -0.2866
     21  CB        -4.8050  -23.3790  -18.6880 C.3    47  THR47       0.1770
     22  OG1       -4.8510  -22.3800  -17.6600 O.3    47  THR47      -0.2211
     23  CG2       -3.3750  -23.5180  -19.1810 C.3    47  THR47       0.0375
     24  N         -9.1060  -30.7600  -22.3720 N.3    73  PHE73      -0.1241
     25  CA        -8.6200  -30.9520  -21.0080 C.3    73  PHE73       0.1605
     26  C         -9.1590  -32.2410  -20.4010 C.2    73  PHE73       0.2264
     27  O         -8.4190  -32.9810  -19.7400 O.2    73  PHE73      -0.2867
     28  CB        -8.9850  -29.7600  -20.1300 C.3    73  PHE73       0.0534
     29  CG        -8.6540  -29.9750  -18.6680 C.ar   73  PHE73      -0.0203
     30  CD1       -7.3540  -29.8470  -18.2150 C.ar   73  PHE73      -0.0042
     31  CD2       -9.6450  -30.2890  -17.7730 C.ar   73  PHE73      -0.0042
     32  CE1       -7.0480  -30.0310  -16.8560 C.ar   73  PHE73      -0.0003
     33  CE2       -9.3430  -30.4850  -16.4260 C.ar   73  PHE73      -0.0003
     34  CZ        -8.0380  -30.3520  -15.9860 C.ar   73  PHE73      -0.0000
     35  N         -7.3600  -35.2380  -21.7400 N.3    76  LEU76      -0.1231
     36  CA        -5.9730  -35.3000  -21.2990 C.3    76  LEU76       0.1693
     37  C         -5.8760  -35.6980  -19.8340 C.2    76  LEU76       0.2591
     38  O         -5.0340  -36.5270  -19.4630 O.2    76  LEU76      -0.2718
     39  CB        -5.3050  -33.9530  -21.5400 C.3    76  LEU76       0.0284
     40  CG        -3.9210  -33.7390  -20.9360 C.3    76  LEU76       0.0019
     41  CD1       -2.9860  -34.8590  -21.3570 C.3    76  LEU76       0.0001
     42  CD2       -3.3790  -32.3840  -21.3690 C.3    76  LEU76       0.0001
     43  N         -6.7240  -35.1130  -18.9860 N.am   77  ALA77      -0.1980
     44  CA        -6.7330  -35.4930  -17.5760 C.3    77  ALA77       0.1597
     45  C         -7.1490  -36.9480  -17.4010 C.2    77  ALA77       0.2287
     46  O         -6.5920  -37.6720  -16.5670 O.2    77  ALA77      -0.2864
     47  CB        -7.6700  -34.5660  -16.7980 C.3    77  ALA77       0.0319
     48  N         -4.1970  -39.1470  -18.4220 N.3    80  LEU80      -0.1245
     49  CA        -3.2100  -39.1820  -17.3490 C.3    80  LEU80       0.1561
     50  C         -3.6890  -40.0610  -16.2040 C.2    80  LEU80       0.2260
     51  O         -2.9180  -40.8610  -15.6630 O.2    80  LEU80      -0.2867
     52  CB        -2.9070  -37.7600  -16.8600 C.3    80  LEU80       0.0270
     53  CG        -2.0790  -36.8760  -17.8050 C.3    80  LEU80       0.0019
     54  CD1       -2.1360  -35.4090  -17.4020 C.3    80  LEU80       0.0001
     55  CD2       -0.6410  -37.3480  -17.8480 C.3    80  LEU80       0.0001
     56  N         -0.6970  -42.6190  -16.6070 N.3    84  SER84      -0.1217
     57  CA         0.5240  -42.0270  -16.0750 C.3    84  SER84       0.1889
     58  C          0.7980  -42.5990  -14.6960 C.2    84  SER84       0.2288
     59  O          0.0270  -42.3560  -13.7610 O.2    84  SER84      -0.2866
     60  CB         0.4260  -40.5040  -15.9920 C.3    84  SER84       0.2089
     61  OG         1.5260  -40.0090  -15.2410 O.3    84  SER84      -0.2183
     62  N          3.0840  -41.5780  -12.7940 N.3    86  VAL86      -0.1231
     63  CA         3.3860  -40.4110  -11.9690 C.3    86  VAL86       0.1692
     64  C          2.1020  -39.8000  -11.4290 C.2    86  VAL86       0.2591
     65  O          1.9820  -39.5190  -10.2280 O.2    86  VAL86      -0.2718
     66  CB         4.1900  -39.3770  -12.7780 C.3    86  VAL86       0.0266
     67  CG1        4.4950  -38.1510  -11.9110 C.3    86  VAL86       0.0020
     68  CG2        5.4600  -39.9960  -13.3250 C.3    86  VAL86       0.0020
     69  N          1.1290  -39.5650  -12.3070 N.am   87  ALA87      -0.1980
     70  CA        -0.1440  -39.0150  -11.8490 C.3    87  ALA87       0.1597
     71  C         -0.8240  -39.9300  -10.8380 C.2    87  ALA87       0.2287
     72  O         -1.4560  -39.4520   -9.8870 O.2    87  ALA87      -0.2864
     73  CB        -1.0640  -38.7650  -13.0390 C.3    87  ALA87       0.0319
     74  N         -7.8210  -38.1240   -9.4610 N.3   102  ILE102     -0.1231
     75  CA        -6.6140  -37.4520   -9.9450 C.3   102  ILE102      0.1692
     76  C         -6.7990  -35.9390   -9.9020 C.2   102  ILE102      0.2591
     77  O         -5.8700  -35.1970   -9.5550 O.2   102  ILE102     -0.2718
     78  CB        -6.2240  -37.9420  -11.3590 C.3   102  ILE102      0.0266
     79  CG1       -5.1280  -39.0090  -11.2820 C.3   102  ILE102      0.0019
     80  CG2       -5.6780  -36.8130  -12.2020 C.3   102  ILE102      0.0020
     81  CD1       -5.5560  -40.2710  -10.6230 C.3   102  ILE102      0.0001
     82  N         -7.9960  -35.4520  -10.2480 N.am  103  LEU103     -0.1980
     83  CA        -8.2350  -34.0130  -10.1710 C.3   103  LEU103      0.1596
     84  C         -8.1810  -33.5370   -8.7230 C.2   103  LEU103      0.2287
     85  O         -7.5450  -32.5250   -8.4150 O.2   103  LEU103     -0.2864
     86  CB        -9.5820  -33.6610  -10.8080 C.3   103  LEU103      0.0297
     87  CG        -9.6510  -33.8640  -12.3290 C.3   103  LEU103      0.0022
     88  CD1      -11.0980  -33.7420  -12.8000 C.3   103  LEU103      0.0001
     89  CD2       -8.7600  -32.8380  -13.0470 C.3   103  LEU103      0.0001
     90  N         -4.3300  -33.6560   -7.5540 N.3   106  TRP106     -0.1227
     91  CA        -3.3300  -32.7650   -8.1360 C.3   106  TRP106      0.1737
     92  C         -3.7930  -31.3170   -8.2360 C.2   106  TRP106      0.2595
     93  O         -2.9450  -30.4200   -8.2970 O.2   106  TRP106     -0.2718
     94  CB        -2.9110  -33.2550   -9.5350 C.3   106  TRP106      0.0564
     95  CG        -2.0970  -34.5210   -9.4730 C.ar  106  TRP106      0.0003
     96  CD1       -2.5570  -35.7970   -9.6080 C.ar  106  TRP106      0.0946
     97  CD2       -0.6910  -34.6240   -9.2290 C.ar  106  TRP106      0.0152
     98  NE1       -1.5250  -36.6910   -9.4550 N.ar  106  TRP106     -0.2442
     99  CE2       -0.3690  -35.9970   -9.2180 C.ar  106  TRP106      0.0810
    100  CE3        0.3290  -33.6860   -9.0110 C.ar  106  TRP106      0.0012
    101  CZ2        0.9390  -36.4630   -9.0360 C.ar  106  TRP106      0.0191
    102  CZ3        1.6250  -34.1440   -8.8180 C.ar  106  TRP106      0.0001
    103  CH2        1.9190  -35.5240   -8.8320 C.ar  106  TRP106      0.0015
    104  N         -5.1000  -31.0800   -8.2590 N.am  107  LEU107     -0.1980
    105  CA        -5.6820  -29.7370   -8.2720 C.3   107  LEU107      0.1596
    106  C         -6.5880  -29.5660   -7.0600 C.2   107  LEU107      0.2287
    107  O         -7.8020  -29.3740   -7.1860 O.2   107  LEU107     -0.2864
    108  CB        -6.4500  -29.5010   -9.5700 C.3   107  LEU107      0.0297
    109  CG        -5.6130  -29.6710  -10.8320 C.3   107  LEU107      0.0022
    110  CD1       -6.5480  -29.6680  -12.0800 C.3   107  LEU107      0.0001
    111  CD2       -4.5790  -28.5820  -10.9480 C.3   107  LEU107      0.0001
    112  N         -2.6950  -26.3350   -8.2400 N.3   131  ALA131     -0.1245
    113  CA        -1.7890  -27.3690   -7.7730 C.3   131  ALA131      0.1562
    114  C         -0.7560  -26.8440   -6.7940 C.2   131  ALA131      0.2260
    115  O         -0.1850  -27.6400   -6.0460 O.2   131  ALA131     -0.2867
    116  CB        -1.0400  -28.0020   -8.9500 C.3   131  ALA131      0.0290
    117  N         -8.6720  -23.7140  -23.7980 N.3   181  PHE181     -0.1241
    118  CA        -7.5990  -24.5980  -23.3440 C.3   181  PHE181      0.1605
    119  C         -6.6700  -25.0370  -24.4720 C.2   181  PHE181      0.2264
    120  O         -7.1200  -25.5400  -25.5030 O.2   181  PHE181     -0.2867
    121  CB        -8.2010  -25.8340  -22.6800 C.3   181  PHE181      0.0534
    122  CG        -7.1720  -26.7620  -22.1020 C.ar  181  PHE181     -0.0203
    123  CD1       -6.5880  -26.4900  -20.8800 C.ar  181  PHE181     -0.0042
    124  CD2       -6.7880  -27.9050  -22.7870 C.ar  181  PHE181     -0.0042
    125  CE1       -5.6290  -27.3300  -20.3500 C.ar  181  PHE181     -0.0003
    126  CE2       -5.8350  -28.7590  -22.2570 C.ar  181  PHE181     -0.0003
    127  CZ        -5.2570  -28.4720  -21.0390 C.ar  181  PHE181     -0.0000
    128  N         -3.3980  -27.5970  -24.8500 N.3   183  SER183     -0.1203
    129  CA        -2.5850  -28.6200  -24.2040 C.3   183  SER183      0.2005
    130  C         -1.1080  -28.2310  -24.2580 C.2   183  SER183      0.2461
    131  O         -0.5900  -27.9270  -25.3400 O.2   183  SER183     -0.2732
    132  CB        -2.8210  -29.9700  -24.8940 C.3   183  SER183      0.2103
    133  OG        -1.6400  -30.7520  -24.9620 O.3   183  SER183     -0.2182
    134  N         -0.3980  -28.2280  -23.1280 N.am  184  PRO184     -0.2717
    135  CA         0.9770  -27.6970  -23.1400 C.3   184  PRO184      0.1535
    136  C          1.9950  -28.6150  -23.8070 C.2   184  PRO184      0.2598
    137  O          2.9870  -28.1140  -24.3520 O.2   184  PRO184     -0.2715
    138  CB         1.2930  -27.4960  -21.6470 C.3   184  PRO184      0.0310
    139  CG        -0.0390  -27.5750  -20.9400 C.3   184  PRO184      0.0237
    140  CD        -0.8770  -28.4970  -21.7610 C.3   184  PRO184      0.0939
    141  N          1.7960  -29.9340  -23.7860 N.am  185  LEU185     -0.1964
    142  CA         2.7630  -30.8610  -24.3590 C.3   185  LEU185      0.1728
    143  C          2.2550  -31.6090  -25.5840 C.2   185  LEU185      0.2616
    144  O          3.0590  -32.2620  -26.2600 O.2   185  LEU185     -0.2715
    145  CB         3.2060  -31.8930  -23.3130 C.3   185  LEU185      0.0311
    146  CG         3.8380  -31.3350  -22.0410 C.3   185  LEU185      0.0022
    147  CD1        4.1150  -32.5030  -21.0930 C.3   185  LEU185      0.0001
    148  CD2        5.0980  -30.5530  -22.3430 C.3   185  LEU185      0.0001
    149  N          0.9500  -31.5820  -25.8510 N.am  186  GLU186     -0.1963
    150  CA         0.3720  -32.1820  -27.0560 C.3   186  GLU186      0.1733
    151  C          0.7410  -33.6610  -27.1910 C.2   186  GLU186      0.2617
    152  O          1.1260  -34.1320  -28.2650 O.2   186  GLU186     -0.2715
    153  CB         0.7920  -31.4030  -28.3080 C.3   186  GLU186      0.0429
    154  CG         0.5510  -29.9090  -28.2350 C.3   186  GLU186      0.1163
    155  CD         1.1530  -29.1700  -29.4190 C.2   186  GLU186      0.3649
    156  OE1        1.3830  -29.8100  -30.4670 O.co2 186  GLU186     -0.2457
    157  OE2        1.4050  -27.9530  -29.2980 O.co2 186  GLU186     -0.2457
    158  N          0.6180  -34.4090  -26.0960 N.am  187  THR187     -0.1951
    159  CA         0.7730  -35.8520  -26.2190 C.3   187  THR187      0.1897
    160  C         -0.4730  -36.4490  -26.8730 C.2   187  THR187      0.2313
    161  O         -1.5200  -35.8060  -26.9790 O.2   187  THR187     -0.2863
    162  CB         1.0230  -36.5030  -24.8570 C.3   187  THR187      0.1794
    163  OG1       -0.1010  -36.2670  -24.0080 O.3   187  THR187     -0.2208
    164  CG2        2.2750  -35.9300  -24.2190 C.3   187  THR187      0.0378
@<TRIPOS>BOND
     1   156   155   ar
     2   155   157   ar
     3   155   154    1
     4   153   154    1
     5   153   150    1
     6   152   151    2
     7   151   150    1
     8   151   158   am
     9   150   149    1
    10   161   160    2
    11   160   159    1
    12   144   143    2
    13   159   158    1
    14   159   162    1
    15   149   143   am
    16   143   142    1
    17   120   119    2
    18   131   130    2
    19   133   132    1
    20   132   129    1
    21   162   164    1
    22   162   163    1
    23   128   129    1
    24   119   118    1
    25   142   141    1
    26   142   145    1
    27   137   136    2
    28   130   129    1
    29   130   134   am
    30   136   141   am
    31   136   135    1
    32   117   118    1
    33   118   121    1
    34   145   146    1
    35   135   134    1
    36   135   138    1
    37   134   140    1
    38   124   126   ar
    39   124   122   ar
    40   121   122    1
    41    24    25    1
    42   148   146    1
    43   126   127   ar
    44   122   123   ar
    45   146   147    1
    46   140   139    1
    47    35    36    1
    48   138   139    1
    49    39    36    1
    50    39    40    1
    51    42    40    1
    52    41    40    1
    53    36    37    1
    54   127   125   ar
    55    25    26    1
    56    25    28    1
    57   123   125   ar
    58    17    18    1
    59    26    27    2
    60    28    29    1
    61    18    19    1
    62    18    21    1
    63    37    38    2
    64    37    43   am
    65    19    20    2
    66    23    21    1
    67    43    44    1
    68    21    22    1
    69    29    30   ar
    70    29    31   ar
    71    48    49    1
    72    30    32   ar
    73    55    53    1
    74    53    54    1
    75    53    52    1
    76    31    33   ar
    77    12    11    2
    78    11    10    1
    79    44    45    1
    80    44    47    1
    81    45    46    2
    82    49    52    1
    83    49    50    1
    84    32    34   ar
    85    13    10    1
    86    13    14    1
    87    56    57    1
    88    10     9    1
    89    33    34   ar
    90    50    51    2
    91    15    14    1
    92    57    60    1
    93    57    58    1
    94    60    61    1
    95    16    14    1
    96     6     5    1
    97     6     8    1
    98     5     7    1
    99     5     2    1
   100     1     2    1
   101    58    59    2
   102     4     3    2
   103     2     3    1
   104    68    66    1
   105    89    87    1
   106    73    70    1
   107    88    87    1
   108    62    63    1
   109    66    63    1
   110    66    67    1
   111    87    86    1
   112    69    70    1
   113    69    64   am
   114    80    78    1
   115   110   109    1
   116    63    64    1
   117    70    71    1
   118    64    65    2
   119    78    79    1
   120    78    75    1
   121    79    81    1
   122   111   109    1
   123    71    72    2
   124   109   108    1
   125    86    83    1
   126    82    83    1
   127    82    76   am
   128    83    84    1
   129    75    76    1
   130    75    74    1
   131    76    77    2
   132    96    95   ar
   133    96    98   ar
   134   108   105    1
   135    94    95    1
   136    94    91    1
   137    95    97   ar
   138    98    99   ar
   139    97    99   ar
   140    97   100   ar
   141    99   101   ar
   142   101   103   ar
   143   100   102   ar
   144   116   113    1
   145   103   102   ar
   146    84    85    2
   147    93    92    2
   148   105   104    1
   149   105   106    1
   150   104    92   am
   151   112   113    1
   152    92    91    1
   153    91    90    1
   154   113   114    1
   155   107   106    2
   156   114   115    2
