@<TRIPOS>MOLECULE
tmp/5utpB00.pdb
 207 194 0 0 0
SMALL
GASTEIGER

@<TRIPOS>ATOM
      1  N          3.5260  -22.5750   25.1960 N.3    33  ILE33      -0.1245
      2  CA         4.0220  -21.2100   25.3180 C.3    33  ILE33       0.1561
      3  C          5.0300  -21.1740   26.4580 C.2    33  ILE33       0.2260
      4  O          4.8070  -21.7700   27.5180 O.2    33  ILE33      -0.2867
      5  CB         2.8820  -20.1950   25.5410 C.3    33  ILE33       0.0252
      6  CG1        3.4630  -18.7890   25.7230 C.3    33  ILE33       0.0019
      7  CG2        2.0230  -20.5960   26.7330 C.3    33  ILE33       0.0019
      8  CD1        2.4440  -17.6780   25.6410 C.3    33  ILE33       0.0001
      9  N          7.9200  -19.1470   29.1010 N.3    35  PHE35      -0.1241
     10  CA         8.0890  -17.9770   29.9530 C.3    35  PHE35       0.1605
     11  C          9.4940  -18.0110   30.5450 C.2    35  PHE35       0.2264
     12  O         10.2770  -18.9290   30.2840 O.2    35  PHE35      -0.2867
     13  CB         7.0250  -17.9360   31.0590 C.3    35  PHE35       0.0534
     14  CG         5.6230  -17.7560   30.5490 C.ar   35  PHE35      -0.0203
     15  CD1        5.1300  -16.4920   30.2710 C.ar   35  PHE35      -0.0042
     16  CD2        4.7960  -18.8480   30.3540 C.ar   35  PHE35      -0.0042
     17  CE1        3.8420  -16.3220   29.8000 C.ar   35  PHE35      -0.0003
     18  CE2        3.5070  -18.6840   29.8840 C.ar   35  PHE35      -0.0003
     19  CZ         3.0300  -17.4180   29.6080 C.ar   35  PHE35      -0.0000
     20  N          6.4310  -14.9490   24.3440 N.3    64  ASP64      -0.1239
     21  CA         6.1900  -13.5090   24.2640 C.3    64  ASP64       0.1674
     22  C          7.5420  -12.8130   24.1860 C.2    64  ASP64       0.2266
     23  O          8.1610  -12.4910   25.2010 O.2    64  ASP64      -0.2867
     24  CB         5.3820  -13.0220   25.4590 C.3    64  ASP64       0.1410
     25  CG         3.9920  -13.6130   25.5050 C.2    64  ASP64       0.3668
     26  OD1        3.3450  -13.6870   24.4380 O.co2  64  ASP64      -0.2456
     27  OD2        3.5470  -14.0050   26.6080 O.co2  64  ASP64      -0.2456
     28  N          8.5080   -9.5270   22.5820 N.3    66  GLU66      -0.1245
     29  CA         8.2070   -8.2580   21.9370 C.3    66  GLU66       0.1567
     30  C          9.3850   -7.3010   21.9380 C.2    66  GLU66       0.2260
     31  O          9.5310   -6.5120   20.9990 O.2    66  GLU66      -0.2867
     32  CB         7.0270   -7.5720   22.6340 C.3    66  GLU66       0.0388
     33  CG         5.8020   -8.4480   22.8240 C.3    66  GLU66       0.1160
     34  CD         4.7010   -7.7360   23.5810 C.2    66  GLU66       0.3649
     35  OE1        4.8520   -6.5260   23.8540 O.co2  66  GLU66      -0.2457
     36  OE2        3.6830   -8.3840   23.9020 O.co2  66  GLU66      -0.2457
     37  N         11.0800  -12.7490   27.3920 N.3    72  ARG72      -0.1245
     38  CA        11.2540  -13.7700   28.4210 C.3    72  ARG72       0.1563
     39  C         12.7200  -14.1490   28.6010 C.2    72  ARG72       0.2260
     40  O         13.1720  -14.3820   29.7280 O.2    72  ARG72      -0.2867
     41  CB        10.4220  -15.0010   28.0690 C.3    72  ARG72       0.0307
     42  CG         8.9670  -14.6920   27.7540 C.3    72  ARG72       0.0489
     43  CD         8.3210  -13.8450   28.8420 C.3    72  ARG72       0.2205
     44  NE         6.8880  -13.6830   28.6220 N.pl3  72  ARG72      -0.0865
     45  CZ         6.1250  -12.8000   29.2580 C.cat  72  ARG72       0.5346
     46  NH1        6.6510  -11.9820   30.1600 N.pl3  72  ARG72       0.1354
     47  NH2        4.8290  -12.7310   28.9850 N.pl3  72  ARG72       0.1354
     48  N          4.8000  -14.0480   19.9430 N.3   122  PHE122     -0.1241
     49  CA         3.5360  -13.3150   19.9020 C.3   122  PHE122      0.1605
     50  C          3.8550  -11.8270   19.7840 C.2   122  PHE122      0.2264
     51  O          3.7980  -11.0530   20.7430 O.2   122  PHE122     -0.2867
     52  CB         2.6820  -13.6360   21.1210 C.3   122  PHE122      0.0534
     53  CG         2.0470  -14.9980   21.0650 C.ar  122  PHE122     -0.0203
     54  CD1        1.1660  -15.3230   20.0450 C.ar  122  PHE122     -0.0042
     55  CD2        2.3320  -15.9540   22.0220 C.ar  122  PHE122     -0.0042
     56  CE1        0.5810  -16.5710   19.9840 C.ar  122  PHE122     -0.0003
     57  CE2        1.7470  -17.2080   21.9650 C.ar  122  PHE122     -0.0003
     58  CZ         0.8700  -17.5140   20.9430 C.ar  122  PHE122     -0.0000
     59  N         -3.2310    3.4230   28.2540 N.3   133  SER133     -0.1217
     60  CA        -2.8920    2.1740   28.9230 C.3   133  SER133      0.1889
     61  C         -1.4140    2.1650   29.2810 C.2   133  SER133      0.2288
     62  O         -0.5590    2.3580   28.4100 O.2   133  SER133     -0.2866
     63  CB        -3.2240    0.9730   28.0330 C.3   133  SER133      0.2089
     64  OG        -2.7530   -0.2350   28.6050 O.3   133  SER133     -0.2183
     65  N         -0.2730   -0.6490   30.7630 N.3   135  VAL135     -0.1231
     66  CA         0.0600   -2.0460   30.4990 C.3   135  VAL135      0.1692
     67  C          0.6900   -2.1790   29.1190 C.2   135  VAL135      0.2591
     68  O          1.6770   -2.9030   28.9340 O.2   135  VAL135     -0.2718
     69  CB        -1.1950   -2.9310   30.6370 C.3   135  VAL135      0.0266
     70  CG1       -0.8260   -4.4000   30.5210 C.3   135  VAL135      0.0020
     71  CG2       -1.9020   -2.6700   31.9630 C.3   135  VAL135      0.0020
     72  N          0.1330   -1.4840   28.1290 N.am  136  ILE136     -0.1980
     73  CA         0.7270   -1.4330   26.7990 C.3   136  ILE136      0.1595
     74  C          1.9440   -0.5220   26.8600 C.2   136  ILE136      0.2287
     75  O          3.0850   -0.9810   26.7370 O.2   136  ILE136     -0.2864
     76  CB        -0.2890   -0.9510   25.7490 C.3   136  ILE136      0.0276
     77  CG1       -1.4980   -1.8870   25.7270 C.3   136  ILE136      0.0022
     78  CG2        0.3520   -0.8970   24.3670 C.3   136  ILE136      0.0022
     79  CD1       -2.6750   -1.3560   24.9500 C.3   136  ILE136      0.0001
     80  N          5.0910   -0.6780   24.6790 N.3   139  ARG139     -0.1245
     81  CA         4.9480   -1.8460   23.8210 C.3   139  ARG139      0.1563
     82  C          4.3560   -1.4950   22.4630 C.2   139  ARG139      0.2260
     83  O          4.4910   -2.2810   21.5220 O.2   139  ARG139     -0.2867
     84  CB         4.0710   -2.8960   24.5060 C.3   139  ARG139      0.0307
     85  CG         4.6420   -3.4240   25.8110 C.3   139  ARG139      0.0489
     86  CD         3.5870   -4.1610   26.6210 C.3   139  ARG139      0.2205
     87  NE         3.1310   -5.3790   25.9620 N.pl3 139  ARG139     -0.0865
     88  CZ         2.0750   -6.0880   26.3470 C.cat 139  ARG139      0.5346
     89  NH1        1.3490   -5.6960   27.3850 N.pl3 139  ARG139      0.1354
     90  NH2        1.7370   -7.1870   25.6890 N.pl3 139  ARG139      0.1354
     91  N         -1.4560   -8.0890   17.7350 N.3   169  LYS169     -0.1231
     92  CA        -2.3210   -8.0380   18.9070 C.3   169  LYS169      0.1693
     93  C         -2.4540   -6.6110   19.4410 C.2   169  LYS169      0.2592
     94  O         -1.5680   -5.7900   19.2060 O.2   169  LYS169     -0.2718
     95  CB        -1.7760   -8.9680   19.9930 C.3   169  LYS169      0.0285
     96  CG        -0.4010   -8.5870   20.5190 C.3   169  LYS169      0.0035
     97  CD         0.1780   -9.6980   21.3890 C.3   169  LYS169      0.0206
     98  CE         1.4980   -9.2930   22.0190 C.3   169  LYS169      0.1093
     99  NZ         2.1370  -10.4210   22.7450 N.3   169  LYS169     -0.1314
    100  N         -3.5350   -6.2900   20.1570 N.am  170  HIS170     -0.1976
    101  CA        -4.6080   -7.2120   20.5310 C.3   170  HIS170      0.1656
    102  C         -5.9110   -6.8010   19.8430 C.2   170  HIS170      0.2291
    103  O         -6.5390   -5.8100   20.2180 O.2   170  HIS170     -0.2864
    104  CB        -4.7730   -7.2330   22.0550 C.3   170  HIS170      0.0771
    105  CG        -3.4840   -7.4280   22.7920 C.ar  170  HIS170      0.0820
    106  ND1       -2.5040   -6.4610   22.8450 N.ar  170  HIS170     -0.2267
    107  CD2       -3.0060   -8.4860   23.4880 C.ar  170  HIS170      0.1154
    108  CE1       -1.4780   -6.9130   23.5430 C.ar  170  HIS170      0.1986
    109  NE2       -1.7590   -8.1390   23.9480 N.ar  170  HIS170     -0.2212
    110  N         -6.3700   -2.6310   21.8070 N.3   174  HIS174     -0.1241
    111  CA        -6.4130   -2.5160   23.2580 C.3   174  HIS174      0.1621
    112  C         -5.8150   -1.2040   23.7520 C.2   174  HIS174      0.2264
    113  O         -5.6460   -1.0260   24.9630 O.2   174  HIS174     -0.2867
    114  CB        -5.6820   -3.7030   23.8910 C.3   174  HIS174      0.0745
    115  CG        -6.1270   -4.0180   25.2860 C.ar  174  HIS174      0.0817
    116  ND1       -6.4430   -3.0440   26.2080 N.ar  174  HIS174     -0.2268
    117  CD2       -6.3170   -5.2040   25.9120 C.ar  174  HIS174      0.1154
    118  CE1       -6.8040   -3.6160   27.3440 C.ar  174  HIS174      0.1986
    119  NE2       -6.7370   -4.9260   27.1900 N.ar  174  HIS174     -0.2212
    120  N         -7.6300    0.7570   29.4280 N.3   178  GLU178     -0.1245
    121  CA        -6.5630    0.2830   30.3080 C.3   178  GLU178      0.1567
    122  C         -6.4880   -1.2420   30.3270 C.2   178  GLU178      0.2260
    123  O         -7.0210   -1.8910   31.2280 O.2   178  GLU178     -0.2867
    124  CB        -6.7610    0.8130   31.7310 C.3   178  GLU178      0.0388
    125  CG        -6.6970    2.3290   31.8500 C.3   178  GLU178      0.1160
    126  CD        -6.8520    2.8140   33.2830 C.2   178  GLU178      0.3649
    127  OE1       -7.0060    1.9670   34.1900 O.co2 178  GLU178     -0.2457
    128  OE2       -6.8190    4.0450   33.5030 O.co2 178  GLU178     -0.2457
    129  N         -4.1080  -12.1050   17.9550 N.3   208  ILE208     -0.1245
    130  CA        -4.6310  -12.3420   19.2970 C.3   208  ILE208      0.1561
    131  C         -5.7290  -11.3130   19.5460 C.2   208  ILE208      0.2260
    132  O         -5.4400  -10.1100   19.5590 O.2   208  ILE208     -0.2867
    133  CB        -3.5360  -12.2480   20.3740 C.3   208  ILE208      0.0252
    134  CG1       -2.7130  -13.5330   20.4200 C.3   208  ILE208      0.0019
    135  CG2       -4.1410  -11.9950   21.7600 C.3   208  ILE208      0.0019
    136  CD1       -1.4420  -13.4190   21.2460 C.3   208  ILE208      0.0001
    137  N         -9.0940   -9.0610   25.2500 N.3   211  HIS211     -0.1241
    138  CA       -10.1350   -9.3230   26.2440 C.3   211  HIS211      0.1621
    139  C        -10.7810   -7.9900   26.6250 C.2   211  HIS211      0.2264
    140  O        -10.6480   -7.4820   27.7410 O.2   211  HIS211     -0.2867
    141  CB        -9.5570  -10.0330   27.4620 C.3   211  HIS211      0.0745
    142  CG        -9.2420  -11.4800   27.2370 C.ar  211  HIS211      0.0817
    143  ND1       -9.8870  -12.2470   26.2910 N.ar  211  HIS211     -0.2268
    144  CD2       -8.3560  -12.3030   27.8460 C.ar  211  HIS211      0.1154
    145  CE1       -9.4090  -13.4780   26.3240 C.ar  211  HIS211      0.1986
    146  NE2       -8.4770  -13.5380   27.2570 N.ar  211  HIS211     -0.2212
    147  N         -6.2620  -14.4900   23.7250 N.3   246  ASP246     -0.1225
    148  CA        -5.3970  -14.0160   24.7880 C.3   246  ASP246      0.1805
    149  C         -5.5330  -14.9470   25.9920 C.2   246  ASP246      0.2597
    150  O         -6.4400  -15.7820   26.0650 O.2   246  ASP246     -0.2718
    151  CB        -5.7350  -12.5730   25.1640 C.3   246  ASP246      0.1424
    152  CG        -4.5460  -11.8310   25.7610 C.2   246  ASP246      0.3668
    153  OD1       -3.5150  -12.4780   26.0490 O.co2 246  ASP246     -0.2456
    154  OD2       -4.6430  -10.6000   25.9450 O.co2 246  ASP246     -0.2456
    155  N         -4.6120  -14.8020   26.9410 N.am  247  ASP247     -0.1974
    156  CA        -4.5120  -15.7340   28.0580 C.3   247  ASP247      0.1709
    157  C         -5.8500  -15.8900   28.7740 C.2   247  ASP247      0.2293
    158  O         -6.3350  -14.9540   29.4170 O.2   247  ASP247     -0.2864
    159  CB        -3.4290  -15.2650   29.0320 C.3   247  ASP247      0.1436
    160  CG        -3.2370  -16.2150   30.1980 C.2   247  ASP247      0.3671
    161  OD1       -3.7410  -17.3560   30.1330 O.co2 247  ASP247     -0.2456
    162  OD2       -2.5700  -15.8200   31.1780 O.co2 247  ASP247     -0.2456
    163  N         -6.3540  -17.5040   31.3620 N.3   249  SER249     -0.1202
    164  CA        -6.1440  -17.6000   32.8000 C.3   249  SER249      0.2020
    165  C         -6.5000  -16.3140   33.5330 C.2   249  SER249      0.2619
    166  O         -6.5860  -16.3300   34.7650 O.2   249  SER249     -0.2717
    167  CB        -4.6910  -17.9780   33.0880 C.3   249  SER249      0.2103
    168  OG        -4.4030  -19.2780   32.6020 O.3   249  SER249     -0.2182
    169  N         -6.7010  -15.2090   32.8190 N.am  250  MET250     -0.1965
    170  CA        -7.1990  -13.9960   33.4520 C.3   250  MET250      0.1736
    171  C         -8.6060  -14.2410   33.9810 C.2   250  MET250      0.2616
    172  O         -9.5270  -14.5210   33.2070 O.2   250  MET250     -0.2715
    173  CB        -7.2000  -12.8380   32.4550 C.3   250  MET250      0.0427
    174  CG        -5.8460  -12.5350   31.8360 C.3   250  MET250      0.0599
    175  SD        -5.8970  -11.0910   30.7540 S.3   250  MET250     -0.1393
    176  CE        -5.1590  -11.7530   29.2590 C.3   250  MET250      0.0692
    177  N         -8.7690  -14.1320   35.3020 N.am  251  GLU251     -0.1977
    178  CA       -10.0480  -14.4550   35.9310 C.3   251  GLU251      0.1602
    179  C        -11.2110  -13.7590   35.2340 C.2   251  GLU251      0.2287
    180  O        -12.2940  -14.3380   35.0880 O.2   251  GLU251     -0.2864
    181  CB       -10.0100  -14.0730   37.4120 C.3   251  GLU251      0.0415
    182  CG        -8.7030  -14.4570   38.1350 C.3   251  GLU251      0.1163
    183  CD        -8.5950  -15.9340   38.4800 C.2   251  GLU251      0.3649
    184  OE1       -9.5970  -16.6680   38.4040 O.co2 251  GLU251     -0.2457
    185  OE2       -7.4870  -16.3500   38.8500 O.co2 251  GLU251     -0.2457
    186  N         -5.1790  -19.9830   24.6200 N.3   275  LEU275     -0.1245
    187  CA        -4.0250  -19.9430   25.5080 C.3   275  LEU275      0.1561
    188  C         -4.4950  -20.0980   26.9490 C.2   275  LEU275      0.2260
    189  O         -5.3330  -19.3220   27.4220 O.2   275  LEU275     -0.2867
    190  CB        -3.2510  -18.6350   25.3430 C.3   275  LEU275      0.0270
    191  CG        -2.1940  -18.5890   24.2390 C.3   275  LEU275      0.0019
    192  CD1       -2.8160  -18.8490   22.8680 C.3   275  LEU275      0.0001
    193  CD2       -1.4650  -17.2510   24.2650 C.3   275  LEU275      0.0001
    194  N         -2.3850  -20.1210   30.2630 N.3   277  CYS277     -0.1221
    195  CA        -1.0270  -19.8990   30.7370 C.3   277  CYS277      0.1808
    196  C         -0.9440  -20.0080   32.2550 C.2   277  CYS277      0.2601
    197  O         -1.8760  -19.6450   32.9780 O.2   277  CYS277     -0.2717
    198  CB        -0.5220  -18.5200   30.3070 C.3   277  CYS277      0.0970
    199  SG        -0.6160  -18.1940   28.5390 S.3   277  CYS277     -0.0800
    200  N          0.1960  -20.5180   32.7250 N.am  278  ASN278     -0.1974
    201  CA         0.5890  -20.4470   34.1310 C.3   278  ASN278      0.1688
    202  C         -0.3090  -21.2850   35.0400 C.2   278  ASN278      0.2292
    203  O         -0.4450  -20.9870   36.2280 O.2   278  ASN278     -0.2864
    204  CB         0.6190  -18.9940   34.6180 C.3   278  ASN278      0.1181
    205  CG         1.4760  -18.8120   35.8590 C.2   278  ASN278      0.2629
    206  OD1        2.3860  -19.5990   36.1210 O.2   278  ASN278     -0.2716
    207  ND2        1.1890  -17.7670   36.6290 N.am  278  ASN278     -0.0877
@<TRIPOS>BOND
     1    91    92    1
     2   129   130    1
     3    92    93    1
     4    92    95    1
     5    94    93    2
     6   130   131    1
     7   130   133    1
     8    93   100   am
     9   131   132    2
    10    50    49    1
    11    50    51    2
    12   102   103    2
    13   102   101    1
    14    49    48    1
    15    49    52    1
    16    56    54   ar
    17    56    58   ar
    18    95    96    1
    19    54    53   ar
    20   100   101    1
    21   133   134    1
    22   133   135    1
    23   134   136    1
    24    96    97    1
    25   101   104    1
    26    58    57   ar
    27    31    30    2
    28    53    52    1
    29    53    55   ar
    30    97    98    1
    31    83    82    2
    32   110   111    1
    33    29    30    1
    34    29    28    1
    35    29    32    1
    36    57    55   ar
    37    98    99    1
    38   104   105    1
    39    82    81    1
    40    32    33    1
    41   105   106   ar
    42   105   107   ar
    43    33    34    1
    44   106   108   ar
    45   192   191    1
    46   111   112    1
    47   111   114    1
    48   107   109   ar
    49   108   109   ar
    50    34    35   ar
    51    34    36   ar
    52   147   148    1
    53   112   113    2
    54    81    84    1
    55    81    80    1
    56   114   115    1
    57    22    21    1
    58    22    23    2
    59   191   193    1
    60   191   190    1
    61    21    20    1
    62    21    24    1
    63    78    76    1
    64    26    25   ar
    65    84    85    1
    66   186   187    1
    67   148   151    1
    68   148   149    1
    69    79    77    1
    70   151   152    1
    71     1     2    1
    72   137   138    1
    73   115   117   ar
    74   115   116   ar
    75     2     5    1
    76     2     3    1
    77   190   187    1
    78    24    25    1
    79    25    27   ar
    80   187   188    1
    81     5     6    1
    82     5     7    1
    83     8     6    1
    84    90    88    1
    85    77    76    1
    86    76    73    1
    87   152   154   ar
    88   152   153   ar
    89    85    86    1
    90   117   119   ar
    91    87    88    2
    92    87    86    1
    93   149   150    2
    94   149   155   am
    95   116   118   ar
    96   138   139    1
    97   138   141    1
    98   143   145   ar
    99   143   142   ar
   100   145   146   ar
   101    88    89    1
   102     3     4    2
   103   139   140    2
   104    75    74    2
   105    73    74    1
   106    73    72    1
   107   155   156    1
   108   188   189    2
   109   119   118   ar
   110   142   141    1
   111   142   144   ar
   112   146   144   ar
   113    37    38    1
   114    42    41    1
   115    42    43    1
   116    63    64    1
   117    63    60    1
   118   156   157    1
   119   156   159    1
   120    41    38    1
   121    72    67   am
   122    59    60    1
   123    62    61    2
   124    38    39    1
   125   199   198    1
   126    39    40    2
   127    44    43    1
   128    44    45    2
   129   157   158    2
   130    60    61    1
   131    68    67    2
   132    47    45    1
   133   159   160    1
   134     9    10    1
   135    67    66    1
   136    45    46    1
   137   176   175    1
   138   120   121    1
   139    19    17   ar
   140    19    18   ar
   141    17    15   ar
   142    18    16   ar
   143    10    11    1
   144    10    13    1
   145   161   160   ar
   146   160   162   ar
   147   194   195    1
   148    15    14   ar
   149    12    11    2
   150   198   195    1
   151   121   122    1
   152   121   124    1
   153   122   123    2
   154    16    14   ar
   155    66    69    1
   156    66    65    1
   157    70    69    1
   158    14    13    1
   159    69    71    1
   160   195   196    1
   161   175   174    1
   162   163   164    1
   163   124   125    1
   164   174   173    1
   165   125   126    1
   166   196   200   am
   167   196   197    2
   168   173   170    1
   169   168   167    1
   170   200   201    1
   171   164   167    1
   172   164   165    1
   173   169   170    1
   174   169   165   am
   175   172   171    2
   176   126   128   ar
   177   126   127   ar
   178   170   171    1
   179   165   166    2
   180   171   177   am
   181   201   204    1
   182   201   202    1
   183   204   205    1
   184   202   203    2
   185   180   179    2
   186   179   178    1
   187   177   178    1
   188   205   206    2
   189   205   207   am
   190   178   181    1
   191   181   182    1
   192   182   183    1
   193   184   183   ar
   194   183   185   ar
