@<TRIPOS>MOLECULE
tmp/5utqA00.pdb
 192 181 0 0 0
SMALL
GASTEIGER

@<TRIPOS>ATOM
      1  N         14.1670  -18.5180    5.9580 N.3    32  ILE32      -0.1245
      2  CA        13.7770  -17.1130    5.9460 C.3    32  ILE32       0.1561
      3  C         12.5840  -16.9690    5.0140 C.2    32  ILE32       0.2260
      4  O         12.5840  -17.5200    3.9070 O.2    32  ILE32      -0.2867
      5  CB        14.9360  -16.1950    5.5140 C.3    32  ILE32       0.0252
      6  CG1       14.4580  -14.7370    5.4520 C.3    32  ILE32       0.0019
      7  CG2       15.5120  -16.6470    4.1730 C.3    32  ILE32       0.0019
      8  CD1       15.5660  -13.7210    5.2470 C.3    32  ILE32       0.0001
      9  N          9.5130  -14.5990    2.9860 N.3    34  PHE34      -0.1241
     10  CA         9.3200  -13.3550    2.2520 C.3    34  PHE34       0.1605
     11  C          7.8400  -13.2210    1.9130 C.2    34  PHE34       0.2264
     12  O          7.0310  -14.1030    2.2160 O.2    34  PHE34      -0.2867
     13  CB        10.1900  -13.3080    0.9890 C.3    34  PHE34       0.0534
     14  CG        11.6620  -13.2280    1.2710 C.ar   34  PHE34      -0.0203
     15  CD1       12.2680  -12.0060    1.5100 C.ar   34  PHE34      -0.0042
     16  CD2       12.4410  -14.3730    1.2960 C.ar   34  PHE34      -0.0042
     17  CE1       13.6210  -11.9270    1.7710 C.ar   34  PHE34      -0.0003
     18  CE2       13.7960  -14.3000    1.5560 C.ar   34  PHE34      -0.0003
     19  CZ        14.3870  -13.0760    1.7940 C.ar   34  PHE34      -0.0000
     20  N         12.3730  -10.7840    7.6090 N.3    63  ASP63      -0.1239
     21  CA        12.7800   -9.3800    7.6790 C.3    63  ASP63       0.1674
     22  C         11.5650   -8.5480    8.0680 C.2    63  ASP63       0.2266
     23  O         10.8390   -8.0300    7.2180 O.2    63  ASP63      -0.2867
     24  CB        13.3630   -8.9120    6.3530 C.3    63  ASP63       0.1410
     25  CG        14.6470   -9.6260    5.9920 C.2    63  ASP63       0.3668
     26  OD1       15.4860   -9.8380    6.8940 O.co2  63  ASP63      -0.2456
     27  OD2       14.8160   -9.9720    4.8040 O.co2  63  ASP63      -0.2456
     28  N         11.2040   -5.3800    9.9040 N.3    65  GLU65      -0.1245
     29  CA        11.7420   -4.1530   10.4770 C.3    65  GLU65       0.1567
     30  C         10.6720   -3.0970   10.6940 C.2    65  GLU65       0.2260
     31  O         10.6700   -2.4260   11.7290 O.2    65  GLU65      -0.2867
     32  CB        12.8290   -3.5690    9.5710 C.3    65  GLU65       0.0388
     33  CG        13.9430   -4.5340    9.2130 C.3    65  GLU65       0.1160
     34  CD        14.9110   -3.9440    8.2110 C.2    65  GLU65       0.3649
     35  OE1       14.9960   -2.7000    8.1260 O.co2  65  GLU65      -0.2457
     36  OE2       15.5770   -4.7260    7.5010 O.co2  65  GLU65      -0.2457
     37  N          7.4880   -8.0190    5.4910 N.3    71  ARG71      -0.1245
     38  CA         6.9270   -8.9560    4.5230 C.3    71  ARG71       0.1563
     39  C          5.4280   -9.1310    4.7210 C.2    71  ARG71       0.2260
     40  O          4.6690   -9.1850    3.7470 O.2    71  ARG71      -0.2867
     41  CB         7.6320  -10.3090    4.6290 C.3    71  ARG71       0.0307
     42  CG         9.1450  -10.2330    4.6470 C.3    71  ARG71       0.0489
     43  CD         9.6860   -9.4560    3.4660 C.3    71  ARG71       0.2205
     44  NE        11.1290   -9.2930    3.5700 N.pl3  71  ARG71      -0.0865
     45  CZ        11.8310   -8.3780    2.9130 C.cat  71  ARG71       0.5346
     46  NH1       11.2310   -7.5250    2.0950 N.pl3  71  ARG71       0.1354
     47  NH2       13.1410   -8.3110    3.0860 N.pl3  71  ARG71       0.1354
     48  N         14.7950  -10.3090   11.5820 N.3   121  PHE121     -0.1241
     49  CA        16.1110   -9.7080   11.3710 C.3   121  PHE121      0.1605
     50  C         15.9850   -8.2050   11.6000 C.2   121  PHE121      0.2264
     51  O         15.9330   -7.3910   10.6740 O.2   121  PHE121     -0.2867
     52  CB        16.6490  -10.0490    9.9880 C.3   121  PHE121      0.0534
     53  CG        17.0920  -11.4820    9.8540 C.ar  121  PHE121     -0.0203
     54  CD1       18.0570  -12.0020   10.7010 C.ar  121  PHE121     -0.0042
     55  CD2       16.5450  -12.3070    8.8870 C.ar  121  PHE121     -0.0042
     56  CE1       18.4680  -13.3170   10.5860 C.ar  121  PHE121     -0.0003
     57  CE2       16.9540  -13.6230    8.7670 C.ar  121  PHE121     -0.0003
     58  CZ        17.9150  -14.1280    9.6190 C.ar  121  PHE121     -0.0000
     59  N         19.8880    2.6340    0.4830 N.3   134  VAL134     -0.1231
     60  CA        19.3720    1.3010    0.7790 C.3   134  VAL134      0.1692
     61  C         18.9390    1.2110    2.2350 C.2   134  VAL134      0.2591
     62  O         17.9930    0.4870    2.5660 O.2   134  VAL134     -0.2718
     63  CB        20.4190    0.2230    0.4270 C.3   134  VAL134      0.0266
     64  CG1       21.6760    0.3840    1.2640 C.3   134  VAL134      0.0020
     65  CG2       19.8320   -1.1680    0.5990 C.3   134  VAL134      0.0020
     66  N         19.6150    1.9360    3.1270 N.am  135  ILE135     -0.1980
     67  CA        19.1860    1.9970    4.5220 C.3   135  ILE135      0.1595
     68  C         18.0670    3.0160    4.6890 C.2   135  ILE135      0.2287
     69  O         16.9390    2.6690    5.0570 O.2   135  ILE135     -0.2864
     70  CB        20.3810    2.3160    5.4390 C.3   135  ILE135      0.0276
     71  CG1       21.5010    1.2870    5.2350 C.3   135  ILE135      0.0022
     72  CG2       19.9420    2.3630    6.9030 C.3   135  ILE135      0.0022
     73  CD1       21.0920   -0.1620    5.4740 C.3   135  ILE135      0.0001
     74  N         15.1430    3.1980    7.3580 N.3   138  ARG138     -0.1245
     75  CA        15.2740    2.0140    8.1990 C.3   138  ARG138      0.1563
     76  C         16.1390    2.2620    9.4270 C.2   138  ARG138      0.2260
     77  O         16.1440    1.4260   10.3370 O.2   138  ARG138     -0.2867
     78  CB        15.8650    0.8590    7.3910 C.3   138  ARG138      0.0307
     79  CG        15.0300    0.4500    6.1860 C.3   138  ARG138      0.0489
     80  CD        15.8440   -0.3830    5.2170 C.3   138  ARG138      0.2205
     81  NE        16.2780   -1.6530    5.7940 N.pl3 138  ARG138     -0.0865
     82  CZ        17.1920   -2.4490    5.2460 C.cat 138  ARG138      0.5346
     83  NH1       17.7850   -2.1060    4.1090 N.pl3 138  ARG138      0.1354
     84  NH2       17.5210   -3.5890    5.8390 N.pl3 138  ARG138      0.1354
     85  N         22.0820   -5.0130   12.7740 N.3   168  LYS168     -0.1231
     86  CA        22.6550   -4.9580   11.4330 C.3   168  LYS168      0.1693
     87  C         22.7660   -3.5190   10.9350 C.2   168  LYS168      0.2592
     88  O         22.0400   -2.6510   11.4200 O.2   168  LYS168     -0.2718
     89  CB        21.8050   -5.7850   10.4660 C.3   168  LYS168      0.0285
     90  CG        20.3830   -5.2670   10.2890 C.3   168  LYS168      0.0035
     91  CD        19.5260   -6.2480    9.5000 C.3   168  LYS168      0.0206
     92  CE        18.1670   -5.6570    9.1600 C.3   168  LYS168      0.1093
     93  NZ        17.3060   -6.6110    8.4110 N.3   168  LYS168     -0.1314
     94  N         23.6540   -3.2360    9.9790 N.am  169  HIS169     -0.1976
     95  CA        24.5720   -4.1960    9.3620 C.3   169  HIS169      0.1656
     96  C         26.0060   -3.8880    9.8010 C.2   169  HIS169      0.2291
     97  O         26.5750   -2.8620    9.4280 O.2   169  HIS169     -0.2864
     98  CB        24.4450   -4.1520    7.8380 C.3   169  HIS169      0.0771
     99  CG        23.0330   -4.2470    7.3500 C.ar  169  HIS169      0.0820
    100  ND1       22.1120   -3.2360    7.5300 N.ar  169  HIS169     -0.2267
    101  CD2       22.3810   -5.2360    6.6940 C.ar  169  HIS169      0.1154
    102  CE1       20.9540   -3.6000    7.0070 C.ar  169  HIS169      0.1986
    103  NE2       21.0910   -4.8090    6.4920 N.ar  169  HIS169     -0.2212
    104  N         26.4290    0.2530    7.9770 N.3   173  HIS173     -0.1241
    105  CA        26.1040    0.4730    6.5760 C.3   173  HIS173      0.1621
    106  C         25.6630    1.9020    6.2960 C.2   173  HIS173      0.2264
    107  O         25.3980    2.2400    5.1370 O.2   173  HIS173     -0.2867
    108  CB        24.9970   -0.4990    6.1480 C.3   173  HIS173      0.0745
    109  CG        25.0090   -0.8360    4.6890 C.ar  173  HIS173      0.0817
    110  ND1       24.9670    0.1220    3.7000 N.ar  173  HIS173     -0.2268
    111  CD2       25.0440   -2.0310    4.0530 C.ar  173  HIS173      0.1154
    112  CE1       24.9840   -0.4680    2.5180 C.ar  173  HIS173      0.1986
    113  NE2       25.0310   -1.7740    2.7040 N.ar  173  HIS173     -0.2212
    114  N         24.1240   -9.2920   11.8370 N.3   210  ILE210     -0.1245
    115  CA        24.3340   -9.5310   10.4180 C.3   210  ILE210      0.1561
    116  C         25.4300   -8.5650    9.9630 C.2   210  ILE210      0.2260
    117  O         25.2830   -7.3540   10.1380 O.2   210  ILE210     -0.2867
    118  CB        23.0610   -9.3330    9.5810 C.3   210  ILE210      0.0252
    119  CG1       22.1570  -10.5610    9.6850 C.3   210  ILE210      0.0019
    120  CG2       23.3970   -9.0830    8.1050 C.3   210  ILE210      0.0019
    121  CD1       20.7650  -10.3490    9.1260 C.3   210  ILE210      0.0001
    122  N         27.5300   -6.1880    3.6380 N.3   213  HIS213     -0.1241
    123  CA        28.2630   -6.4050    2.3890 C.3   213  HIS213      0.1621
    124  C         28.9050   -5.0810    1.9750 C.2   213  HIS213      0.2264
    125  O         28.5260   -4.4330    0.9980 O.2   213  HIS213     -0.2867
    126  CB        27.3450   -6.9430    1.3010 C.3   213  HIS213      0.0745
    127  CG        26.9840   -8.3860    1.4670 C.ar  213  HIS213      0.0817
    128  ND1       27.8420   -9.3100    2.0250 N.ar  213  HIS213     -0.2268
    129  CD2       25.8570   -9.0650    1.1480 C.ar  213  HIS213      0.1154
    130  CE1       27.2590  -10.4950    2.0410 C.ar  213  HIS213      0.1986
    131  NE2       26.0530  -10.3740    1.5170 N.ar  213  HIS213     -0.2212
    132  N         24.8480  -11.5940    5.6300 N.3   248  ASP248     -0.1225
    133  CA        23.8310  -10.9840    4.7940 C.3   248  ASP248      0.1805
    134  C         23.6490  -11.8290    3.5360 C.2   248  ASP248      0.2597
    135  O         24.4880  -12.6680    3.1940 O.2   248  ASP248     -0.2718
    136  CB        24.2080   -9.5460    4.4350 C.3   248  ASP248      0.1424
    137  CG        22.9960   -8.6950    4.0820 C.2   248  ASP248      0.3668
    138  OD1       21.9050   -9.2660    3.8630 O.co2 248  ASP248     -0.2456
    139  OD2       23.1370   -7.4540    4.0240 O.co2 248  ASP248     -0.2456
    140  N         22.5330  -11.6040    2.8500 N.am  249  ASP249     -0.1974
    141  CA        22.1490  -12.4390    1.7170 C.3   249  ASP249      0.1709
    142  C         23.3220  -12.6570    0.7670 C.2   249  ASP249      0.2293
    143  O         23.8320  -11.7110    0.1590 O.2   249  ASP249     -0.2864
    144  CB        20.9750  -11.7880    0.9850 C.3   249  ASP249      0.1436
    145  CG        20.4160  -12.6610   -0.1170 C.2   249  ASP249      0.3671
    146  OD1       20.8150  -13.8410   -0.2050 O.co2 249  ASP249     -0.2456
    147  OD2       19.5670  -12.1680   -0.8900 O.co2 249  ASP249     -0.2456
    148  N         23.1190  -14.1850   -1.9950 N.3   251  SER251     -0.1202
    149  CA        22.6370  -14.0380   -3.3620 C.3   251  SER251      0.2020
    150  C         22.9440  -12.6640   -3.9430 C.2   251  SER251      0.2619
    151  O         22.7450  -12.4610   -5.1450 O.2   251  SER251     -0.2717
    152  CB        21.1300  -14.2990   -3.4150 C.3   251  SER251      0.2103
    153  OG        20.8310  -15.6180   -2.9930 O.3   251  SER251     -0.2182
    154  N         23.4120  -11.7230   -3.1270 N.am  252  MET252     -0.1965
    155  CA        23.8740  -10.4350   -3.6320 C.3   252  MET252      0.1736
    156  C         25.1840  -10.6520   -4.3820 C.2   252  MET252      0.2616
    157  O         26.2230  -10.9190   -3.7690 O.2   252  MET252     -0.2715
    158  CB        24.0410   -9.4520   -2.4760 C.3   252  MET252      0.0427
    159  CG        23.7150   -8.0080   -2.8240 C.3   252  MET252      0.0599
    160  SD        25.1680   -7.0480   -3.2790 S.3   252  MET252     -0.1393
    161  CE        25.8790   -6.7540   -1.6630 C.3   252  MET252      0.0692
    162  N         25.1320  -10.5400   -5.7120 N.am  253  GLU253     -0.1977
    163  CA        26.2470  -10.9480   -6.5630 C.3   253  GLU253      0.1602
    164  C         27.5570  -10.2940   -6.1370 C.2   253  GLU253      0.2287
    165  O         28.5390  -10.9790   -5.8310 O.2   253  GLU253     -0.2864
    166  CB        25.9280  -10.6070   -8.0210 C.3   253  GLU253      0.0415
    167  CG        25.0120  -11.6070   -8.7130 C.3   253  GLU253      0.1163
    168  CD        25.7660  -12.7510   -9.3670 C.2   253  GLU253      0.3649
    169  OE1       26.9570  -12.5730   -9.7010 O.co2 253  GLU253     -0.2457
    170  OE2       25.1660  -13.8310   -9.5480 O.co2 253  GLU253     -0.2457
    171  N         23.0940  -16.8850    4.7210 N.3   277  LEU277     -0.1245
    172  CA        21.7860  -16.7040    4.1090 C.3   277  LEU277      0.1561
    173  C         21.9020  -16.8070    2.5940 C.2   277  LEU277      0.2260
    174  O         22.7430  -16.1390    1.9830 O.2   277  LEU277     -0.2867
    175  CB        21.1870  -15.3520    4.4990 C.3   277  LEU277      0.0270
    176  CG        20.3780  -15.3240    5.7970 C.3   277  LEU277      0.0019
    177  CD1       21.2400  -15.7260    6.9890 C.3   277  LEU277      0.0001
    178  CD2       19.7650  -13.9450    6.0060 C.3   277  LEU277      0.0001
    179  N         19.0770  -16.4840   -0.2690 N.3   279  CYS279     -0.1221
    180  CA        17.6720  -16.1490   -0.4460 C.3   279  CYS279      0.1808
    181  C         17.3030  -16.1260   -1.9240 C.2   279  CYS279      0.2601
    182  O         18.0970  -15.6980   -2.7690 O.2   279  CYS279     -0.2717
    183  CB        17.3570  -14.7890    0.1850 C.3   279  CYS279      0.0970
    184  SG        17.9950  -14.5800    1.8740 S.3   279  CYS279     -0.0800
    185  N         16.0920  -16.6010   -2.2240 N.am  280  ASN280     -0.1974
    186  CA        15.4560  -16.4260   -3.5290 C.3   280  ASN280      0.1688
    187  C         16.0700  -17.3120   -4.6120 C.2   280  ASN280      0.2292
    188  O         16.0230  -16.9720   -5.7960 O.2   280  ASN280     -0.2864
    189  CB        15.4980  -14.9600   -3.9670 C.3   280  ASN280      0.1181
    190  CG        14.4160  -14.6220   -4.9740 C.2   280  ASN280      0.2629
    191  OD1       13.3710  -15.2730   -5.0210 O.2   280  ASN280     -0.2716
    192  ND2       14.6620  -13.6010   -5.7880 N.am  280  ASN280     -0.0877
@<TRIPOS>BOND
     1   169   168   ar
     2   170   168   ar
     3   168   167    1
     4   167   166    1
     5   166   163    1
     6   163   164    1
     7   163   162    1
     8   164   165    2
     9   188   187    2
    10   192   190   am
    11   162   156   am
    12   151   150    2
    13   191   190    2
    14   190   189    1
    15   187   186    1
    16   156   157    2
    17   156   155    1
    18   189   186    1
    19   150   149    1
    20   150   154   am
    21   155   154    1
    22   155   158    1
    23   186   185    1
    24   152   149    1
    25   152   153    1
    26   149   148    1
    27   160   159    1
    28   160   161    1
    29   159   158    1
    30   182   181    2
    31   185   181   am
    32   181   180    1
    33   147   145   ar
    34   180   179    1
    35   180   183    1
    36   146   145   ar
    37   145   144    1
    38   143   142    2
    39   183   184    1
    40    63    65    1
    41    63    60    1
    42    63    64    1
    43    59    60    1
    44   142   141    1
    45    60    61    1
    46   144   141    1
    47    13    14    1
    48    13    10    1
    49   125   124    2
    50   129   127   ar
    51   129   131   ar
    52    14    16   ar
    53    14    15   ar
    54    16    18   ar
    55   126   127    1
    56   126   123    1
    57   127   128   ar
    58    15    17   ar
    59   131   130   ar
    60    18    19   ar
    61   141   140    1
    62    17    19   ar
    63    11    12    2
    64    11    10    1
    65   124   123    1
    66   174   173    2
    67   128   130   ar
    68    46    45    1
    69    61    62    2
    70    61    66   am
    71    10     9    1
    72   123   122    1
    73   112   113   ar
    74   112   110   ar
    75   173   172    1
    76   113   111   ar
    77   140   134   am
    78    45    47    1
    79    45    44    2
    80    66    67    1
    81   135   134    2
    82    43    44    1
    83    43    42    1
    84   134   133    1
    85   110   109   ar
    86    40    39    2
    87   138   137   ar
    88     4     3    2
    89   139   137   ar
    90   111   109   ar
    91   137   136    1
    92   172   175    1
    93   172   171    1
    94    83    82    1
    95     7     5    1
    96   136   133    1
    97   175   176    1
    98    67    68    1
    99    67    70    1
   100    38    41    1
   101    38    39    1
   102    38    37    1
   103    41    42    1
   104    68    69    2
   105   109   108    1
   106   133   132    1
   107    27    25   ar
   108     3     2    1
   109   107   106    2
   110    80    81    1
   111    80    79    1
   112    71    70    1
   113    71    73    1
   114    82    81    2
   115    82    84    1
   116     8     6    1
   117    70    72    1
   118     6     5    1
   119     5     2    1
   120   176   178    1
   121   176   177    1
   122     2     1    1
   123    25    24    1
   124    25    26   ar
   125   108   105    1
   126    79    78    1
   127   106   105    1
   128    24    21    1
   129   103   101   ar
   130   103   102   ar
   131   105   104    1
   132   101    99   ar
   133   102   100   ar
   134    23    22    2
   135    99   100   ar
   136    99    98    1
   137    74    75    1
   138    78    75    1
   139    36    34   ar
   140    20    21    1
   141    21    22    1
   142    98    95    1
   143   120   118    1
   144    35    34   ar
   145    75    76    1
   146    34    33    1
   147    93    92    1
   148    57    55   ar
   149    57    58   ar
   150    55    53   ar
   151   121   119    1
   152    92    91    1
   153    33    32    1
   154    95    96    1
   155    95    94    1
   156    76    77    2
   157    97    96    2
   158    91    90    1
   159    32    29    1
   160   118   119    1
   161   118   115    1
   162    58    56   ar
   163    53    52    1
   164    53    54   ar
   165    28    29    1
   166   116   117    2
   167   116   115    1
   168    94    87   am
   169    52    49    1
   170    90    89    1
   171   115   114    1
   172    89    86    1
   173    29    30    1
   174    56    54   ar
   175    51    50    2
   176    30    31    2
   177    87    88    2
   178    87    86    1
   179    49    48    1
   180    49    50    1
   181    86    85    1
