@<TRIPOS>MOLECULE
tmp/5utrA00.pdb
 190 178 0 0 0
SMALL
GASTEIGER

@<TRIPOS>ATOM
      1  N         14.2660  -18.2210    5.9930 N.3    32  ILE32      -0.1245
      2  CA        13.8880  -16.8140    6.0030 C.3    32  ILE32       0.1561
      3  C         12.6950  -16.6430    5.0730 C.2    32  ILE32       0.2260
      4  O         12.6630  -17.2130    3.9760 O.2    32  ILE32      -0.2867
      5  CB        15.0580  -15.8980    5.5890 C.3    32  ILE32       0.0252
      6  CG1       14.6120  -14.4320    5.5960 C.3    32  ILE32       0.0019
      7  CG2       15.6030  -16.2980    4.2220 C.3    32  ILE32       0.0019
      8  CD1       15.7440  -13.4410    5.4400 C.3    32  ILE32       0.0001
      9  N          9.7180  -14.2420    3.0090 N.3    34  PHE34      -0.1241
     10  CA         9.5130  -13.0080    2.2630 C.3    34  PHE34       0.1605
     11  C          8.0240  -12.8380    1.9870 C.2    34  PHE34       0.2264
     12  O          7.2020  -13.6880    2.3440 O.2    34  PHE34      -0.2867
     13  CB        10.3190  -13.0070    0.9560 C.3    34  PHE34       0.0534
     14  CG        11.8020  -12.9890    1.1660 C.ar   34  PHE34      -0.0203
     15  CD1       12.4620  -11.7970    1.4110 C.ar   34  PHE34      -0.0042
     16  CD2       12.5350  -14.1630    1.1310 C.ar   34  PHE34      -0.0042
     17  CE1       13.8260  -11.7750    1.6150 C.ar   34  PHE34      -0.0003
     18  CE2       13.9010  -14.1480    1.3340 C.ar   34  PHE34      -0.0003
     19  CZ        14.5470  -12.9520    1.5760 C.ar   34  PHE34      -0.0000
     20  N         12.2410  -10.4780    7.7640 N.3    63  ASP63      -0.1239
     21  CA        12.6420   -9.0740    7.8570 C.3    63  ASP63       0.1674
     22  C         11.4170   -8.2510    8.2380 C.2    63  ASP63       0.2266
     23  O         10.6170   -7.8710    7.3800 O.2    63  ASP63      -0.2867
     24  CB        13.2390   -8.5850    6.5430 C.3    63  ASP63       0.1410
     25  CG        14.5220   -9.3040    6.1780 C.2    63  ASP63       0.3668
     26  OD1       15.3670   -9.5200    7.0740 O.co2  63  ASP63      -0.2456
     27  OD2       14.6830   -9.6500    4.9880 O.co2  63  ASP63      -0.2456
     28  N         11.2370   -4.9220   10.0850 N.3    65  GLU65      -0.1245
     29  CA        11.7660   -3.7120   10.6990 C.3    65  GLU65       0.1567
     30  C         10.6650   -2.6950   10.9660 C.2    65  GLU65       0.2260
     31  O         10.6870   -2.0070   11.9930 O.2    65  GLU65      -0.2867
     32  CB        12.8280   -3.0760    9.7970 C.3    65  GLU65       0.0388
     33  CG        13.9730   -3.9980    9.4160 C.3    65  GLU65       0.1160
     34  CD        14.8940   -3.3830    8.3780 C.2    65  GLU65       0.3649
     35  OE1       14.8960   -2.1400    8.2350 O.co2  65  GLU65      -0.2457
     36  OE2       15.6110   -4.1450    7.6960 O.co2  65  GLU65      -0.2457
     37  N         10.5330   -1.9180    5.3040 N.3    69  VAL69      -0.1245
     38  CA        10.9500   -3.3200    5.3850 C.3    69  VAL69       0.1561
     39  C          9.9940   -4.0130    6.3530 C.2    69  VAL69       0.2260
     40  O         10.1910   -3.9960    7.5730 O.2    69  VAL69      -0.2867
     41  CB        12.4080   -3.4830    5.8280 C.3    69  VAL69       0.0252
     42  CG1       12.7990   -4.9550    5.8340 C.3    69  VAL69       0.0019
     43  CG2       13.3300   -2.7010    4.9050 C.3    69  VAL69       0.0019
     44  N          7.5930   -7.6260    5.6390 N.3    71  ARG71      -0.1245
     45  CA         7.0820   -8.5370    4.6190 C.3    71  ARG71       0.1563
     46  C          5.5860   -8.7820    4.7810 C.2    71  ARG71       0.2260
     47  O          4.8610   -8.8980    3.7860 O.2    71  ARG71      -0.2867
     48  CB         7.8420   -9.8600    4.6760 C.3    71  ARG71       0.0307
     49  CG         9.3540   -9.7080    4.7220 C.3    71  ARG71       0.0489
     50  CD         9.8690   -8.8510    3.5770 C.3    71  ARG71       0.2205
     51  NE        11.3250   -8.7950    3.5640 N.pl3  71  ARG71      -0.0865
     52  CZ        12.0380   -7.9600    2.8150 C.cat  71  ARG71       0.5346
     53  NH1       11.4320   -7.0990    2.0080 N.pl3  71  ARG71       0.1354
     54  NH2       13.3630   -7.9870    2.8760 N.pl3  71  ARG71       0.1354
     55  N         14.8420  -10.0250   11.7700 N.3   121  PHE121     -0.1241
     56  CA        16.1590   -9.4110   11.5960 C.3   121  PHE121      0.1605
     57  C         16.0140   -7.9070   11.8170 C.2   121  PHE121      0.2264
     58  O         15.9190   -7.1020   10.8860 O.2   121  PHE121     -0.2867
     59  CB        16.7350   -9.7380   10.2230 C.3   121  PHE121      0.0534
     60  CG        17.1740  -11.1700   10.0760 C.ar  121  PHE121     -0.0203
     61  CD1       18.1690  -11.6920   10.8870 C.ar  121  PHE121     -0.0042
     62  CD2       16.6030  -11.9910    9.1180 C.ar  121  PHE121     -0.0042
     63  CE1       18.5790  -13.0050   10.7520 C.ar  121  PHE121     -0.0003
     64  CE2       17.0120  -13.3070    8.9770 C.ar  121  PHE121     -0.0003
     65  CZ        18.0010  -13.8120    9.7960 C.ar  121  PHE121     -0.0000
     66  N         19.4790    3.2660    0.5740 N.3   134  VAL134     -0.1231
     67  CA        18.9230    1.9470    0.8560 C.3   134  VAL134      0.1692
     68  C         18.6080    1.8010    2.3400 C.2   134  VAL134      0.2591
     69  O         17.6730    1.0840    2.7160 O.2   134  VAL134     -0.2718
     70  CB        19.8780    0.8410    0.3630 C.3   134  VAL134      0.0266
     71  CG1       21.1380    0.7730    1.2260 C.3   134  VAL134      0.0020
     72  CG2       19.1520   -0.4940    0.3300 C.3   134  VAL134      0.0020
     73  N         19.3730    2.4650    3.2050 N.am  135  ILE135     -0.1980
     74  CA        19.0260    2.5120    4.6220 C.3   135  ILE135      0.1595
     75  C         17.9400    3.5520    4.8640 C.2   135  ILE135      0.2287
     76  O         16.8250    3.2240    5.2880 O.2   135  ILE135     -0.2864
     77  CB        20.2770    2.7900    5.4780 C.3   135  ILE135      0.0276
     78  CG1       21.3650    1.7450    5.2040 C.3   135  ILE135      0.0022
     79  CG2       19.9210    2.8040    6.9640 C.3   135  ILE135      0.0022
     80  CD1       20.9370    0.3050    5.4460 C.3   135  ILE135      0.0001
     81  N         15.0900    3.6560    7.5290 N.3   138  ARG138     -0.1245
     82  CA        15.2300    2.4630    8.3540 C.3   138  ARG138      0.1563
     83  C         16.1090    2.7110    9.5720 C.2   138  ARG138      0.2260
     84  O         16.0920    1.9030   10.5080 O.2   138  ARG138     -0.2867
     85  CB        15.8120    1.3170    7.5280 C.3   138  ARG138      0.0307
     86  CG        14.9590    0.9110    6.3400 C.3   138  ARG138      0.0489
     87  CD        15.7670    0.0990    5.3450 C.3   138  ARG138      0.2205
     88  NE        16.2660   -1.1480    5.9190 N.pl3 138  ARG138     -0.0865
     89  CZ        17.1900   -1.9170    5.3490 C.cat 138  ARG138      0.5346
     90  NH1       17.7310   -1.5670    4.1880 N.pl3 138  ARG138      0.1354
     91  NH2       17.5790   -3.0370    5.9410 N.pl3 138  ARG138      0.1354
     92  N         22.0690   -4.6860   12.8690 N.3   168  LYS168     -0.1231
     93  CA        22.6690   -4.6310   11.5430 C.3   168  LYS168      0.1693
     94  C         22.7920   -3.1870   11.0510 C.2   168  LYS168      0.2592
     95  O         22.0840   -2.3130   11.5500 O.2   168  LYS168     -0.2718
     96  CB        21.8340   -5.4590   10.5640 C.3   168  LYS168      0.0285
     97  CG        20.4110   -4.9490   10.3930 C.3   168  LYS168      0.0035
     98  CD        19.5510   -5.9140    9.5960 C.3   168  LYS168      0.0206
     99  CE        18.1640   -5.3370    9.3540 C.3   168  LYS168      0.1093
    100  NZ        17.3040   -6.2250    8.5260 N.3   168  LYS168     -0.1314
    101  N         23.6710   -2.9140   10.0830 N.am  169  HIS169     -0.1976
    102  CA        24.5640   -3.8900    9.4540 C.3   169  HIS169      0.1656
    103  C         26.0160   -3.6060    9.8410 C.2   169  HIS169      0.2291
    104  O         26.6280   -2.6580    9.3550 O.2   169  HIS169     -0.2864
    105  CB        24.3980   -3.8560    7.9340 C.3   169  HIS169      0.0771
    106  CG        22.9700   -3.9300    7.4850 C.ar  169  HIS169      0.0820
    107  ND1       22.0780   -2.8930    7.6610 N.ar  169  HIS169     -0.2267
    108  CD2       22.2760   -4.9240    6.8810 C.ar  169  HIS169      0.1154
    109  CE1       20.9000   -3.2420    7.1740 C.ar  169  HIS169      0.1986
    110  NE2       20.9920   -4.4710    6.6990 N.ar  169  HIS169     -0.2212
    111  N         26.3400    0.5190    7.8400 N.3   173  HIS173     -0.1241
    112  CA        25.9880    0.7660    6.4490 C.3   173  HIS173      0.1621
    113  C         25.5150    2.1940    6.2080 C.2   173  HIS173      0.2264
    114  O         25.1790    2.5360    5.0680 O.2   173  HIS173     -0.2867
    115  CB        24.8950   -0.2170    6.0100 C.3   173  HIS173      0.0745
    116  CG        25.0010   -0.6510    4.5810 C.ar  173  HIS173      0.0817
    117  ND1       24.9120    0.2290    3.5250 N.ar  173  HIS173     -0.2268
    118  CD2       25.1770   -1.8780    4.0330 C.ar  173  HIS173      0.1154
    119  CE1       25.0350   -0.4340    2.3890 C.ar  173  HIS173      0.1986
    120  NE2       25.1960   -1.7150    2.6690 N.ar  173  HIS173     -0.2212
    121  N         24.2330    0.9640   -2.6910 N.3   179  ASP179     -0.1225
    122  CA        23.3230   -0.0660   -2.2090 C.3   179  ASP179      0.1805
    123  C         23.9470   -1.4320   -2.4730 C.2   179  ASP179      0.2598
    124  O         24.1970   -1.7890   -3.6300 O.2   179  ASP179     -0.2718
    125  CB        21.9670    0.0630   -2.9060 C.3   179  ASP179      0.1424
    126  CG        21.0320   -1.0940   -2.6040 C.2   179  ASP179      0.3668
    127  OD1       21.3310   -1.8960   -1.6950 O.co2 179  ASP179     -0.2456
    128  OD2       19.9840   -1.1910   -3.2770 O.co2 179  ASP179     -0.2456
    129  N         24.1890   -2.1980   -1.4050 N.am  180  SER180     -0.1938
    130  CA        24.8810   -3.4720   -1.5650 C.3   180  SER180      0.2055
    131  C         24.0110   -4.5480   -2.2070 C.2   180  SER180      0.2643
    132  O         24.5100   -5.6530   -2.4510 O.2   180  SER180     -0.2714
    133  CB        25.4200   -3.9650   -0.2180 C.3   180  SER180      0.2130
    134  OG        24.4290   -3.9490    0.7900 O.3   180  SER180     -0.2179
    135  N         22.7340   -4.2700   -2.4820 N.am  181  HIS181     -0.1973
    136  CA        21.9570   -5.1690   -3.3290 C.3   181  HIS181      0.1656
    137  C         22.4860   -5.1810   -4.7580 C.2   181  HIS181      0.2291
    138  O         22.4040   -6.2100   -5.4390 O.2   181  HIS181     -0.2864
    139  CB        20.4820   -4.7590   -3.3470 C.3   181  HIS181      0.0771
    140  CG        19.7050   -5.1890   -2.1410 C.ar  181  HIS181      0.0820
    141  ND1       19.3440   -6.5000   -1.9150 N.ar  181  HIS181     -0.2267
    142  CD2       19.1870   -4.4740   -1.1140 C.ar  181  HIS181      0.1154
    143  CE1       18.6540   -6.5770   -0.7910 C.ar  181  HIS181      0.1986
    144  NE2       18.5440   -5.3620   -0.2860 N.ar  181  HIS181     -0.2212
    145  N         24.1260   -8.9890   11.9280 N.3   213  ILE213     -0.1245
    146  CA        24.3270   -9.1840   10.4950 C.3   213  ILE213      0.1561
    147  C         25.3960   -8.1920   10.0470 C.2   213  ILE213      0.2260
    148  O         25.2280   -6.9840   10.2580 O.2   213  ILE213     -0.2867
    149  CB        23.0270   -8.9850    9.6940 C.3   213  ILE213      0.0252
    150  CG1       22.1380  -10.2250    9.7820 C.3   213  ILE213      0.0019
    151  CG2       23.3290   -8.6910    8.2210 C.3   213  ILE213      0.0019
    152  CD1       20.7250  -10.0110    9.2630 C.3   213  ILE213      0.0001
    153  N         24.9040  -11.2830    5.7410 N.3   251  ASP251     -0.1225
    154  CA        23.8740  -10.7420    4.8780 C.3   251  ASP251      0.1805
    155  C         23.7220  -11.6540    3.6600 C.2   251  ASP251      0.2597
    156  O         24.5530  -12.5310    3.3990 O.2   251  ASP251     -0.2718
    157  CB        24.2050   -9.3070    4.4630 C.3   251  ASP251      0.1424
    158  CG        22.9670   -8.5130    4.0680 C.2   251  ASP251      0.3668
    159  OD1       21.8870   -9.1240    3.9330 O.co2 251  ASP251     -0.2456
    160  OD2       23.0660   -7.2780    3.8900 O.co2 251  ASP251     -0.2456
    161  N         22.6360  -11.4490    2.9220 N.am  252  ASP252     -0.1974
    162  CA        22.2780  -12.3420    1.8260 C.3   252  ASP252      0.1709
    163  C         23.4220  -12.4590    0.8230 C.2   252  ASP252      0.2293
    164  O         23.8450  -11.4640    0.2250 O.2   252  ASP252     -0.2864
    165  CB        21.0060  -11.8270    1.1490 C.3   252  ASP252      0.1436
    166  CG        20.5970  -12.6590   -0.0520 C.2   252  ASP252      0.3671
    167  OD1       21.0700  -13.8070   -0.1840 O.co2 252  ASP252     -0.2456
    168  OD2       19.7850  -12.1620   -0.8610 O.co2 252  ASP252     -0.2456
    169  N         23.2110  -11.1340   -2.8890 N.3   255  MET255     -0.1245
    170  CA        23.3570   -9.7270   -3.2270 C.3   255  MET255      0.1570
    171  C         24.6300   -9.5000   -4.0370 C.2   255  MET255      0.2261
    172  O         25.6440  -10.1800   -3.8520 O.2   255  MET255     -0.2867
    173  CB        23.3760   -8.8860   -1.9480 C.3   255  MET255      0.0387
    174  CG        22.1340   -9.0780   -1.0840 C.3   255  MET255      0.0595
    175  SD        22.2930   -8.4030    0.5830 S.3   255  MET255     -0.1393
    176  CE        22.3650   -6.6490    0.2220 C.3   255  MET255      0.0692
    177  N         23.1130  -16.5040    4.8840 N.3   280  LEU280     -0.1245
    178  CA        21.8370  -16.3680    4.1980 C.3   280  LEU280      0.1561
    179  C         22.0370  -16.5290    2.6970 C.2   280  LEU280      0.2260
    180  O         22.9430  -15.9220    2.1160 O.2   280  LEU280     -0.2867
    181  CB        21.2050  -15.0070    4.4980 C.3   280  LEU280      0.0270
    182  CG        20.3290  -14.9030    5.7480 C.3   280  LEU280      0.0019
    183  CD1       21.0730  -15.3630    6.9940 C.3   280  LEU280      0.0001
    184  CD2       19.8370  -13.4710    5.9170 C.3   280  LEU280      0.0001
    185  N         19.3170  -16.1900   -0.2500 N.3   282  CYS282     -0.1235
    186  CA        17.9220  -15.8490   -0.4890 C.3   282  CYS282      0.1677
    187  C         17.5980  -15.8530   -1.9790 C.2   282  CYS282      0.2270
    188  O         18.4580  -15.5870   -2.8240 O.2   282  CYS282     -0.2867
    189  CB        17.5880  -14.4700    0.0910 C.3   282  CYS282      0.0956
    190  SG        18.0650  -14.2250    1.8250 S.3   282  CYS282     -0.0801
@<TRIPOS>BOND
     1   138   137    2
     2   137   136    1
     3   171   172    2
     4   171   170    1
     5   124   123    2
     6   139   136    1
     7   139   140    1
     8   136   135    1
     9   128   126   ar
    10   170   169    1
    11   170   173    1
    12   125   126    1
    13   125   122    1
    14   188   187    2
    15   121   122    1
    16   126   127   ar
    17   135   131   am
    18   123   122    1
    19   123   129   am
    20   132   131    2
    21   131   130    1
    22   140   141   ar
    23   140   142   ar
    24   187   186    1
    25   173   174    1
    26   141   143   ar
    27   130   129    1
    28   130   133    1
    29   142   144   ar
    30   174   175    1
    31   168   166   ar
    32   143   144   ar
    33   186   185    1
    34   186   189    1
    35   133   134    1
    36   167   166   ar
    37   166   165    1
    38   189   190    1
    39   176   175    1
    40   164   163    2
    41    72    70    1
    42    70    67    1
    43    70    71    1
    44    66    67    1
    45   163   162    1
    46    67    68    1
    47    13    14    1
    48    13    10    1
    49    16    14   ar
    50    16    18   ar
    51   165   162    1
    52    14    15   ar
    53    18    19   ar
    54    15    17   ar
    55    19    17   ar
    56   162   161    1
    57    11    10    1
    58    11    12    2
    59    53    52    1
    60   180   179    2
    61    10     9    1
    62    68    69    2
    63    68    73   am
    64   119   120   ar
    65   119   117   ar
    66   120   118   ar
    67   179   178    1
    68    52    54    1
    69    52    51    2
    70   161   155   am
    71    73    74    1
    72   156   155    2
    73   117   116   ar
    74    51    50    1
    75    50    49    1
    76   155   154    1
    77    47    46    2
    78   160   158   ar
    79   159   158   ar
    80     4     3    2
    81   118   116   ar
    82   158   157    1
    83    90    89    1
    84   178   181    1
    85   178   177    1
    86     7     5    1
    87   157   154    1
    88   181   182    1
    89   116   115    1
    90    45    48    1
    91    45    46    1
    92    45    44    1
    93    74    75    1
    94    74    77    1
    95    48    49    1
    96    75    76    2
    97   154   153    1
    98    43    41    1
    99    27    25   ar
   100   114   113    2
   101     3     2    1
   102    78    80    1
   103    78    77    1
   104    37    38    1
   105    87    88    1
   106    87    86    1
   107    89    88    2
   108    89    91    1
   109    38    41    1
   110    38    39    1
   111     8     6    1
   112    77    79    1
   113     5     6    1
   114     5     2    1
   115   182   184    1
   116   182   183    1
   117    41    42    1
   118     1     2    1
   119   115   112    1
   120    25    24    1
   121    25    26   ar
   122   113   112    1
   123    86    85    1
   124    39    40    2
   125   112   111    1
   126    24    21    1
   127   110   108   ar
   128   110   109   ar
   129   108   106   ar
   130   109   107   ar
   131    23    22    2
   132   106   107   ar
   133   106   105    1
   134    85    82    1
   135    81    82    1
   136    36    34   ar
   137    20    21    1
   138    21    22    1
   139   105   102    1
   140   151   149    1
   141    35    34   ar
   142    82    83    1
   143    34    33    1
   144   100    99    1
   145    64    62   ar
   146    64    65   ar
   147    62    60   ar
   148   152   150    1
   149    99    98    1
   150   104   103    2
   151    33    32    1
   152   102   103    1
   153   102   101    1
   154    83    84    2
   155    98    97    1
   156   149   150    1
   157   149   146    1
   158    65    63   ar
   159    32    29    1
   160   147   148    2
   161   147   146    1
   162    60    59    1
   163    60    61   ar
   164   101    94   am
   165    28    29    1
   166    59    56    1
   167    97    96    1
   168   146   145    1
   169    96    93    1
   170    29    30    1
   171    63    61   ar
   172    58    57    2
   173    30    31    2
   174    94    93    1
   175    94    95    2
   176    93    92    1
   177    56    55    1
   178    56    57    1
