@<TRIPOS>MOLECULE
tmp/5utuG01.pdb
 220 209 0 0 0
SMALL
GASTEIGER

@<TRIPOS>ATOM
      1  N         20.3040   14.5530 -105.4610 N.3    52  LEU52      -0.1231
      2  CA        20.7230   13.1490 -105.4200 C.3    52  LEU52       0.1693
      3  C         19.5170   12.2080 -105.3500 C.2    52  LEU52       0.2592
      4  O         18.6430   12.3890 -104.5090 O.2    52  LEU52      -0.2718
      5  CB        21.6310   12.9410 -104.1960 C.3    52  LEU52       0.0284
      6  CG        22.4970   11.6890 -104.0700 C.3    52  LEU52       0.0019
      7  CD1       23.4760   11.8710 -102.9210 C.3    52  LEU52       0.0001
      8  CD2       21.6850   10.4460 -103.8390 C.3    52  LEU52       0.0001
      9  N         19.4970   11.2080 -106.2420 N.am   53  HIS53      -0.1976
     10  CA        18.4380   10.1820 -106.3230 C.3    53  HIS53       0.1656
     11  C         17.7210   10.0190 -105.0050 C.2    53  HIS53       0.2291
     12  O         18.2950    9.4910 -104.0650 O.2    53  HIS53      -0.2864
     13  CB        19.0320    8.8190 -106.7010 C.3    53  HIS53       0.0771
     14  CG        19.9450    8.8490 -107.8770 C.ar   53  HIS53       0.0820
     15  ND1       19.4940    8.9710 -109.1700 N.ar   53  HIS53      -0.2267
     16  CD2       21.2870    8.7400 -107.9540 C.ar   53  HIS53       0.1154
     17  CE1       20.5260    8.9600 -109.9970 C.ar   53  HIS53       0.1986
     18  NE2       21.6300    8.8260 -109.2860 N.ar   53  HIS53      -0.2212
     19  N         16.0240    8.1070 -102.9680 N.3    55  THR55      -0.1218
     20  CA        15.6860    6.7320 -102.6620 C.3    55  THR55       0.1862
     21  C         15.5710    6.5820 -101.1490 C.2    55  THR55       0.2287
     22  O         15.8270    7.5340 -100.4090 O.2    55  THR55      -0.2866
     23  CB        16.8350    5.8010 -103.1130 C.3    55  THR55       0.1770
     24  OG1       18.0420    6.1820 -102.4370 O.3    55  THR55      -0.2211
     25  CG2       17.0640    5.8930 -104.6080 C.3    55  THR55       0.0375
     26  N         17.5530    4.8710  -99.3330 N.3    57  GLU57      -0.1231
     27  CA        18.9130    5.0360  -98.8310 C.3    57  GLU57       0.1699
     28  C         19.2370    6.5180  -98.6610 C.2    57  GLU57       0.2592
     29  O         19.8100    6.9160  -97.6470 O.2    57  GLU57      -0.2718
     30  CB        19.9350    4.3750  -99.7640 C.3    57  GLU57       0.0402
     31  CG        19.8190    2.8560  -99.8660 C.3    57  GLU57       0.1161
     32  CD        18.6590    2.3530 -100.7150 C.2    57  GLU57       0.3649
     33  OE1       18.0680    3.1410 -101.4960 O.co2  57  GLU57      -0.2457
     34  OE2       18.3420    1.1490 -100.6100 O.co2  57  GLU57      -0.2457
     35  N         18.8530    7.3270  -99.6490 N.am   58  THR58      -0.1953
     36  CA        19.0770    8.7670  -99.5810 C.3    58  THR58       0.1897
     37  C         18.2660    9.3810  -98.4300 C.2    58  THR58       0.2313
     38  O         18.7190   10.3280  -97.8020 O.2    58  THR58      -0.2863
     39  CB        18.7420    9.4440 -100.9210 C.3    58  THR58       0.1794
     40  OG1       19.6560    8.9570 -101.9210 O.3    58  THR58      -0.2208
     41  CG2       18.8420   10.9670 -100.8290 C.3    58  THR58       0.0378
     42  N         18.5080   13.8240 -108.6670 N.3    77  CYS77      -0.1221
     43  CA        19.4760   14.1430 -109.7240 C.3    77  CYS77       0.1808
     44  C         19.1580   13.3700 -111.0130 C.2    77  CYS77       0.2601
     45  O         19.9470   13.3610 -111.9490 O.2    77  CYS77      -0.2717
     46  CB        20.8970   13.8070 -109.2660 C.3    77  CYS77       0.0970
     47  SG        21.2130   12.0330 -109.0250 S.3    77  CYS77      -0.0800
     48  N         17.9910   12.7240 -111.0520 N.am   78  ASN78      -0.1974
     49  CA        17.5860   11.9430 -112.2050 C.3    78  ASN78       0.1688
     50  C         16.0560   11.8620 -112.2410 C.2    78  ASN78       0.2292
     51  O         15.4080   11.5750 -111.2370 O.2    78  ASN78      -0.2864
     52  CB        18.2580   10.5590 -112.1170 C.3    78  ASN78       0.1181
     53  CG        17.9250    9.6540 -113.2890 C.2    78  ASN78       0.2629
     54  OD1       16.7710    9.3160 -113.5280 O.2    78  ASN78      -0.2716
     55  ND2       18.9510    9.2000 -113.9670 N.am   78  ASN78      -0.0877
     56  N         25.1740   15.0530 -107.0400 N.3   137  ASP137     -0.1225
     57  CA        25.3770   13.7410 -107.6200 C.3   137  ASP137      0.1805
     58  C         25.2490   13.8480 -109.1370 C.2   137  ASP137      0.2598
     59  O         24.1810   13.6260 -109.6970 O.2   137  ASP137     -0.2718
     60  CB        24.3220   12.7850 -107.0510 C.3   137  ASP137      0.1424
     61  CG        24.5190   11.3330 -107.4990 C.2   137  ASP137      0.3668
     62  OD1       25.4040   10.7030 -106.9410 O.co2 137  ASP137     -0.2456
     63  OD2       23.7810   10.7660 -108.3560 O.co2 137  ASP137     -0.2456
     64  N         26.3530   14.1710 -109.8000 N.am  138  GLY138     -0.1957
     65  CA        26.3720   14.3590 -111.2490 C.3   138  GLY138      0.1869
     66  C         26.7620   15.7770 -111.6460 C.2   138  GLY138      0.2309
     67  O         27.0860   16.0550 -112.8200 O.2   138  GLY138     -0.2863
     68  N         24.7830   18.6460 -111.4700 N.3   140  ASP140     -0.1239
     69  CA        23.7290   19.5580 -111.9480 C.3   140  ASP140      0.1674
     70  C         23.4600   20.7640 -111.0320 C.2   140  ASP140      0.2266
     71  O         23.1740   21.8560 -111.5190 O.2   140  ASP140     -0.2867
     72  CB        22.4200   18.8200 -112.2480 C.3   140  ASP140      0.1410
     73  CG        22.4580   18.0290 -113.5570 C.2   140  ASP140      0.3668
     74  OD1       23.3860   18.2380 -114.3920 O.co2 140  ASP140     -0.2456
     75  OD2       21.5360   17.2060 -113.7550 O.co2 140  ASP140     -0.2456
     76  N         29.3500   13.3460 -105.3680 N.3   211  GLU211     -0.1231
     77  CA        29.2380   11.8930 -105.2830 C.3   211  GLU211      0.1699
     78  C         29.8510   11.0720 -106.4250 C.2   211  GLU211      0.2592
     79  O         30.3310    9.9770 -106.1920 O.2   211  GLU211     -0.2718
     80  CB        27.7370   11.5670 -105.2480 C.3   211  GLU211      0.0402
     81  CG        27.3380   10.1070 -105.0720 C.3   211  GLU211      0.1161
     82  CD        27.5300    9.5980 -103.6620 C.2   211  GLU211      0.3649
     83  OE1       27.2600    8.3980 -103.4570 O.co2 211  GLU211     -0.2457
     84  OE2       27.9160   10.3940 -102.7660 O.co2 211  GLU211     -0.2457
     85  N         29.8520   11.5870 -107.6510 N.am  212  THR212     -0.1953
     86  CA        30.2480   10.7580 -108.7960 C.3   212  THR212      0.1897
     87  C         31.4410   11.1520 -109.6370 C.2   212  THR212      0.2313
     88  O         31.8710   12.2970 -109.6260 O.2   212  THR212     -0.2863
     89  CB        29.0860   10.7850 -109.8020 C.3   212  THR212      0.1794
     90  OG1       29.0710   12.0490 -110.5060 O.3   212  THR212     -0.2208
     91  CG2       27.7870   10.6550 -109.1300 C.3   212  THR212      0.0378
     92  N         31.6400   11.4230 -112.9100 N.3   214  THR214     -0.1218
     93  CA        31.2510   12.4130 -113.9040 C.3   214  THR214      0.1862
     94  C         31.2260   13.8230 -113.3110 C.2   214  THR214      0.2287
     95  O         31.7270   14.7510 -113.9260 O.2   214  THR214     -0.2866
     96  CB        29.8940   12.0410 -114.5400 C.3   214  THR214      0.1770
     97  OG1       30.0950   10.9470 -115.4440 O.3   214  THR214     -0.2211
     98  CG2       29.3080   13.2060 -115.3240 C.3   214  THR214      0.0375
     99  N         34.1470    4.3780 -101.3390 N.3   241  LYS241     -0.1245
    100  CA        33.0710    4.7460 -102.2480 C.3   241  LYS241      0.1561
    101  C         33.3750    4.1160 -103.6280 C.2   241  LYS241      0.2260
    102  O         32.7240    3.1530 -104.0070 O.2   241  LYS241     -0.2867
    103  CB        32.9100    6.2580 -102.3130 C.3   241  LYS241      0.0271
    104  CG        31.6220    6.7420 -102.9540 C.3   241  LYS241      0.0035
    105  CD        31.5030    6.4140 -104.4340 C.3   241  LYS241      0.0206
    106  CE        30.2490    7.0190 -105.0340 C.3   241  LYS241      0.1093
    107  NZ        30.2130    6.8520 -106.5100 N.3   241  LYS241     -0.1314
    108  N         30.7140    1.0430 -103.8550 N.3   245  ASP245     -0.1225
    109  CA        29.5150    1.5300 -104.5210 C.3   245  ASP245      0.1805
    110  C         29.5880    1.2430 -106.0280 C.2   245  ASP245      0.2597
    111  O         28.7690    0.5020 -106.5670 O.2   245  ASP245     -0.2718
    112  CB        29.3990    3.0450 -104.2390 C.3   245  ASP245      0.1424
    113  CG        28.2500    3.7310 -104.9530 C.2   245  ASP245      0.3668
    114  OD1       28.0160    3.4810 -106.1600 O.co2 245  ASP245     -0.2456
    115  OD2       27.6180    4.5950 -104.3020 O.co2 245  ASP245     -0.2456
    116  N         30.6000    1.7930 -106.6830 N.am  246  ASN246     -0.1974
    117  CA        30.7330    1.6390 -108.1270 C.3   246  ASN246      0.1688
    118  C         30.8210    0.1910 -108.5940 C.2   246  ASN246      0.2292
    119  O         30.1940   -0.1830 -109.5920 O.2   246  ASN246     -0.2864
    120  CB        31.9400    2.4210 -108.6530 C.3   246  ASN246      0.1181
    121  CG        31.8570    3.8990 -108.3080 C.2   246  ASN246      0.2629
    122  OD1       31.3540    4.2690 -107.2520 O.2   246  ASN246     -0.2716
    123  ND2       32.3290    4.7500 -109.2090 N.am  246  ASN246     -0.0877
    124  N         24.2560    2.3170 -117.6860 N.3   354  ILE354     -0.1231
    125  CA        24.4430    2.3340 -116.2390 C.3   354  ILE354      0.1692
    126  C         25.4940    3.3870 -115.9020 C.2   354  ILE354      0.2593
    127  O         25.8990    3.5370 -114.7550 O.2   354  ILE354     -0.2718
    128  CB        24.8140    0.9310 -115.6890 C.3   354  ILE354      0.0266
    129  CG1       24.6300    0.8980 -114.1710 C.3   354  ILE354      0.0019
    130  CG2       26.2380    0.5150 -116.0880 C.3   354  ILE354      0.0020
    131  CD1       24.6140   -0.4750 -113.5890 C.3   354  ILE354      0.0001
    132  N         25.9020    4.1320 -116.9260 N.am  355  GLY355     -0.1942
    133  CA        26.8900    5.1740 -116.7750 C.3   355  GLY355      0.2014
    134  C         26.3250    6.4780 -116.2650 C.2   355  GLY355      0.2639
    135  O         26.1310    6.6220 -115.0880 O.2   355  GLY355     -0.2714
    136  N         26.0460    7.4200 -117.1570 N.am  356  HIS356     -0.1959
    137  CA        25.5890    8.7420 -116.7410 C.3   356  HIS356      0.1787
    138  C         24.6600    9.3910 -117.7670 C.2   356  HIS356      0.2620
    139  O         24.6680    9.0490 -118.9550 O.2   356  HIS356     -0.2715
    140  CB        26.8120    9.6390 -116.5520 C.3   356  HIS356      0.0785
    141  CG        27.4250   10.0860 -117.8440 C.ar  356  HIS356      0.0821
    142  ND1       27.8090    9.2010 -118.8250 N.ar  356  HIS356     -0.2267
    143  CD2       27.7170   11.3200 -118.3170 C.ar  356  HIS356      0.1154
    144  CE1       28.3000    9.8740 -119.8520 C.ar  356  HIS356      0.1986
    145  NE2       28.2600   11.1610 -119.5670 N.ar  356  HIS356     -0.2212
    146  N         23.8920   10.3560 -117.2880 N.am  357  PHE357     -0.1974
    147  CA        22.9330   11.1110 -118.0990 C.3   357  PHE357      0.1639
    148  C         22.2780   10.2030 -119.1460 C.2   357  PHE357      0.2290
    149  O         21.8120    9.1290 -118.7930 O.2   357  PHE357     -0.2864
    150  CB        23.5930   12.3650 -118.7200 C.3   357  PHE357      0.0560
    151  CG        24.3360   13.2280 -117.7280 C.ar  357  PHE357     -0.0200
    152  CD1       23.7520   13.5810 -116.4880 C.ar  357  PHE357     -0.0042
    153  CD2       25.5900   13.7490 -118.0350 C.ar  357  PHE357     -0.0042
    154  CE1       24.4330   14.3740 -115.5840 C.ar  357  PHE357     -0.0003
    155  CE2       26.2650   14.5590 -117.1330 C.ar  357  PHE357     -0.0003
    156  CZ        25.6730   14.8580 -115.9080 C.ar  357  PHE357     -0.0000
    157  N         20.0970    5.9650 -116.3210 N.3   401  LEU401     -0.1245
    158  CA        20.5180    4.9140 -115.3770 C.3   401  LEU401      0.1561
    159  C         19.5280    3.7720 -115.2350 C.2   401  LEU401      0.2260
    160  O         18.4610    3.9460 -114.6370 O.2   401  LEU401     -0.2867
    161  CB        20.7810    5.4790 -113.9950 C.3   401  LEU401      0.0270
    162  CG        21.8580    6.5300 -113.8820 C.3   401  LEU401      0.0019
    163  CD1       22.0780    6.8450 -112.4040 C.3   401  LEU401      0.0001
    164  CD2       23.1380    6.0590 -114.5240 C.3   401  LEU401      0.0001
    165  N         19.8060    0.9830 -113.4620 N.3   403  ASN403     -0.1225
    166  CA        19.6880    0.4610 -112.0930 C.3   403  ASN403      0.1785
    167  C         18.7740    1.2870 -111.2040 C.2   403  ASN403      0.2597
    168  O         18.1140    0.7510 -110.3200 O.2   403  ASN403     -0.2718
    169  CB        21.0580    0.2580 -111.4140 C.3   403  ASN403      0.1169
    170  CG        21.8530    1.5340 -111.2720 C.2   403  ASN403      0.2627
    171  OD1       21.7700    2.4290 -112.1130 O.2   403  ASN403     -0.2716
    172  ND2       22.6650    1.6120 -110.2180 N.am  403  ASN403     -0.0877
    173  N         18.7330    2.5950 -111.4550 N.am  404  LEU404     -0.1980
    174  CA        17.8740    3.5100 -110.6910 C.3   404  LEU404      0.1596
    175  C         16.5540    3.8080 -111.3770 C.2   404  LEU404      0.2287
    176  O         15.6110    4.2170 -110.7240 O.2   404  LEU404     -0.2864
    177  CB        18.6320    4.8050 -110.4100 C.3   404  LEU404      0.0297
    178  CG        19.6750    4.6170 -109.2960 C.3   404  LEU404      0.0022
    179  CD1       20.8740    5.5180 -109.4580 C.3   404  LEU404      0.0001
    180  CD2       18.9940    4.8130 -107.9510 C.3   404  LEU404      0.0001
    181  N         15.5490   -0.0160 -108.0260 N.3   408  THR408     -0.1203
    182  CA        15.7060    0.8930 -106.8900 C.3   408  THR408      0.1994
    183  C         17.1420    1.2840 -106.5490 C.2   408  THR408      0.2618
    184  O         17.4010    1.7680 -105.4380 O.2   408  THR408     -0.2717
    185  CB        15.0780    0.2360 -105.6380 C.3   408  THR408      0.1784
    186  OG1       15.7450   -0.9980 -105.3480 O.3   408  THR408     -0.2211
    187  CG2       13.6120   -0.0890 -105.8800 C.3   408  THR408      0.0376
    188  N         18.0740    1.0830 -107.4850 N.am  409  GLY409     -0.1942
    189  CA        19.4660    1.4510 -107.2530 C.3   409  GLY409      0.2014
    190  C         20.2110    0.5490 -106.2980 C.2   409  GLY409      0.2638
    191  O         19.7280   -0.5180 -105.9520 O.2   409  GLY409     -0.2714
    192  N         21.3900    0.9830 -105.8620 N.am  410  HIS410     -0.1973
    193  CA        22.1990    0.1640 -104.9580 C.3   410  HIS410      0.1656
    194  C         21.5010   -0.0790 -103.6370 C.2   410  HIS410      0.2291
    195  O         20.6890    0.7330 -103.1940 O.2   410  HIS410     -0.2864
    196  CB        23.5570    0.7900 -104.6200 C.3   410  HIS410      0.0771
    197  CG        24.4060    1.1190 -105.8040 C.ar  410  HIS410      0.0820
    198  ND1       24.2440    0.5220 -107.0360 N.ar  410  HIS410     -0.2267
    199  CD2       25.5110    1.8860 -105.9010 C.ar  410  HIS410      0.1154
    200  CE1       25.1690    0.9760 -107.8650 C.ar  410  HIS410      0.1986
    201  NE2       25.9570    1.7980 -107.1980 N.ar  410  HIS410     -0.2212
    202  N         25.4670    1.9320  -99.9630 N.3   415  MET415     -0.1245
    203  CA        25.1040    3.3450  -99.9620 C.3   415  MET415      0.1570
    204  C         25.4430    3.9830  -98.6150 C.2   415  MET415      0.2261
    205  O         25.7220    5.1770  -98.5520 O.2   415  MET415     -0.2867
    206  CB        23.6400    3.5710 -100.3390 C.3   415  MET415      0.0387
    207  CG        23.3120    3.1540 -101.7570 C.3   415  MET415      0.0595
    208  SD        24.4640    3.7880 -103.0020 S.3   415  MET415     -0.1393
    209  CE        24.3760    5.5200 -102.6550 C.3   415  MET415      0.0692
    210  N         27.4430    7.2770  -98.3340 N.3   419  PHE419     -0.1241
    211  CA        26.8100    8.3700  -97.6120 C.3   419  PHE419      0.1605
    212  C         27.4840    8.7410  -96.3010 C.2   419  PHE419      0.2264
    213  O         27.3380    9.8680  -95.8420 O.2   419  PHE419     -0.2867
    214  CB        25.3030    8.1360  -97.4300 C.3   419  PHE419      0.0534
    215  CG        24.5250    8.0550  -98.7230 C.ar  419  PHE419     -0.0203
    216  CD1       24.9790    8.6620  -99.8940 C.ar  419  PHE419     -0.0042
    217  CD2       23.2710    7.4750  -98.7310 C.ar  419  PHE419     -0.0042
    218  CE1       24.2350    8.6090 -101.0690 C.ar  419  PHE419     -0.0003
    219  CE2       22.5120    7.4440  -99.8980 C.ar  419  PHE419     -0.0003
    220  CZ        23.0010    8.0180 -101.0680 C.ar  419  PHE419     -0.0000
@<TRIPOS>BOND
     1   144   145   ar
     2   144   142   ar
     3   145   143   ar
     4   148   149    2
     5   148   147    1
     6   139   138    2
     7   142   141   ar
     8   150   147    1
     9   150   151    1
    10   143   141   ar
    11   147   146    1
    12   153   151   ar
    13   153   155   ar
    14   141   140    1
    15   138   146   am
    16   138   137    1
    17   151   152   ar
    18   124   125    1
    19   136   137    1
    20   136   134   am
    21   155   156   ar
    22   132   133    1
    23   132   126   am
    24   133   134    1
    25   137   140    1
    26   152   154   ar
    27   157   158    1
    28   134   135    2
    29   125   126    1
    30   125   128    1
    31   130   128    1
    32   156   154   ar
    33   126   127    2
    34   128   129    1
    35    97    96    1
    36   158   159    1
    37   158   161    1
    38    98    96    1
    39   159   160    2
    40    96    93    1
    41   164   162    1
    42    74    73   ar
    43   129   131    1
    44   161   162    1
    45    55    53   am
    46    95    94    2
    47    93    94    1
    48    93    92    1
    49   162   163    1
    50    75    73   ar
    51    73    72    1
    52    54    53    2
    53   165   166    1
    54    53    52    1
    55    67    66    2
    56    72    69    1
    57    50    49    1
    58    50    51    2
    59    49    52    1
    60    49    48    1
    61   171   170    2
    62   166   169    1
    63   166   167    1
    64    45    44    2
    65    69    68    1
    66    69    70    1
    67    66    65    1
    68    71    70    2
    69   173   167   am
    70   173   174    1
    71   169   170    1
    72   175   176    2
    73   175   174    1
    74   170   172   am
    75    65    64    1
    76   167   168    2
    77    48    44   am
    78    44    43    1
    79   174   177    1
    80    90    89    1
    81   177   178    1
    82    17    18   ar
    83    17    15   ar
    84    89    91    1
    85    89    86    1
    86    64    58   am
    87    43    46    1
    88    43    42    1
    89    59    58    2
    90    87    88    2
    91    87    86    1
    92   119   118    2
    93   179   178    1
    94   178   180    1
    95    18    16   ar
    96    46    47    1
    97   123   121   am
    98    15    14   ar
    99    58    57    1
   100    86    85    1
   101   120   121    1
   102   120   117    1
   103   118   117    1
   104    63    61   ar
   105   121   122    2
   106   117   116    1
   107   181   182    1
   108    16    14   ar
   109    14    13    1
   110   200   201   ar
   111   200   198   ar
   112    85    78   am
   113    57    60    1
   114    57    56    1
   115    61    60    1
   116    61    62   ar
   117   188   189    1
   118   188   183   am
   119   189   190    1
   120   201   199   ar
   121   198   197   ar
   122   182   183    1
   123   182   185    1
   124    13    10    1
   125   116   110   am
   126   111   110    2
   127   183   184    2
   128   107   106    1
   129    78    79    2
   130    78    77    1
   131    10     9    1
   132    10    11    1
   133   190   191    2
   134   190   192   am
   135     9     3   am
   136   114   113   ar
   137   110   109    1
   138   199   197   ar
   139   187   185    1
   140   192   193    1
   141   197   196    1
   142   185   186    1
   143     1     2    1
   144     2     3    1
   145     2     5    1
   146    76    77    1
   147     3     4    2
   148    77    80    1
   149    80    81    1
   150    81    82    1
   151   106   105    1
   152    11    12    2
   153   193   196    1
   154   193   194    1
   155   113   115   ar
   156   113   112    1
   157    25    23    1
   158   109   112    1
   159   109   108    1
   160   105   104    1
   161     5     6    1
   162     6     8    1
   163     6     7    1
   164   102   101    2
   165    82    83   ar
   166    82    84   ar
   167   194   195    2
   168   101   100    1
   169    23    20    1
   170    23    24    1
   171   208   209    1
   172   208   207    1
   173    19    20    1
   174   104   103    1
   175    20    21    1
   176   103   100    1
   177   100    99    1
   178    40    39    1
   179   207   206    1
   180    33    32   ar
   181    21    22    2
   182   218   220   ar
   183   218   216   ar
   184   220   219   ar
   185    39    41    1
   186    39    36    1
   187    32    34   ar
   188    32    31    1
   189   206   203    1
   190   202   203    1
   191   203   204    1
   192   219   217   ar
   193   216   215   ar
   194    31    30    1
   195    30    27    1
   196    35    36    1
   197    35    28   am
   198    36    37    1
   199    26    27    1
   200    27    28    1
   201   217   215   ar
   202   215   214    1
   203    28    29    2
   204   204   205    2
   205    37    38    2
   206   210   211    1
   207   211   214    1
   208   211   212    1
   209   212   213    2
