@<TRIPOS>MOLECULE
tmp/5uu1A00.pdb
 176 166 0 0 0
SMALL
GASTEIGER

@<TRIPOS>ATOM
      1  N         -5.1520  -22.7370   -7.0770 N.3    22  ILE22      -0.1231
      2  CA        -5.7960  -22.3240   -8.3210 C.3    22  ILE22       0.1692
      3  C         -5.2340  -23.0650   -9.5560 C.2    22  ILE22       0.2593
      4  O         -5.7390  -22.8970  -10.6710 O.2    22  ILE22      -0.2718
      5  CB        -5.7780  -20.7750   -8.4640 C.3    22  ILE22       0.0266
      6  CG1       -4.3500  -20.2000   -8.2930 C.3    22  ILE22       0.0019
      7  CG2       -6.7830  -20.1380   -7.4800 C.3    22  ILE22       0.0020
      8  CD1       -4.1650  -18.8440   -8.9170 C.3    22  ILE22       0.0001
      9  N         -4.2580  -23.9300   -9.3360 N.am   23  GLY23      -0.1942
     10  CA        -3.7310  -24.7290  -10.4220 C.3    23  GLY23       0.2014
     11  C         -2.2930  -25.1130  -10.2220 C.2    23  GLY23       0.2640
     12  O         -1.7600  -25.0300   -9.1130 O.2    23  GLY23      -0.2714
     13  N         -1.6540  -25.4690  -11.3230 N.am   24  SER24      -0.1935
     14  CA        -0.2430  -25.7880  -11.3520 C.3    24  SER24       0.2055
     15  C          0.3860  -24.8580  -12.3840 C.2    24  SER24       0.2644
     16  O         -0.1960  -24.6040  -13.4230 O.2    24  SER24      -0.2714
     17  CB        -0.0150  -27.2430  -11.7330 C.3    24  SER24       0.2130
     18  OG        -0.4020  -27.4740  -13.0650 O.3    24  SER24      -0.2179
     19  N          1.5290  -24.2810  -12.0620 N.am   25  GLY25      -0.1939
     20  CA         2.2230  -23.4280  -13.0000 C.3    25  GLY25       0.2014
     21  C          3.6480  -23.9040  -13.0920 C.2    25  GLY25       0.2639
     22  O          4.3320  -23.9730  -12.0830 O.2    25  GLY25      -0.2714
     23  N          4.1080  -24.2040  -14.2960 N.am   26  GLY26      -0.1954
     24  CA         5.4630  -24.6870  -14.4560 C.3    26  GLY26       0.1869
     25  C          5.6650  -25.9380  -13.6280 C.2    26  GLY26       0.2309
     26  O          4.9330  -26.9070  -13.7420 O.2    26  GLY26      -0.2863
     27  N          0.1620  -23.7010   -7.4990 N.3    30  ILE30      -0.1245
     28  CA        -0.1380  -22.2760   -7.3290 C.3    30  ILE30       0.1561
     29  C         -1.3250  -22.1120   -6.3770 C.2    30  ILE30       0.2260
     30  O         -2.4010  -22.6620   -6.6370 O.2    30  ILE30      -0.2867
     31  CB        -0.4330  -21.5830   -8.7040 C.3    30  ILE30       0.0252
     32  CG1        0.5860  -21.9630   -9.8270 C.3    30  ILE30       0.0019
     33  CG2       -0.5470  -20.0370   -8.5320 C.3    30  ILE30       0.0019
     34  CD1        2.0710  -21.6650   -9.5070 C.3    30  ILE30       0.0001
     35  N          0.2430  -14.7860   -4.9240 N.3    46  VAL46      -0.1245
     36  CA         0.1690  -16.2430   -5.0180 C.3    46  VAL46       0.1561
     37  C          1.4240  -16.8250   -4.3820 C.2    46  VAL46       0.2260
     38  O          2.4580  -16.1570   -4.3180 O.2    46  VAL46      -0.2867
     39  CB        -0.0510  -16.8050   -6.4610 C.3    46  VAL46       0.0252
     40  CG1       -1.4070  -16.3710   -7.0350 C.3    46  VAL46       0.0019
     41  CG2        1.1040  -16.4500   -7.4020 C.3    46  VAL46       0.0019
     42  N          3.8740  -20.0700   -5.1210 N.3    48  LYS48      -0.1245
     43  CA         4.3030  -21.0760   -6.0570 C.3    48  LYS48       0.1561
     44  C          5.1540  -22.0460   -5.2230 C.2    48  LYS48       0.2260
     45  O          6.1940  -21.6570   -4.7190 O.2    48  LYS48      -0.2867
     46  CB         5.1460  -20.4080   -7.1680 C.3    48  LYS48       0.0271
     47  CG         5.6010  -21.3390   -8.2720 C.3    48  LYS48       0.0035
     48  CD         6.5100  -20.5820   -9.2440 C.3    48  LYS48       0.0206
     49  CE         6.5370  -21.2550  -10.5950 C.3    48  LYS48       0.1093
     50  NZ         6.8990  -20.2870  -11.6690 N.3    48  LYS48      -0.1314
     51  N         14.6440  -20.6100  -11.0690 N.3    60  GLU60      -0.1245
     52  CA        13.7430  -19.4900  -11.2090 C.3    60  GLU60       0.1567
     53  C         13.9180  -18.4590  -10.1000 C.2    60  GLU60       0.2260
     54  O         13.9060  -17.2510  -10.3700 O.2    60  GLU60      -0.2867
     55  CB        12.3280  -19.9580  -11.3470 C.3    60  GLU60       0.0388
     56  CG        11.4630  -18.8410  -11.8870 C.3    60  GLU60       0.1160
     57  CD        10.0240  -19.2550  -12.0280 C.2    60  GLU60       0.3649
     58  OE1        9.6220  -20.2330  -11.3570 O.co2  60  GLU60      -0.2457
     59  OE2        9.3060  -18.6120  -12.8260 O.co2  60  GLU60      -0.2457
     60  N         14.9160  -14.3630  -10.4600 N.3    64  TYR64      -0.1241
     61  CA        14.2510  -13.2240   -9.8130 C.3    64  TYR64       0.1605
     62  C         15.2030  -12.3950   -8.9320 C.2    64  TYR64       0.2264
     63  O         15.2080  -11.1600   -9.0280 O.2    64  TYR64      -0.2867
     64  CB        12.9910  -13.6610   -9.0670 C.3    64  TYR64       0.0534
     65  CG        11.7870  -13.6760   -9.9750 C.ar   64  TYR64      -0.0201
     66  CD1       11.1390  -12.4930  -10.3260 C.ar   64  TYR64      -0.0009
     67  CD2       11.3490  -14.8560  -10.5620 C.ar   64  TYR64      -0.0009
     68  CE1       10.0520  -12.4950  -11.1950 C.ar   64  TYR64       0.0417
     69  CE2       10.2780  -14.8680  -11.4420 C.ar   64  TYR64       0.0417
     70  CZ         9.6130  -13.6870  -11.7400 C.ar   64  TYR64       0.1957
     71  OH         8.4980  -13.6780  -12.5530 O.3    64  TYR64      -0.2866
     72  N          6.2090  -10.3500  -13.7100 N.3    88  PRO88      -0.2116
     73  CA         5.4900  -10.2370  -12.4240 C.3    88  PRO88       0.1372
     74  C          6.4050   -9.7790  -11.2700 C.2    88  PRO88       0.2244
     75  O          7.6350   -9.9420  -11.3170 O.2    88  PRO88      -0.2868
     76  CB         4.9930  -11.6730  -12.1770 C.3    88  PRO88       0.0268
     77  CG         5.0290  -12.3290  -13.4920 C.3    88  PRO88       0.0207
     78  CD         6.2240  -11.7480  -14.1780 C.3    88  PRO88       0.0892
     79  N          7.8370  -19.6060   -3.6240 N.3   106  MET106     -0.1245
     80  CA         8.0610  -18.1990   -3.9490 C.3   106  MET106      0.1570
     81  C          6.7290  -17.5140   -3.8560 C.2   106  MET106      0.2261
     82  O          5.7030  -18.1410   -4.1300 O.2   106  MET106     -0.2867
     83  CB         8.6390  -18.0390   -5.3550 C.3   106  MET106      0.0387
     84  CG        10.0350  -18.5410   -5.4370 C.3   106  MET106      0.0595
     85  SD        10.6400  -18.6470   -7.1350 S.3   106  MET106     -0.1393
     86  CE        10.6320  -16.9420   -7.5580 C.3   106  MET106      0.0692
     87  N          4.6640  -14.5660   -5.3610 N.3   108  MET108     -0.1230
     88  CA         4.5930  -13.7760   -6.5650 C.3   108  MET108      0.1702
     89  C          3.3060  -12.9850   -6.6620 C.2   108  MET108      0.2592
     90  O          2.3730  -13.1840   -5.9090 O.2   108  MET108     -0.2718
     91  CB         4.6880  -14.6770   -7.7920 C.3   108  MET108      0.0401
     92  CG         5.7700  -15.7370   -7.7300 C.3   108  MET108      0.0596
     93  SD         7.4180  -15.0400   -7.6550 S.3   108  MET108     -0.1393
     94  CE         7.5050  -14.1390   -9.1890 C.3   108  MET108      0.0692
     95  N          3.2940  -12.0910   -7.6300 N.am  109  GLU109     -0.1966
     96  CA         2.1730  -11.2460   -7.9320 C.3   109  GLU109      0.1733
     97  C          1.0570  -12.0930   -8.5220 C.2   109  GLU109      0.2616
     98  O          1.3010  -12.9560   -9.3450 O.2   109  GLU109     -0.2715
     99  CB         2.6280  -10.2200   -8.9610 C.3   109  GLU109      0.0429
    100  CG         1.6460   -9.1260   -9.2870 C.3   109  GLU109      0.1163
    101  CD         2.2520   -8.0870  -10.2010 C.2   109  GLU109      0.3649
    102  OE1        3.2560   -8.3910  -10.8620 O.co2 109  GLU109     -0.2457
    103  OE2        1.7270   -6.9680  -10.2510 O.co2 109  GLU109     -0.2457
    104  N         -0.1690  -11.8550   -8.0860 N.am  110  ARG110     -0.1963
    105  CA        -1.2940  -12.5850   -8.6350 C.3   110  ARG110      0.1729
    106  C         -1.5900  -12.0300  -10.0260 C.2   110  ARG110      0.2616
    107  O         -1.5950  -10.8310  -10.2190 O.2   110  ARG110     -0.2715
    108  CB        -2.5200  -12.4550   -7.7400 C.3   110  ARG110      0.0348
    109  CG        -3.6490  -13.3870   -8.1220 C.3   110  ARG110      0.0492
    110  CD        -4.9820  -12.9290   -7.5700 C.3   110  ARG110      0.2205
    111  NE        -6.0750  -13.7610   -8.0420 N.pl3 110  ARG110     -0.0865
    112  CZ        -7.2370  -13.8960   -7.4230 C.cat 110  ARG110      0.5346
    113  NH1       -7.4690  -13.2580   -6.2960 N.pl3 110  ARG110      0.1354
    114  NH2       -8.1700  -14.6740   -7.9320 N.pl3 110  ARG110      0.1354
    115  N         -1.8190  -12.8990  -10.9970 N.am  111  LEU111     -0.1963
    116  CA        -2.1030  -12.4400  -12.3480 C.3   111  LEU111      0.1728
    117  C         -3.5340  -12.7960  -12.7000 C.2   111  LEU111      0.2617
    118  O         -4.2300  -13.3880  -11.8700 O.2   111  LEU111     -0.2715
    119  CB        -1.0870  -13.0260  -13.3430 C.3   111  LEU111      0.0311
    120  CG         0.3650  -12.6290  -13.0530 C.3   111  LEU111      0.0022
    121  CD1        1.3070  -13.4620  -13.8510 C.3   111  LEU111      0.0001
    122  CD2        0.5880  -11.1220  -13.2840 C.3   111  LEU111      0.0001
    123  N         -3.9750  -12.3840  -13.8850 N.am  112  GLY112     -0.1940
    124  CA        -5.3210  -12.6920  -14.3770 C.3   112  GLY112      0.2014
    125  C         -5.2970  -13.9750  -15.1820 C.2   112  GLY112      0.2639
    126  O         -4.3990  -14.8000  -14.9940 O.2   112  GLY112     -0.2714
    127  N         -6.2120  -14.1090  -16.1530 N.am  113  ILE113     -0.1963
    128  CA        -6.3390  -15.3240  -16.9640 C.3   113  ILE113      0.1727
    129  C         -5.1800  -15.5320  -17.9430 C.2   113  ILE113      0.2616
    130  O         -4.6220  -14.5570  -18.4840 O.2   113  ILE113     -0.2715
    131  CB        -7.7240  -15.3650  -17.6850 C.3   113  ILE113      0.0290
    132  CG1       -8.1370  -16.8070  -18.0350 C.3   113  ILE113      0.0022
    133  CG2       -7.7800  -14.4320  -18.9170 C.3   113  ILE113      0.0023
    134  CD1       -9.7230  -17.0110  -18.1420 C.3   113  ILE113      0.0001
    135  N         -4.8380  -16.8140  -18.1830 N.am  114  ASP114     -0.1971
    136  CA        -3.8200  -17.1640  -19.1540 C.3   114  ASP114      0.1709
    137  C         -4.4240  -17.1010  -20.5880 C.2   114  ASP114      0.2293
    138  O         -5.6300  -17.3570  -20.7680 O.2   114  ASP114     -0.2864
    139  CB        -3.1380  -18.5080  -18.8060 C.3   114  ASP114      0.1436
    140  CG        -3.8720  -19.7300  -19.2660 C.2   114  ASP114      0.3671
    141  OD1       -3.6640  -20.1400  -20.4330 O.co2 114  ASP114     -0.2456
    142  OD2       -4.5940  -20.3230  -18.4460 O.co2 114  ASP114     -0.2456
    143  N          0.5660  -20.4430  -23.0380 N.3   157  ALA157     -0.1231
    144  CA         0.3480  -20.9380  -21.6710 C.3   157  ALA157      0.1694
    145  C          1.1590  -20.1910  -20.5940 C.2   157  ALA157      0.2592
    146  O          0.7550  -20.1910  -19.4380 O.2   157  ALA157     -0.2718
    147  CB         0.6190  -22.4380  -21.5910 C.3   157  ALA157      0.0304
    148  N          2.2480  -19.5110  -20.9810 N.am  158  ASN158     -0.1974
    149  CA         3.1130  -18.7550  -20.0730 C.3   158  ASN158      0.1688
    150  C          2.7690  -17.2560  -20.0660 C.2   158  ASN158      0.2292
    151  O          3.4810  -16.4680  -19.4190 O.2   158  ASN158     -0.2864
    152  CB         4.6230  -18.9720  -20.4560 C.3   158  ASN158      0.1181
    153  CG         5.1450  -20.3150  -20.0190 C.2   158  ASN158      0.2629
    154  OD1        4.5950  -20.9590  -19.1160 O.2   158  ASN158     -0.2716
    155  ND2        6.2260  -20.7750  -20.6460 N.am  158  ASN158     -0.0877
    156  N         -0.0640  -14.3650  -19.2250 N.3   160  LEU160     -0.1245
    157  CA        -1.2870  -14.1330  -18.4600 C.3   160  LEU160      0.1561
    158  C         -1.5790  -12.6570  -18.4560 C.2   160  LEU160      0.2260
    159  O         -0.6510  -11.8620  -18.4620 O.2   160  LEU160     -0.2867
    160  CB        -1.1260  -14.6430  -16.9980 C.3   160  LEU160      0.0270
    161  CG        -1.0580  -16.1700  -16.7890 C.3   160  LEU160      0.0019
    162  CD1        0.3760  -16.6860  -16.8740 C.3   160  LEU160      0.0001
    163  CD2       -1.5900  -16.5620  -15.4430 C.3   160  LEU160      0.0001
    164  N          4.9040  -15.1390  -17.3030 N.3   172  ALA172     -0.1231
    165  CA         4.8610  -15.5240  -15.8830 C.3   172  ALA172      0.1694
    166  C          5.6660  -16.7270  -15.4170 C.2   172  ALA172      0.2592
    167  O          5.5300  -17.0910  -14.2390 O.2   172  ALA172     -0.2718
    168  CB         3.4220  -15.7390  -15.4660 C.3   172  ALA172      0.0304
    169  N          6.4870  -17.3420  -16.2660 N.am  173  ASP173     -0.1974
    170  CA         7.2760  -18.4940  -15.8090 C.3   173  ASP173      0.1709
    171  C          8.6630  -18.4010  -16.4070 C.2   173  ASP173      0.2293
    172  O          8.7690  -18.0380  -17.5640 O.2   173  ASP173     -0.2864
    173  CB         6.6030  -19.8130  -16.2140 C.3   173  ASP173      0.1436
    174  CG         7.2510  -20.9900  -15.5220 C.2   173  ASP173      0.3671
    175  OD1        6.8970  -21.2510  -14.3360 O.co2 173  ASP173     -0.2456
    176  OD2        8.1960  -21.5770  -16.1070 O.co2 173  ASP173     -0.2456
@<TRIPOS>BOND
     1   143   144    1
     2   144   147    1
     3   144   145    1
     4   148   145   am
     5   148   149    1
     6   138   137    2
     7   155   153   am
     8   145   146    2
     9   137   136    1
    10   152   149    1
    11   152   153    1
    12   141   140   ar
    13   149   150    1
    14   150   151    2
    15   153   154    2
    16   140   139    1
    17   140   142   ar
    18   156   157    1
    19   136   139    1
    20   136   135    1
    21   133   131    1
    22   130   129    2
    23   159   158    2
    24   157   158    1
    25   157   160    1
    26   135   129   am
    27   134   132    1
    28   132   131    1
    29   129   128    1
    30   131   128    1
    31   172   171    2
    32   164   165    1
    33   160   161    1
    34   128   127    1
    35   162   161    1
    36   161   163    1
    37   171   170    1
    38   169   170    1
    39   169   166   am
    40   173   170    1
    41   173   174    1
    42   127   125   am
    43   176   174   ar
    44   165   168    1
    45   165   166    1
    46   174   175   ar
    47   166   167    2
    48   125   126    2
    49   125   124    1
    50    24    23    1
    51    24    25    1
    52   124   123    1
    53    23    21   am
    54    78    72    1
    55    78    77    1
    56   123   117   am
    57   121   120    1
    58    26    25    2
    59    72    73    1
    60    77    76    1
    61    16    15    2
    62   119   120    1
    63   119   116    1
    64   122   120    1
    65    21    20    1
    66    21    22    2
    67    18    17    1
    68    20    19    1
    69    59    57   ar
    70   117   116    1
    71   117   118    2
    72    71    70    1
    73    73    76    1
    74    73    74    1
    75    15    19   am
    76    15    14    1
    77   116   115    1
    78    57    56    1
    79    57    58   ar
    80    56    55    1
    81    70    69   ar
    82    70    68   ar
    83    17    14    1
    84    50    49    1
    85    69    67   ar
    86    14    13    1
    87    55    52    1
    88    13    11   am
    89    75    74    2
    90    52    51    1
    91    52    53    1
    92    68    66   ar
    93   115   106   am
    94   102   101   ar
    95     4     3    2
    96    49    48    1
    97    67    65   ar
    98    60    61    1
    99    10    11    1
   100    10     9    1
   101    54    53    2
   102    66    65   ar
   103   103   101   ar
   104    11    12    2
   105   107   106    2
   106   101   100    1
   107   106   105    1
   108    65    64    1
   109    32    34    1
   110    32    31    1
   111    61    64    1
   112    61    62    1
   113     3     9   am
   114     3     2    1
   115    98    97    2
   116   100    99    1
   117    48    47    1
   118    94    93    1
   119    63    62    2
   120    99    96    1
   121     8     6    1
   122    31    33    1
   123    31    28    1
   124   105   104    1
   125   105   108    1
   126    97   104   am
   127    97    96    1
   128     5     2    1
   129     5     6    1
   130     5     7    1
   131     2     1    1
   132    47    46    1
   133   109   108    1
   134   109   110    1
   135   111   110    1
   136   111   112    2
   137    96    95    1
   138   114   112    1
   139    91    92    1
   140    91    88    1
   141    92    93    1
   142    95    89   am
   143    86    85    1
   144    27    28    1
   145   112   113    1
   146    41    39    1
   147    28    29    1
   148    46    43    1
   149    85    84    1
   150    40    39    1
   151    89    88    1
   152    89    90    2
   153    30    29    2
   154    88    87    1
   155    39    36    1
   156    43    44    1
   157    43    42    1
   158    84    83    1
   159    83    80    1
   160    44    45    2
   161    36    35    1
   162    36    37    1
   163    37    38    2
   164    82    81    2
   165    80    81    1
   166    80    79    1
