@<TRIPOS>MOLECULE
tmp/5uuaA01.pdb
 86 83 0 0 0
SMALL
GASTEIGER

@<TRIPOS>ATOM
      1  N         43.8970   73.3840   57.8460 N.3   159  ASN159     -0.1225
      2  CA        42.5210   73.8060   58.1140 C.3   159  ASN159      0.1785
      3  C         42.2370   75.1670   57.4550 C.2   159  ASN159      0.2597
      4  O         42.7390   75.3930   56.3480 O.2   159  ASN159     -0.2718
      5  CB        42.3280   73.7320   59.5910 C.3   159  ASN159      0.1169
      6  CG        42.6820   72.3370   60.1330 C.2   159  ASN159      0.2627
      7  OD1       43.4570   72.2070   61.0840 O.2   159  ASN159     -0.2716
      8  ND2       42.1520   71.2940   59.4910 N.am  159  ASN159     -0.0877
      9  N         41.4350   76.0540   58.0590 N.am  160  GLU160     -0.1979
     10  CA        41.0240   77.2640   57.3530 C.3   160  GLU160      0.1602
     11  C         42.2170   78.1720   57.0960 C.2   160  GLU160      0.2287
     12  O         42.3190   78.7730   56.0210 O.2   160  GLU160     -0.2864
     13  CB        39.9310   78.0360   58.1080 C.3   160  GLU160      0.0415
     14  CG        38.5860   77.4100   57.9360 C.3   160  GLU160      0.1163
     15  CD        37.4330   78.1720   58.5120 C.2   160  GLU160      0.3649
     16  OE1       37.4610   79.4330   58.6380 O.co2 160  GLU160     -0.2457
     17  OE2       36.4160   77.4880   58.7780 O.co2 160  GLU160     -0.2457
     18  N         31.0350   78.3660   51.5820 N.3   217  TYR217     -0.1241
     19  CA        31.4130   77.8890   52.9000 C.3   217  TYR217      0.1605
     20  C         30.6090   76.6660   53.3100 C.2   217  TYR217      0.2264
     21  O         31.1250   75.8080   54.0280 O.2   217  TYR217     -0.2867
     22  CB        31.2080   78.9900   53.9130 C.3   217  TYR217      0.0534
     23  CG        31.8570   78.7270   55.2510 C.ar  217  TYR217     -0.0201
     24  CD1       33.2210   78.7450   55.3660 C.ar  217  TYR217     -0.0009
     25  CD2       31.1070   78.4900   56.3960 C.ar  217  TYR217     -0.0009
     26  CE1       33.8450   78.5300   56.5430 C.ar  217  TYR217      0.0417
     27  CE2       31.7490   78.2660   57.6210 C.ar  217  TYR217      0.0417
     28  CZ        33.1220   78.2960   57.6720 C.ar  217  TYR217      0.1957
     29  OH        33.8440   78.0850   58.8420 O.3   217  TYR217     -0.2866
     30  N         32.3510   73.4030   52.4000 N.3   220  ARG220     -0.1231
     31  CA        33.7510   73.2260   52.7720 C.3   220  ARG220      0.1694
     32  C         34.0270   71.7800   53.1600 C.2   220  ARG220      0.2592
     33  O         33.1640   71.0830   53.7050 O.2   220  ARG220     -0.2718
     34  CB        34.1330   74.1480   53.9190 C.3   220  ARG220      0.0321
     35  CG        33.5520   73.7950   55.2560 C.3   220  ARG220      0.0489
     36  CD        33.7730   74.9320   56.2210 C.3   220  ARG220      0.2205
     37  NE        33.2710   74.6590   57.5520 N.pl3 220  ARG220     -0.0865
     38  CZ        31.9860   74.7200   57.8800 C.cat 220  ARG220      0.5346
     39  NH1       31.0760   75.0430   56.9690 N.pl3 220  ARG220      0.1354
     40  NH2       31.6040   74.4660   59.1190 N.pl3 220  ARG220      0.1354
     41  N         35.2210   71.3250   52.8130 N.am  221  TYR221     -0.1962
     42  CA        35.7120   70.0210   53.2250 C.3   221  TYR221      0.1771
     43  C         36.1410   70.0500   54.6820 C.2   221  TYR221      0.2620
     44  O         36.8200   70.9840   55.1280 O.2   221  TYR221     -0.2715
     45  CB        36.8880   69.6430   52.3320 C.3   221  TYR221      0.0574
     46  CG        37.5300   68.3350   52.6570 C.ar  221  TYR221     -0.0198
     47  CD1       36.9900   67.1230   52.2180 C.ar  221  TYR221     -0.0009
     48  CD2       38.7070   68.3070   53.3900 C.ar  221  TYR221     -0.0009
     49  CE1       37.6200   65.9170   52.5390 C.ar  221  TYR221      0.0417
     50  CE2       39.3360   67.1340   53.6990 C.ar  221  TYR221      0.0417
     51  CZ        38.7990   65.9400   53.2840 C.ar  221  TYR221      0.1957
     52  OH        39.4770   64.7760   53.6260 O.3   221  TYR221     -0.2866
     53  N         35.7550   69.0130   55.4400 N.am  222  THR222     -0.1937
     54  CA        36.0350   68.9710   56.8700 C.3   222  THR222      0.2028
     55  C         36.8170   67.7340   57.2860 C.2   222  THR222      0.2642
     56  O         36.9970   67.5240   58.4880 O.2   222  THR222     -0.2714
     57  CB        34.7290   69.0260   57.6760 C.3   222  THR222      0.1808
     58  OG1       33.9300   67.8900   57.3330 O.3   222  THR222     -0.2208
     59  CG2       33.9230   70.3010   57.3480 C.3   222  THR222      0.0379
     60  N         37.2900   66.9280   56.3380 N.am  223  GLY223     -0.1954
     61  CA        38.1020   65.7620   56.6340 C.3   223  GLY223      0.1869
     62  C         39.5520   66.0980   56.9140 C.2   223  GLY223      0.2309
     63  O         39.9420   67.2560   57.0840 O.2   223  GLY223     -0.2863
     64  N         43.7080   68.9290   56.0180 N.3   228  GLY228     -0.1225
     65  CA        42.4060   69.4790   56.2630 C.3   228  GLY228      0.1811
     66  C         41.8080   70.1900   55.0610 C.2   228  GLY228      0.2280
     67  O         40.9640   71.0810   55.2300 O.2   228  GLY228     -0.2866
     68  N         39.5270   73.7510   50.0080 N.3   233  ASN233     -0.1240
     69  CA        38.7960   74.8560   50.5860 C.3   233  ASN233      0.1653
     70  C         39.3210   76.2050   50.1180 C.2   233  ASN233      0.2266
     71  O         38.6300   77.2070   50.2940 O.2   233  ASN233     -0.2867
     72  CB        38.8370   74.7750   52.1120 C.3   233  ASN233      0.1155
     73  CG        37.9620   73.6450   52.6370 C.2   233  ASN233      0.2627
     74  OD1       36.9660   73.2730   51.9900 O.2   233  ASN233     -0.2716
     75  ND2       38.3280   73.0940   53.7730 N.am  233  ASN233     -0.0877
     76  N         38.4680   82.0750   57.9870 N.3   281  PHE281     -0.1241
     77  CA        37.8110   82.7540   56.8740 C.3   281  PHE281      0.1605
     78  C         37.1230   84.0400   57.3200 C.2   281  PHE281      0.2264
     79  O         37.1820   85.0540   56.6270 O.2   281  PHE281     -0.2867
     80  CB        36.7930   81.8230   56.2190 C.3   281  PHE281      0.0534
     81  CG        37.3970   80.7350   55.3340 C.ar  281  PHE281     -0.0203
     82  CD1       38.7610   80.5270   55.2110 C.ar  281  PHE281     -0.0042
     83  CD2       36.5640   79.9160   54.5920 C.ar  281  PHE281     -0.0042
     84  CE1       39.2680   79.5180   54.3670 C.ar  281  PHE281     -0.0003
     85  CE2       37.0920   78.9280   53.7500 C.ar  281  PHE281     -0.0003
     86  CZ        38.4430   78.7340   53.6700 C.ar  281  PHE281     -0.0000
@<TRIPOS>BOND
     1    68    69    1
     2    70    71    2
     3    70    69    1
     4    69    72    1
     5    18    19    1
     6    74    73    2
     7    72    73    1
     8    47    49   ar
     9    47    46   ar
    10    45    46    1
    11    45    42    1
    12    30    31    1
    13    49    51   ar
    14    73    75   am
    15    46    48   ar
    16    31    32    1
    17    31    34    1
    18    41    32   am
    19    41    42    1
    20    19    20    1
    21    19    22    1
    22    32    33    2
    23    42    43    1
    24    51    52    1
    25    51    50   ar
    26    20    21    2
    27    48    50   ar
    28    86    85   ar
    29    86    84   ar
    30    85    83   ar
    31    22    23    1
    32    34    35    1
    33    84    82   ar
    34    83    81   ar
    35    43    44    2
    36    43    53   am
    37    66    67    2
    38    66    65    1
    39    82    81   ar
    40    23    24   ar
    41    23    25   ar
    42    35    36    1
    43    81    80    1
    44    24    26   ar
    45    53    54    1
    46    64    65    1
    47    12    11    2
    48    80    77    1
    49    36    37    1
    50    60    61    1
    51    60    55   am
    52     4     3    2
    53    25    27   ar
    54    26    28   ar
    55    79    78    2
    56    61    62    1
    57    54    55    1
    58    54    57    1
    59    77    78    1
    60    77    76    1
    61    62    63    2
    62    39    38    1
    63    11    10    1
    64    55    56    2
    65    58    57    1
    66    59    57    1
    67    10     9    1
    68    10    13    1
    69     3     9   am
    70     3     2    1
    71    37    38    2
    72    27    28   ar
    73    28    29    1
    74     1     2    1
    75    38    40    1
    76    14    13    1
    77    14    15    1
    78     2     5    1
    79    15    16   ar
    80    15    17   ar
    81     8     6   am
    82     5     6    1
    83     6     7    2
