@<TRIPOS>MOLECULE
tmp/5uucA02.pdb
 112 106 0 0 0
SMALL
GASTEIGER

@<TRIPOS>ATOM
      1  N         56.6210   65.0060   39.2400 N.3   111  ASN111     -0.1225
      2  CA        55.4050   65.7470   38.8970 C.3   111  ASN111      0.1785
      3  C         55.0880   66.8110   39.9470 C.2   111  ASN111      0.2597
      4  O         54.0110   66.8480   40.5370 O.2   111  ASN111     -0.2718
      5  CB        54.2420   64.7580   38.7420 C.3   111  ASN111      0.1169
      6  CG        54.2680   64.0250   37.3930 C.2   111  ASN111      0.2627
      7  OD1       54.6200   64.5520   36.3620 O.2   111  ASN111     -0.2716
      8  ND2       53.8620   62.7550   37.4320 N.am  111  ASN111     -0.0877
      9  N         56.0370   67.7220   40.1910 N.am  112  ASN112     -0.1960
     10  CA        55.8160   68.6960   41.2280 C.3   112  ASN112      0.1819
     11  C         56.8710   69.7880   41.1190 C.2   112  ASN112      0.2621
     12  O         57.8470   69.6780   40.3690 O.2   112  ASN112     -0.2715
     13  CB        55.8450   68.0160   42.5850 C.3   112  ASN112      0.1195
     14  CG        55.2870   68.8520   43.6610 C.2   112  ASN112      0.2630
     15  OD1       54.3570   69.6680   43.4530 O.2   112  ASN112     -0.2716
     16  ND2       55.8970   68.7130   44.8770 N.am  112  ASN112     -0.0877
     17  N         56.6030   70.8470   41.8490 N.am  113  ALA113     -0.1977
     18  CA        57.4690   71.9940   42.0210 C.3   113  ALA113      0.1597
     19  C         57.1710   72.5920   43.3770 C.2   113  ALA113      0.2287
     20  O         56.0330   72.5520   43.8460 O.2   113  ALA113     -0.2864
     21  CB        57.2670   73.0340   40.9170 C.3   113  ALA113      0.0319
     22  N         52.4870   66.0800   33.6160 N.3   130  PHE130     -0.1241
     23  CA        53.0950   67.4020   33.5270 C.3   130  PHE130      0.1605
     24  C         54.2410   67.3760   32.5250 C.2   130  PHE130      0.2264
     25  O         54.9220   66.3490   32.3770 O.2   130  PHE130     -0.2867
     26  CB        53.7010   67.8490   34.8460 C.3   130  PHE130      0.0534
     27  CG        52.6970   68.2740   35.9050 C.ar  130  PHE130     -0.0203
     28  CD1       51.9660   69.4310   35.7390 C.ar  130  PHE130     -0.0042
     29  CD2       52.4830   67.5150   37.0070 C.ar  130  PHE130     -0.0042
     30  CE1       51.0800   69.8640   36.7150 C.ar  130  PHE130     -0.0003
     31  CE2       51.6080   67.9280   38.0100 C.ar  130  PHE130     -0.0003
     32  CZ        50.8970   69.1210   37.8440 C.ar  130  PHE130     -0.0000
     33  N         57.7370   71.9540   35.0720 N.3   133  LEU133     -0.1245
     34  CA        56.7420   72.7820   35.7510 C.3   133  LEU133      0.1561
     35  C         57.0740   74.2580   35.7480 C.2   133  LEU133      0.2260
     36  O         56.1690   75.0990   35.9120 O.2   133  LEU133     -0.2867
     37  CB        56.5330   72.2860   37.1740 C.3   133  LEU133      0.0270
     38  CG        55.5350   71.0790   37.1340 C.3   133  LEU133      0.0019
     39  CD1       56.2930   69.7330   36.9310 C.3   133  LEU133      0.0001
     40  CD2       54.6130   71.0630   38.1910 C.3   133  LEU133      0.0001
     41  N         52.4420   78.7750   38.1600 N.3   139  VAL139     -0.1245
     42  CA        53.1020   77.8300   39.0740 C.3   139  VAL139      0.1561
     43  C         54.2880   78.5160   39.7680 C.2   139  VAL139      0.2260
     44  O         54.4330   78.4570   40.9980 O.2   139  VAL139     -0.2867
     45  CB        53.5970   76.5870   38.3250 C.3   139  VAL139      0.0252
     46  CG1       54.4020   75.6970   39.2940 C.3   139  VAL139      0.0019
     47  CG2       52.3890   75.7960   37.7480 C.3   139  VAL139      0.0019
     48  N         52.8920   81.2500   42.0270 N.3   142  HIS142     -0.1226
     49  CA        52.1910   80.6150   43.1480 C.3   142  HIS142      0.1752
     50  C         53.1940   80.1860   44.2090 C.2   142  HIS142      0.2595
     51  O         53.0320   80.5020   45.3830 O.2   142  HIS142     -0.2718
     52  CB        51.3680   79.4050   42.6410 C.3   142  HIS142      0.0759
     53  CG        50.7770   78.5360   43.6910 C.ar  142  HIS142      0.0818
     54  ND1       49.4240   78.4310   43.9180 N.ar  142  HIS142     -0.2268
     55  CD2       51.3640   77.6940   44.5930 C.ar  142  HIS142      0.1154
     56  CE1       49.1880   77.5800   44.8910 C.ar  142  HIS142      0.1986
     57  NE2       50.3570   77.1280   45.3460 N.ar  142  HIS142     -0.2212
     58  N         54.2420   79.4540   43.8050 N.am  143  GLU143     -0.1979
     59  CA        55.1850   78.9370   44.7860 C.3   143  GLU143      0.1602
     60  C         56.0010   80.0610   45.4210 C.2   143  GLU143      0.2287
     61  O         56.2010   80.0400   46.6390 O.2   143  GLU143     -0.2864
     62  CB        56.0790   77.8580   44.1460 C.3   143  GLU143      0.0415
     63  CG        55.2650   76.6140   43.8180 C.3   143  GLU143      0.1163
     64  CD        54.7430   75.9350   45.1280 C.2   143  GLU143      0.3649
     65  OE1       55.4060   75.9510   46.1630 O.co2 143  GLU143     -0.2457
     66  OE2       53.7140   75.3520   45.1270 O.co2 143  GLU143     -0.2457
     67  N         46.9730   78.5680   50.2630 N.3   166  GLU166     -0.1245
     68  CA        46.8700   78.1300   48.8680 C.3   166  GLU166      0.1567
     69  C         46.1890   79.1670   47.9800 C.2   166  GLU166      0.2260
     70  O         46.6490   79.4860   46.8800 O.2   166  GLU166     -0.2867
     71  CB        46.0910   76.8090   48.8240 C.3   166  GLU166      0.0388
     72  CG        46.9790   75.6130   48.9490 C.3   166  GLU166      0.1160
     73  CD        48.0140   75.5560   47.8640 C.2   166  GLU166      0.3649
     74  OE1       47.6270   75.5620   46.6770 O.co2 166  GLU166     -0.2457
     75  OE2       49.2110   75.5590   48.1840 O.co2 166  GLU166     -0.2457
     76  N         44.6700   77.3860   36.9950 N.3   188  ILE188     -0.1245
     77  CA        46.0010   77.1780   37.5730 C.3   188  ILE188      0.1561
     78  C         46.7090   76.0160   36.9210 C.2   188  ILE188      0.2260
     79  O         46.2260   74.8730   36.9700 O.2   188  ILE188     -0.2867
     80  CB        45.9160   76.9340   39.0790 C.3   188  ILE188      0.0252
     81  CG1       45.1600   78.0870   39.7850 C.3   188  ILE188      0.0019
     82  CG2       47.3130   76.7390   39.6670 C.3   188  ILE188      0.0019
     83  CD1       45.8660   79.4580   39.7350 C.3   188  ILE188      0.0001
     84  N         44.7940   72.3630   36.6760 N.3   202  LEU202     -0.1231
     85  CA        44.7090   71.7660   37.9930 C.3   202  LEU202      0.1693
     86  C         43.4510   72.1750   38.7530 C.2   202  LEU202      0.2591
     87  O         43.0470   71.4800   39.6770 O.2   202  LEU202     -0.2718
     88  CB        45.9390   72.1730   38.8270 C.3   202  LEU202      0.0284
     89  CG        47.2550   71.6930   38.2910 C.3   202  LEU202      0.0019
     90  CD1       48.3490   72.2750   39.1240 C.3   202  LEU202      0.0001
     91  CD2       47.2960   70.1610   38.3950 C.3   202  LEU202      0.0001
     92  N         42.9740   73.3930   38.5240 N.am  203  ARG203     -0.1980
     93  CA        41.8130   73.9420   39.2310 C.3   203  ARG203      0.1597
     94  C         41.4690   75.2650   38.5780 C.2   203  ARG203      0.2287
     95  O         42.2850   75.8870   37.8940 O.2   203  ARG203     -0.2864
     96  CB        42.0300   74.1360   40.7220 C.3   203  ARG203      0.0334
     97  CG        43.3190   74.7380   41.0830 C.3   203  ARG203      0.0492
     98  CD        43.5290   74.7770   42.5870 C.3   203  ARG203      0.2205
     99  NE        44.8370   75.4280   42.8890 N.pl3 203  ARG203     -0.0865
    100  CZ        45.9830   74.7870   43.0260 C.cat 203  ARG203      0.5346
    101  NH1       46.0420   73.4460   42.9600 N.pl3 203  ARG203      0.1354
    102  NH2       47.0800   75.4690   43.2960 N.pl3 203  ARG203      0.1354
    103  N         44.1750   72.3010   49.1570 N.3   231  HIS231     -0.1241
    104  CA        44.0320   72.5930   47.7380 C.3   231  HIS231      0.1621
    105  C         42.5870   72.4470   47.2640 C.2   231  HIS231      0.2264
    106  O         42.3070   72.7460   46.1200 O.2   231  HIS231     -0.2867
    107  CB        44.9050   71.6680   46.8690 C.3   231  HIS231      0.0745
    108  CG        46.3870   71.8530   47.0550 C.ar  231  HIS231      0.0817
    109  ND1       47.1220   71.0480   47.8770 N.ar  231  HIS231     -0.2268
    110  CD2       47.2590   72.7340   46.5160 C.ar  231  HIS231      0.1154
    111  CE1       48.3930   71.4080   47.8330 C.ar  231  HIS231      0.1986
    112  NE2       48.5010   72.4490   47.0350 N.ar  231  HIS231     -0.2212
@<TRIPOS>BOND
     1    25    24    2
     2    24    23    1
     3    23    22    1
     4    23    26    1
     5    26    27    1
     6    33    34    1
     7    28    27   ar
     8    28    30   ar
     9    35    34    1
    10    35    36    2
    11    34    37    1
    12    27    29   ar
    13     7     6    2
    14    84    85    1
    15    30    32   ar
    16    78    79    2
    17    78    77    1
    18    39    38    1
    19    76    77    1
    20    29    31   ar
    21    38    37    1
    22    38    40    1
    23     6     8   am
    24     6     5    1
    25    77    80    1
    26    47    45    1
    27    32    31   ar
    28    95    94    2
    29    85    86    1
    30    85    88    1
    31    41    42    1
    32    89    91    1
    33    89    88    1
    34    89    90    1
    35    45    42    1
    36    45    46    1
    37    92    86   am
    38    92    93    1
    39    94    93    1
    40     5     2    1
    41    86    87    2
    42     2     1    1
    43     2     3    1
    44    42    43    1
    45    80    82    1
    46    80    81    1
    47    93    96    1
    48    83    81    1
    49    43    44    2
    50     3     9   am
    51     3     4    2
    52     9    10    1
    53    12    11    2
    54    96    97    1
    55    21    18    1
    56    97    98    1
    57    11    10    1
    58    11    17   am
    59    10    13    1
    60    17    18    1
    61    18    19    1
    62    48    49    1
    63    13    14    1
    64    98    99    1
    65    52    49    1
    66    52    53    1
    67    99   100    2
    68   101   100    1
    69   100   102    1
    70    49    50    1
    71    19    20    2
    72    15    14    2
    73    14    16   am
    74    53    54   ar
    75    53    55   ar
    76    58    50   am
    77    58    59    1
    78    63    62    1
    79    63    64    1
    80    54    56   ar
    81    62    59    1
    82    50    51    2
    83    55    57   ar
    84    59    60    1
    85    56    57   ar
    86    66    64   ar
    87    64    65   ar
    88    60    61    2
    89   106   105    2
    90   110   112   ar
    91   110   108   ar
    92    74    73   ar
    93   107   108    1
    94   107   104    1
    95    70    69    2
    96   112   111   ar
    97   108   109   ar
    98   105   104    1
    99   104   103    1
   100   111   109   ar
   101    73    75   ar
   102    73    72    1
   103    69    68    1
   104    71    68    1
   105    71    72    1
   106    68    67    1
