@<TRIPOS>MOLECULE
tmp/5uugA00.pdb
 172 168 0 0 0
SMALL
GASTEIGER

@<TRIPOS>ATOM
      1  N        -31.6590  -20.0730   33.8020 N.3    21  GLU21      -0.1231
      2  CA       -32.7370  -20.6290   32.9850 C.3    21  GLU21       0.1699
      3  C        -33.0450  -19.7820   31.7540 C.2    21  GLU21       0.2592
      4  O        -33.5730  -20.2980   30.7750 O.2    21  GLU21      -0.2718
      5  CB       -34.0100  -20.8010   33.8230 C.3    21  GLU21       0.0402
      6  CG       -33.8390  -21.7390   35.0070 C.3    21  GLU21       0.1161
      7  CD       -33.3140  -23.1070   34.6020 C.2    21  GLU21       0.3649
      8  OE1      -33.9010  -23.7270   33.6890 O.co2  21  GLU21      -0.2457
      9  OE2      -32.3090  -23.5600   35.1930 O.co2  21  GLU21      -0.2457
     10  N        -32.7100  -18.4920   31.7800 N.am   22  LYS22      -0.1980
     11  CA       -32.8630  -17.6530   30.5960 C.3    22  LYS22       0.1596
     12  C        -31.5890  -17.6380   29.7790 C.2    22  LYS22       0.2287
     13  O        -31.6250  -17.4020   28.5680 O.2    22  LYS22      -0.2864
     14  CB       -33.2310  -16.2150   30.9650 C.3    22  LYS22       0.0298
     15  CG       -34.6680  -16.0180   31.3910 C.3    22  LYS22       0.0038
     16  CD       -34.9960  -14.5360   31.5950 C.3    22  LYS22       0.0206
     17  CE       -36.3620  -14.3470   32.2150 C.3    22  LYS22       0.1093
     18  NZ       -36.6910  -12.9040   32.4400 N.3    22  LYS22      -0.1314
     19  N        -31.4640  -20.2750   26.4740 N.3    25  PRO25      -0.2102
     20  CA       -32.1860  -19.8970   25.2590 C.3    25  PRO25       0.1504
     21  C        -31.7470  -18.5360   24.6960 C.2    25  PRO25       0.2575
     22  O        -31.7960  -18.3390   23.4800 O.2    25  PRO25      -0.2718
     23  CB       -33.6550  -19.8660   25.7150 C.3    25  PRO25       0.0282
     24  CG       -33.6090  -19.7770   27.1860 C.3    25  PRO25       0.0208
     25  CD       -32.3820  -20.5180   27.6000 C.3    25  PRO25       0.0893
     26  N        -31.3070  -17.6170   25.5530 N.am   26  MET26      -0.1980
     27  CA       -30.8360  -16.3310   25.0560 C.3    26  MET26       0.1605
     28  C        -29.5760  -16.5450   24.2160 C.2    26  MET26       0.2287
     29  O        -29.4200  -15.9700   23.1420 O.2    26  MET26      -0.2864
     30  CB       -30.5480  -15.3600   26.2000 C.3    26  MET26       0.0413
     31  CG       -31.7960  -14.7900   26.8420 C.3    26  MET26       0.0598
     32  SD       -31.4680  -13.5830   28.1480 S.3    26  MET26      -0.1393
     33  CE       -31.0280  -12.1110   27.2070 C.3    26  MET26       0.0692
     34  N        -30.3450  -18.0600   20.7640 N.3    29  TYR29      -0.1227
     35  CA       -30.9630  -17.1280   19.8330 C.3    29  TYR29       0.1736
     36  C        -29.8890  -16.4020   19.0380 C.2    29  TYR29       0.2595
     37  O        -30.1020  -16.0800   17.8720 O.2    29  TYR29      -0.2718
     38  CB       -31.8460  -16.1320   20.5900 C.3    29  TYR29       0.0548
     39  CG       -32.5790  -15.1700   19.7020 C.ar   29  TYR29      -0.0200
     40  CD1      -32.3330  -13.8040   19.7810 C.ar   29  TYR29      -0.0009
     41  CD2      -33.5090  -15.6160   18.7770 C.ar   29  TYR29      -0.0009
     42  CE1      -32.9810  -12.9230   18.9640 C.ar   29  TYR29       0.0417
     43  CE2      -34.1790  -14.7270   17.9570 C.ar   29  TYR29       0.0417
     44  CZ       -33.8980  -13.3710   18.0630 C.ar   29  TYR29       0.1957
     45  OH       -34.5700  -12.4760   17.2500 O.3    29  TYR29      -0.2866
     46  N        -28.7340  -16.1540   19.6660 N.am   30  MET30      -0.1979
     47  CA       -27.6140  -15.5120   18.9590 C.3    30  MET30       0.1605
     48  C        -26.6060  -16.5420   18.4390 C.2    30  MET30       0.2287
     49  O        -25.4170  -16.2520   18.3560 O.2    30  MET30      -0.2864
     50  CB       -26.8950  -14.4910   19.8650 C.3    30  MET30       0.0413
     51  CG       -27.7960  -13.3820   20.4080 C.3    30  MET30       0.0598
     52  SD       -28.6380  -12.4880   19.0940 S.3    30  MET30      -0.1393
     53  CE       -29.4210  -11.2690   20.1030 C.3    30  MET30       0.0692
     54  N        -24.2680  -15.7590   27.8820 N.3    36  PHE36      -0.1241
     55  CA       -25.2360  -14.8280   28.4530 C.3    36  PHE36       0.1605
     56  C        -25.3780  -15.0720   29.9550 C.2    36  PHE36       0.2264
     57  O        -25.2590  -16.2220   30.4270 O.2    36  PHE36      -0.2867
     58  CB       -26.6180  -14.9890   27.7970 C.3    36  PHE36       0.0534
     59  CG       -26.8140  -14.1990   26.5180 C.ar   36  PHE36      -0.0203
     60  CD1      -26.2640  -14.6240   25.3040 C.ar   36  PHE36      -0.0042
     61  CD2      -27.5790  -13.0570   26.5260 C.ar   36  PHE36      -0.0042
     62  CE1      -26.4690  -13.9180   24.1520 C.ar   36  PHE36      -0.0003
     63  CE2      -27.7880  -12.3400   25.3590 C.ar   36  PHE36      -0.0003
     64  CZ       -27.2380  -12.7610   24.1790 C.ar   36  PHE36      -0.0000
     65  N        -32.7310   -9.9760   30.4620 N.3    40  GLN40      -0.1231
     66  CA       -33.4000   -9.3910   29.3120 C.3    40  GLN40       0.1698
     67  C        -33.4150   -7.8770   29.4480 C.2    40  GLN40       0.2592
     68  O        -33.0670   -7.3430   30.5000 O.2    40  GLN40      -0.2718
     69  CB       -34.8190   -9.9640   29.1740 C.3    40  GLN40       0.0381
     70  CG       -34.7760  -11.4390   28.7330 C.3    40  GLN40       0.0905
     71  CD       -36.1060  -12.1250   28.8330 C.2    40  GLN40       0.2608
     72  OE1      -36.8390  -11.9430   29.7980 O.2    40  GLN40      -0.2717
     73  NE2      -36.4230  -12.9300   27.8410 N.am   40  GLN40      -0.0878
     74  N        -33.8220   -7.1860   28.3930 N.am   41  THR41      -0.1953
     75  CA       -33.5900   -5.7370   28.3000 C.3    41  THR41       0.1897
     76  C        -34.2130   -4.8890   29.4530 C.2    41  THR41       0.2313
     77  O        -33.5230   -4.0330   30.0010 O.2    41  THR41      -0.2863
     78  CB       -34.0680   -5.2070   26.9360 C.3    41  THR41       0.1794
     79  OG1      -33.3170   -5.8570   25.9010 O.3    41  THR41      -0.2208
     80  CG2      -33.8560   -3.7030   26.8170 C.3    41  THR41       0.0378
     81  N        -25.6640   -9.0500   14.7970 N.3   111  TRP111     -0.1227
     82  CA       -26.6350   -8.0660   14.3240 C.3   111  TRP111      0.1737
     83  C        -27.1630   -7.2030   15.4740 C.2   111  TRP111      0.2595
     84  O        -27.5230   -6.0390   15.2680 O.2   111  TRP111     -0.2718
     85  CB       -27.7890   -8.7540   13.5880 C.3   111  TRP111      0.0564
     86  CG       -28.5280   -9.7700   14.4090 C.ar  111  TRP111      0.0003
     87  CD1      -28.2900  -11.1130   14.4700 C.ar  111  TRP111      0.0946
     88  CD2      -29.6420   -9.5270   15.2810 C.ar  111  TRP111      0.0152
     89  NE1      -29.1820  -11.7190   15.3110 N.ar  111  TRP111     -0.2442
     90  CE2      -30.0140  -10.7690   15.8380 C.ar  111  TRP111      0.0810
     91  CE3      -30.3500   -8.3840   15.6570 C.ar  111  TRP111      0.0012
     92  CZ2      -31.0800  -10.9080   16.7430 C.ar  111  TRP111      0.0191
     93  CZ3      -31.4110   -8.5360   16.5670 C.ar  111  TRP111      0.0001
     94  CH2      -31.7550   -9.7750   17.0900 C.ar  111  TRP111      0.0015
     95  N        -27.1380   -7.7400   16.6870 N.am  112  ASP112     -0.1974
     96  CA       -27.7000   -7.0240   17.8280 C.3   112  ASP112      0.1709
     97  C        -26.8190   -5.8130   18.1660 C.2   112  ASP112      0.2293
     98  O        -27.3390   -4.6870   18.2600 O.2   112  ASP112     -0.2864
     99  CB       -27.9170   -7.9550   19.0380 C.3   112  ASP112      0.1436
    100  CG       -26.6460   -8.6640   19.5250 C.2   112  ASP112      0.3671
    101  OD1      -25.8070   -9.0960   18.7010 O.co2 112  ASP112     -0.2456
    102  OD2      -26.5260   -8.8200   20.7590 O.co2 112  ASP112     -0.2456
    103  N        -26.5050   -3.2510   14.8800 N.3   115  ASP115     -0.1225
    104  CA       -27.7110   -2.4820   14.6040 C.3   115  ASP115      0.1805
    105  C        -27.9480   -1.4510   15.7130 C.2   115  ASP115      0.2598
    106  O        -28.5910   -0.4180   15.4810 O.2   115  ASP115     -0.2718
    107  CB       -28.9440   -3.3630   14.4730 C.3   115  ASP115      0.1424
    108  CG       -28.9110   -4.2880   13.2520 C.2   115  ASP115      0.3668
    109  OD1      -28.0310   -4.1630   12.3740 O.co2 115  ASP115     -0.2456
    110  OD2      -29.8010   -5.1770   13.2310 O.co2 115  ASP115     -0.2456
    111  N        -27.4370   -1.7060   16.9130 N.am  116  SER116     -0.1952
    112  CA       -27.5930   -0.7180   17.9860 C.3   116  SER116      0.1924
    113  C        -26.5730    0.4180   17.9310 C.2   116  SER116      0.2314
    114  O        -26.7250    1.4450   18.6230 O.2   116  SER116     -0.2863
    115  CB       -27.5080   -1.3910   19.3550 C.3   116  SER116      0.2116
    116  OG       -28.6610   -2.1870   19.6270 O.3   116  SER116     -0.2180
    117  N        -27.6850    3.0550   13.1380 N.3   119  PRO119     -0.2116
    118  CA       -28.6470    4.1150   12.7540 C.3   119  PRO119      0.1372
    119  C        -28.7900    5.2790   13.7370 C.2   119  PRO119      0.2244
    120  O        -29.2310    6.3620   13.3370 O.2   119  PRO119     -0.2868
    121  CB       -29.9710    3.3690   12.6350 C.3   119  PRO119      0.0268
    122  CG       -29.7670    2.0650   13.2980 C.3   119  PRO119      0.0207
    123  CD       -28.3330    1.7540   13.3190 C.3   119  PRO119      0.0892
    124  N        -31.0000    4.5090    8.0920 N.3   157  LEU157     -0.1231
    125  CA       -32.2990    3.8340    8.2870 C.3   157  LEU157      0.1693
    126  C        -33.4000    4.6820    8.9010 C.2   157  LEU157      0.2591
    127  O        -34.5840    4.5560    8.5150 O.2   157  LEU157     -0.2718
    128  CB       -32.0890    2.5630    9.1500 C.3   157  LEU157      0.0284
    129  CG       -33.3060    1.7080    9.5250 C.3   157  LEU157      0.0019
    130  CD1      -33.9140    0.9990    8.3040 C.3   157  LEU157      0.0001
    131  CD2      -32.9340    0.7290   10.6190 C.3   157  LEU157      0.0001
    132  N        -33.0460    5.5410    9.8500 N.am  158  LYS158     -0.1980
    133  CA       -34.0290    6.3520   10.5710 C.3   158  LYS158      0.1596
    134  C        -34.1970    7.7590   10.0000 C.2   158  LYS158      0.2287
    135  O        -34.8420    8.5940   10.6130 O.2   158  LYS158     -0.2864
    136  CB       -33.6290    6.4470   12.0520 C.3   158  LYS158      0.0298
    137  CG       -33.5890    5.0810   12.7270 C.3   158  LYS158      0.0038
    138  CD       -33.1670    5.1600   14.1720 C.3   158  LYS158      0.0206
    139  CE       -34.2560    5.8360   15.0020 C.3   158  LYS158      0.1093
    140  NZ       -33.9770    5.7750   16.4480 N.3   158  LYS158     -0.1314
    141  N        -30.5210   -8.8910    3.5360 N.3   185  LYS185     -0.1245
    142  CA       -31.6070   -8.5400    4.4300 C.3   185  LYS185      0.1561
    143  C        -31.5940   -7.0480    4.7980 C.2   185  LYS185      0.2260
    144  O        -32.6440   -6.4140    4.8500 O.2   185  LYS185     -0.2867
    145  CB       -31.5440   -9.3950    5.6990 C.3   185  LYS185      0.0271
    146  CG       -32.7700   -9.2980    6.5780 C.3   185  LYS185      0.0035
    147  CD       -34.0400   -9.8260    5.9080 C.3   185  LYS185      0.0206
    148  CE       -35.2760   -9.6050    6.8010 C.3   185  LYS185      0.1093
    149  NZ       -35.2900  -10.4480    8.0520 N.3   185  LYS185     -0.1314
    150  N        -34.5200   -4.2810    4.3020 N.3   189  TRP189     -0.1241
    151  CA       -34.9970   -3.5010    5.4540 C.3   189  TRP189      0.1605
    152  C        -34.9700   -2.0160    5.1470 C.2   189  TRP189      0.2264
    153  O        -35.9930   -1.3380    5.3130 O.2   189  TRP189     -0.2867
    154  CB       -34.1390   -3.7970    6.6790 C.3   189  TRP189      0.0550
    155  CG       -34.6170   -3.1920    7.9960 C.ar  189  TRP189      0.0003
    156  CD1      -35.8080   -2.5840    8.2590 C.ar  189  TRP189      0.0946
    157  CD2      -33.8880   -3.2110    9.2320 C.ar  189  TRP189      0.0152
    158  NE1      -35.8590   -2.2210    9.5950 N.ar  189  TRP189     -0.2442
    159  CE2      -34.6880   -2.6020   10.2030 C.ar  189  TRP189      0.0810
    160  CE3      -32.6200   -3.6980    9.5960 C.ar  189  TRP189      0.0012
    161  CZ2      -34.2770   -2.4670   11.5260 C.ar  189  TRP189      0.0191
    162  CZ3      -32.2090   -3.5510   10.9050 C.ar  189  TRP189      0.0001
    163  CH2      -33.0280   -2.9370   11.8530 C.ar  189  TRP189      0.0015
    164  N        -38.1800    0.4280    4.7120 N.3   193  GLU193     -0.1245
    165  CA       -38.3690    1.5210    5.6570 C.3   193  GLU193      0.1567
    166  C        -38.4620    2.8680    4.9270 C.2   193  GLU193      0.2260
    167  O        -39.3540    3.7030    5.2080 O.2   193  GLU193     -0.2867
    168  CB       -37.2380    1.5340    6.6750 C.3   193  GLU193      0.0388
    169  CG       -37.4440    2.5180    7.8270 C.3   193  GLU193      0.1160
    170  CD       -38.5350    2.1390    8.7960 C.2   193  GLU193      0.3649
    171  OE1      -38.9910    0.9780    8.8140 O.co2 193  GLU193     -0.2457
    172  OE2      -38.9480    3.0200    9.5840 O.co2 193  GLU193     -0.2457
@<TRIPOS>BOND
     1   141   142    1
     2   150   151    1
     3   142   143    1
     4   142   145    1
     5   164   165    1
     6   143   144    2
     7   166   167    2
     8   166   165    1
     9   152   153    2
    10   152   151    1
    11   151   154    1
    12   165   168    1
    13   145   146    1
    14   147   146    1
    15   147   148    1
    16   168   169    1
    17   154   155    1
    18   148   149    1
    19   169   170    1
    20   155   156   ar
    21   155   157   ar
    22   124   125    1
    23   156   158   ar
    24   125   126    1
    25   125   128    1
    26   130   129    1
    27   127   126    2
    28   170   171   ar
    29   170   172   ar
    30   126   132   am
    31   128   129    1
    32   157   160   ar
    33   157   159   ar
    34   129   131    1
    35   158   159   ar
    36   160   162   ar
    37   132   133    1
    38   134   133    1
    39   134   135    2
    40   159   161   ar
    41   133   136    1
    42   162   163   ar
    43   161   163   ar
    44   136   137    1
    45   109   108   ar
    46   121   118    1
    47   121   122    1
    48   137   138    1
    49   118   117    1
    50   118   119    1
    51   117   123    1
    52   110   108   ar
    53   108   107    1
    54   122   123    1
    55   120   119    2
    56    85    82    1
    57    85    86    1
    58   138   139    1
    59    82    81    1
    60    82    83    1
    61    86    87   ar
    62    86    88   ar
    63    87    89   ar
    64   107   104    1
    65   104   103    1
    66   104   105    1
    67   139   140    1
    68    84    83    2
    69    88    91   ar
    70    88    90   ar
    71    89    90   ar
    72    83    95   am
    73   106   105    2
    74    91    93   ar
    75   105   111   am
    76    90    92   ar
    77    93    94   ar
    78    95    96    1
    79    92    94   ar
    80   111   112    1
    81    45    44    1
    82    96    97    1
    83    96    99    1
    84    37    36    2
    85   113   112    1
    86   113   114    2
    87    43    44   ar
    88    43    41   ar
    89   112   115    1
    90    44    42   ar
    91    97    98    2
    92    49    48    2
    93    48    47    1
    94   101   100   ar
    95    41    39   ar
    96    47    46    1
    97    47    50    1
    98    42    40   ar
    99    36    46   am
   100    36    35    1
   101    99   100    1
   102    52    53    1
   103    52    51    1
   104   115   116    1
   105   100   102   ar
   106    39    40   ar
   107    39    38    1
   108    35    38    1
   109    35    34    1
   110    50    51    1
   111    29    28    2
   112    22    21    2
   113    62    64   ar
   114    62    60   ar
   115    64    63   ar
   116    28    27    1
   117    21    20    1
   118    21    26   am
   119    27    26    1
   120    27    30    1
   121    20    23    1
   122    20    19    1
   123    60    59   ar
   124    63    61   ar
   125    23    24    1
   126    79    78    1
   127    30    31    1
   128    19    25    1
   129    59    61   ar
   130    59    58    1
   131    80    78    1
   132    31    32    1
   133    78    75    1
   134    24    25    1
   135    33    32    1
   136    58    55    1
   137    73    71   am
   138    54    55    1
   139    75    74    1
   140    75    76    1
   141    74    67   am
   142    55    56    1
   143    13    12    2
   144    70    71    1
   145    70    69    1
   146    71    72    2
   147    69    66    1
   148    66    67    1
   149    66    65    1
   150    67    68    2
   151    76    77    2
   152    12    11    1
   153    56    57    2
   154    11    14    1
   155    11    10    1
   156     4     3    2
   157    14    15    1
   158    15    16    1
   159    16    17    1
   160     3    10   am
   161     3     2    1
   162    17    18    1
   163     2     1    1
   164     2     5    1
   165     8     7   ar
   166     5     6    1
   167     7     6    1
   168     7     9   ar
