@<TRIPOS>MOLECULE
tmp/5uusA00.pdb
 89 84 0 0 0
SMALL
GASTEIGER

@<TRIPOS>ATOM
      1  N         41.2710   35.7180   36.4960 N.3    52  TYR52      -0.1241
      2  CA        41.2980   36.9790   37.2280 C.3    52  TYR52       0.1605
      3  C         42.7560   37.3310   37.6110 C.2    52  TYR52       0.2264
      4  O         43.3840   36.6340   38.4010 O.2    52  TYR52      -0.2867
      5  CB        40.4340   36.9110   38.4920 C.3    52  TYR52       0.0534
      6  CG        38.9200   36.8110   38.2610 C.ar   52  TYR52      -0.0201
      7  CD1       38.1340   37.9550   38.1770 C.ar   52  TYR52      -0.0009
      8  CD2       38.3000   35.5870   38.1880 C.ar   52  TYR52      -0.0009
      9  CE1       36.7410   37.8680   38.0020 C.ar   52  TYR52       0.0417
     10  CE2       36.9020   35.4770   37.9960 C.ar   52  TYR52       0.0417
     11  CZ        36.1370   36.6280   37.9160 C.ar   52  TYR52       0.1957
     12  OH        34.7670   36.5150   37.7430 O.3    52  TYR52      -0.2866
     13  N         25.3110   34.1430   43.5550 N.3   142  THR142     -0.1203
     14  CA        25.6150   35.3710   44.2810 C.3   142  THR142      0.1994
     15  C         25.4230   36.5810   43.3670 C.2   142  THR142      0.2619
     16  O         24.9770   36.4310   42.2290 O.2   142  THR142     -0.2717
     17  CB        27.0470   35.3450   44.8790 C.3   142  THR142      0.1784
     18  OG1       27.2060   36.4670   45.7670 O.3   142  THR142     -0.2211
     19  CG2       28.1550   35.4020   43.7570 C.3   142  THR142      0.0376
     20  N         25.7260   37.7720   43.8790 N.am  143  THR143     -0.1939
     21  CA        25.5540   39.0190   43.1330 C.3   143  THR143      0.2013
     22  C         26.9030   39.4080   42.5160 C.2   143  THR143      0.2484
     23  O         27.9540   38.9610   43.0180 O.2   143  THR143     -0.2729
     24  CB        25.0450   40.1610   44.0470 C.3   143  THR143      0.1807
     25  OG1       25.9750   40.3340   45.1200 O.3   143  THR143     -0.2208
     26  CG2       23.6710   39.8260   44.6400 C.3   143  THR143      0.0379
     27  N         26.8840   40.2410   41.4430 N.am  144  PRO144     -0.2726
     28  CA        28.1220   40.6130   40.7180 C.3   144  PRO144      0.1402
     29  C         29.1850   41.2690   41.6000 C.2   144  PRO144      0.2269
     30  O         30.3720   41.1040   41.3050 O.2   144  PRO144     -0.2865
     31  CB        27.6230   41.6020   39.6460 C.3   144  PRO144      0.0296
     32  CG        26.1890   41.1900   39.4120 C.3   144  PRO144      0.0237
     33  CD        25.6850   40.8060   40.7800 C.3   144  PRO144      0.0939
     34  N         30.2030   40.4390   44.5280 N.3   146  ASP146     -0.1225
     35  CA        30.7200   39.5310   45.5530 C.3   146  ASP146      0.1805
     36  C         32.2200   39.2210   45.3230 C.2   146  ASP146      0.2597
     37  O         32.5720   38.0950   44.9910 O.2   146  ASP146     -0.2718
     38  CB        29.9030   38.2290   45.5660 C.3   146  ASP146      0.1424
     39  CG        30.1020   37.4340   46.8350 C.2   146  ASP146      0.3668
     40  OD1       30.8630   37.8930   47.7230 O.co2 146  ASP146     -0.2456
     41  OD2       29.4740   36.3560   46.9640 O.co2 146  ASP146     -0.2456
     42  N         33.0880   40.2170   45.5040 N.am  147  VAL147     -0.1980
     43  CA        34.4890   40.0850   45.1020 C.3   147  VAL147      0.1595
     44  C         35.2760   39.0780   45.9580 C.2   147  VAL147      0.2287
     45  O         36.2810   38.5420   45.4980 O.2   147  VAL147     -0.2864
     46  CB        35.2170   41.4500   45.1400 C.3   147  VAL147      0.0276
     47  CG1       34.4750   42.4700   44.2740 C.3   147  VAL147      0.0022
     48  CG2       35.3390   41.9590   46.5600 C.3   147  VAL147      0.0022
     49  N         34.5470   36.1240   46.6080 N.3   149  THR149     -0.1203
     50  CA        34.5310   34.7900   46.0050 C.3   149  THR149      0.1994
     51  C         35.8660   34.3970   45.3710 C.2   149  THR149      0.2617
     52  O         36.1520   33.2070   45.2490 O.2   149  THR149     -0.2717
     53  CB        33.4450   34.6380   44.9200 C.3   149  THR149      0.1784
     54  OG1       33.5810   35.6690   43.9410 O.3   149  THR149     -0.2211
     55  CG2       32.0170   34.7090   45.5730 C.3   149  THR149      0.0376
     56  N         36.6600   35.3830   44.9560 N.am  150  ILE150     -0.1979
     57  CA        37.9640   35.0910   44.3310 C.3   150  ILE150      0.1595
     58  C         39.1540   35.3900   45.2760 C.2   150  ILE150      0.2287
     59  O         40.3130   35.3020   44.8590 O.2   150  ILE150     -0.2864
     60  CB        38.1500   35.8810   42.9900 C.3   150  ILE150      0.0276
     61  CG1       38.2800   37.3800   43.2360 C.3   150  ILE150      0.0022
     62  CG2       36.9660   35.6480   42.0220 C.3   150  ILE150      0.0022
     63  CD1       38.5800   38.1800   41.9620 C.3   150  ILE150      0.0001
     64  N         33.6210   31.2480   37.8090 N.3   172  THR172     -0.1218
     65  CA        32.4860   32.1730   37.8860 C.3   172  THR172      0.1862
     66  C         31.8280   32.3210   36.5050 C.2   172  THR172      0.2287
     67  O         32.5130   32.3380   35.4730 O.2   172  THR172     -0.2866
     68  CB        32.9250   33.5700   38.4080 C.3   172  THR172      0.1770
     69  OG1       33.5440   34.3180   37.3500 O.3   172  THR172     -0.2211
     70  CG2       33.9240   33.4380   39.6190 C.3   172  THR172      0.0375
     71  N         25.3940   35.7180   39.4480 N.3   182  ARG182     -0.1245
     72  CA        26.6070   34.9840   39.1110 C.3   182  ARG182      0.1563
     73  C         26.5630   33.6210   39.7480 C.2   182  ARG182      0.2260
     74  O         26.1730   33.4910   40.9090 O.2   182  ARG182     -0.2867
     75  CB        27.8620   35.7320   39.5990 C.3   182  ARG182      0.0307
     76  CG        28.0300   37.1270   39.0080 C.3   182  ARG182      0.0489
     77  CD        28.4190   37.0050   37.5490 C.3   182  ARG182      0.2205
     78  NE        28.7230   38.2880   36.9440 N.pl3 182  ARG182     -0.0865
     79  CZ        27.8080   39.1030   36.4160 C.cat 182  ARG182      0.5346
     80  NH1       26.5220   38.7760   36.4180 N.pl3 182  ARG182      0.1354
     81  NH2       28.1830   40.2410   35.8690 N.pl3 182  ARG182      0.1354
     82  N         28.8640   30.5670   41.1570 N.3   184  ILE184     -0.1245
     83  CA        30.2090   30.3110   41.6830 C.3   184  ILE184      0.1561
     84  C         30.4070   28.8090   41.9270 C.2   184  ILE184      0.2260
     85  O         29.5320   28.1540   42.5060 O.2   184  ILE184     -0.2867
     86  CB        30.4640   31.0420   43.0270 C.3   184  ILE184      0.0252
     87  CG1       30.0600   32.5090   42.9470 C.3   184  ILE184      0.0019
     88  CG2       31.9460   30.9020   43.4620 C.3   184  ILE184      0.0019
     89  CD1       30.8220   33.2960   41.8680 C.3   184  ILE184      0.0001
@<TRIPOS>BOND
     1    67    66    2
     2    81    79    1
     3    79    80    1
     4    79    78    2
     5     1     2    1
     6    66    65    1
     7    78    77    1
     8     2     3    1
     9     2     5    1
    10    69    68    1
    11    77    76    1
    12     3     4    2
    13    12    11    1
    14    64    65    1
    15    65    68    1
    16    11    10   ar
    17    11     9   ar
    18    10     8   ar
    19     9     7   ar
    20     7     6   ar
    21     8     6   ar
    22     6     5    1
    23    68    70    1
    24    76    75    1
    25    72    71    1
    26    72    75    1
    27    72    73    1
    28    32    31    1
    29    32    33    1
    30    31    28    1
    31    73    74    2
    32    28    27    1
    33    28    29    1
    34    33    27    1
    35    82    83    1
    36    30    29    2
    37    27    22   am
    38    83    84    1
    39    83    86    1
    40    89    87    1
    41    84    85    2
    42    63    61    1
    43    62    60    1
    44    16    15    2
    45    22    23    2
    46    22    21    1
    47    87    86    1
    48    60    61    1
    49    60    57    1
    50    86    88    1
    51    21    20    1
    52    21    24    1
    53    15    20   am
    54    15    14    1
    55    13    14    1
    56    19    17    1
    57    54    53    1
    58    24    26    1
    59    24    25    1
    60    47    46    1
    61    14    17    1
    62    57    56    1
    63    57    58    1
    64    34    35    1
    65    59    58    2
    66    17    18    1
    67    53    55    1
    68    53    50    1
    69    56    51   am
    70    37    36    2
    71    43    46    1
    72    43    42    1
    73    43    44    1
    74    46    48    1
    75    52    51    2
    76    36    42   am
    77    36    35    1
    78    51    50    1
    79    45    44    2
    80    35    38    1
    81    38    39    1
    82    50    49    1
    83    39    41   ar
    84    39    40   ar
