@<TRIPOS>MOLECULE
tmp/5uuuA01.pdb
 87 84 0 0 0
SMALL
GASTEIGER

@<TRIPOS>ATOM
      1  N        -47.3480   40.1560  -54.9330 N.3   104  LYS104     -0.1231
      2  CA       -47.1320   39.0010  -54.0580 C.3   104  LYS104      0.1693
      3  C        -48.4360   38.6160  -53.3820 C.2   104  LYS104      0.2591
      4  O        -49.2030   39.4860  -52.9550 O.2   104  LYS104     -0.2718
      5  CB       -46.0590   39.2680  -52.9910 C.3   104  LYS104      0.0285
      6  CG       -45.9490   38.1250  -51.9870 C.3   104  LYS104      0.0035
      7  CD       -44.6370   38.0740  -51.2450 C.3   104  LYS104      0.0206
      8  CE       -44.5540   36.7960  -50.4240 C.3   104  LYS104      0.1093
      9  NZ       -43.3920   36.7820  -49.4950 N.3   104  LYS104     -0.1314
     10  N        -48.6550   37.3080  -53.2550 N.am  105  MET105     -0.1979
     11  CA       -49.8610   36.7730  -52.6440 C.3   105  MET105      0.1605
     12  C        -49.6870   36.6140  -51.1300 C.2   105  MET105      0.2287
     13  O        -48.6570   36.1270  -50.6580 O.2   105  MET105     -0.2864
     14  CB       -50.2120   35.4250  -53.2760 C.3   105  MET105      0.0413
     15  CG       -50.3610   35.4560  -54.7940 C.3   105  MET105      0.0598
     16  SD       -51.6480   36.5770  -55.3770 S.3   105  MET105     -0.1393
     17  CE       -51.3420   36.5660  -57.1430 C.3   105  MET105      0.0692
     18  N        -48.5590   35.0460  -44.0970 N.3   161  ASP161     -0.1225
     19  CA       -48.2350   34.0100  -45.0790 C.3   161  ASP161      0.1805
     20  C        -49.5270   33.3230  -45.5650 C.2   161  ASP161      0.2598
     21  O        -50.3830   32.9630  -44.7490 O.2   161  ASP161     -0.2718
     22  CB       -47.2820   32.9630  -44.4740 C.3   161  ASP161      0.1424
     23  CG       -45.8710   33.4970  -44.2490 C.2   161  ASP161      0.3668
     24  OD1      -45.3110   34.1610  -45.1410 O.co2 161  ASP161     -0.2456
     25  OD2      -45.3000   33.2290  -43.1790 O.co2 161  ASP161     -0.2456
     26  N        -49.6770   33.1790  -46.8830 N.am  162  LEU162     -0.1966
     27  CA       -50.8830   32.5730  -47.4670 C.3   162  LEU162      0.1728
     28  C        -50.7950   31.0540  -47.3820 C.2   162  LEU162      0.2616
     29  O        -49.7810   30.4690  -47.7340 O.2   162  LEU162     -0.2715
     30  CB       -51.0530   33.0010  -48.9290 C.3   162  LEU162      0.0311
     31  CG       -52.3010   32.5330  -49.6990 C.3   162  LEU162      0.0022
     32  CD1      -53.5910   32.8610  -48.9590 C.3   162  LEU162      0.0001
     33  CD2      -52.3150   33.1610  -51.0820 C.3   162  LEU162      0.0001
     34  N        -51.8530   30.4250  -46.8900 N.am  163  MET163     -0.1963
     35  CA       -51.9230   28.9790  -46.8030 C.3   163  MET163      0.1736
     36  C        -53.2520   28.5610  -47.3970 C.2   163  MET163      0.2616
     37  O        -54.3080   28.7960  -46.8020 O.2   163  MET163     -0.2715
     38  CB       -51.8050   28.5190  -45.3490 C.3   163  MET163      0.0427
     39  CG       -50.4620   28.8350  -44.7040 C.3   163  MET163      0.0599
     40  SD       -49.0810   27.9170  -45.4080 S.3   163  MET163     -0.1393
     41  CE       -49.1800   26.3850  -44.4950 C.3   163  MET163      0.0692
     42  N        -53.1890   27.9600  -48.5840 N.am  164  ASN164     -0.1972
     43  CA       -54.3820   27.6030  -49.3480 C.3   164  ASN164      0.1688
     44  C        -54.8500   26.1730  -49.1190 C.2   164  ASN164      0.2292
     45  O        -55.9300   25.8090  -49.5820 O.2   164  ASN164     -0.2864
     46  CB       -54.1410   27.8300  -50.8410 C.3   164  ASN164      0.1181
     47  CG       -54.1950   29.2930  -51.2210 C.2   164  ASN164      0.2629
     48  OD1      -55.1820   29.9850  -50.9520 O.2   164  ASN164     -0.2716
     49  ND2      -53.1420   29.7710  -51.8640 N.am  164  ASN164     -0.0877
     50  N        -49.9730   24.1040  -46.9010 N.3   215  ASP215     -0.1225
     51  CA       -49.8170   24.7510  -48.2070 C.3   215  ASP215      0.1805
     52  C        -50.2800   23.7870  -49.3080 C.2   215  ASP215      0.2598
     53  O        -50.5910   22.6260  -49.0260 O.2   215  ASP215     -0.2718
     54  CB       -48.3740   25.2820  -48.4270 C.3   215  ASP215      0.1424
     55  CG       -47.3080   24.1840  -48.4610 C.2   215  ASP215      0.3668
     56  OD1      -47.6410   22.9860  -48.4510 O.co2 215  ASP215     -0.2456
     57  OD2      -46.1100   24.5330  -48.4920 O.co2 215  ASP215     -0.2456
     58  N        -50.3150   24.2590  -50.5540 N.am  216  GLU216     -0.1965
     59  CA       -50.7870   23.4380  -51.6860 C.3   216  GLU216      0.1733
     60  C        -49.9460   22.1690  -51.9610 C.2   216  GLU216      0.2616
     61  O        -50.4210   21.2640  -52.6490 O.2   216  GLU216     -0.2715
     62  CB       -50.9230   24.2830  -52.9660 C.3   216  GLU216      0.0429
     63  CG       -52.1460   25.2050  -52.9750 C.3   216  GLU216      0.1163
     64  CD       -52.3100   26.0100  -54.2740 C.2   216  GLU216      0.3649
     65  OE1      -53.4650   26.3870  -54.5940 O.co2 216  GLU216     -0.2457
     66  OE2      -51.3010   26.2730  -54.9770 O.co2 216  GLU216     -0.2457
     67  N        -48.7200   22.1150  -51.4280 N.am  217  HIS217     -0.1973
     68  CA       -47.8730   20.9090  -51.4740 C.3   217  HIS217      0.1656
     69  C        -48.0050   19.9910  -50.2510 C.2   217  HIS217      0.2291
     70  O        -47.6050   18.8300  -50.3120 O.2   217  HIS217     -0.2864
     71  CB       -46.4020   21.2950  -51.6550 C.3   217  HIS217      0.0771
     72  CG       -46.1220   21.9990  -52.9450 C.ar  217  HIS217      0.0820
     73  ND1      -45.7270   23.3210  -53.0030 N.ar  217  HIS217     -0.2267
     74  CD2      -46.2070   21.5740  -54.2270 C.ar  217  HIS217      0.1154
     75  CE1      -45.5710   23.6750  -54.2660 C.ar  217  HIS217      0.1986
     76  NE2      -45.8540   22.6330  -55.0280 N.ar  217  HIS217     -0.2212
     77  N        -47.7660   24.7480  -41.2290 N.3   221  ARG221     -0.1245
     78  CA       -47.3460   25.8480  -40.3540 C.3   221  ARG221      0.1563
     79  C        -48.2690   25.9700  -39.1520 C.2   221  ARG221      0.2260
     80  O        -49.4600   25.7020  -39.2540 O.2   221  ARG221     -0.2867
     81  CB       -47.3630   27.1730  -41.1120 C.3   221  ARG221      0.0307
     82  CG       -46.3340   27.2660  -42.2180 C.3   221  ARG221      0.0489
     83  CD       -46.5510   28.5000  -43.0700 C.3   221  ARG221      0.2205
     84  NE       -45.6470   28.5100  -44.2220 N.pl3 221  ARG221     -0.0865
     85  CZ       -44.5100   29.2050  -44.3130 C.cat 221  ARG221      0.5346
     86  NH1      -44.0970   29.9970  -43.3250 N.pl3 221  ARG221      0.1354
     87  NH2      -43.7740   29.1110  -45.4130 N.pl3 221  ARG221      0.1354
@<TRIPOS>BOND
     1    17    16    1
     2    16    15    1
     3    76    75   ar
     4    76    74   ar
     5    66    64   ar
     6     1     2    1
     7    15    14    1
     8    65    64   ar
     9    64    63    1
    10    75    73   ar
    11    74    72   ar
    12     2     3    1
    13     2     5    1
    14     3    10   am
    15     3     4    2
    16    14    11    1
    17    10    11    1
    18    73    72   ar
    19     5     6    1
    20    63    62    1
    21    62    59    1
    22    72    71    1
    23    61    60    2
    24    11    12    1
    25     6     7    1
    26    60    59    1
    27    60    67   am
    28    49    47   am
    29    59    58    1
    30    71    68    1
    31    68    67    1
    32    68    69    1
    33     7     8    1
    34    47    48    2
    35    47    46    1
    36    12    13    2
    37    33    31    1
    38    46    43    1
    39    58    52   am
    40     8     9    1
    41    70    69    2
    42    31    32    1
    43    31    30    1
    44    45    44    2
    45    43    44    1
    46    43    42    1
    47    52    53    2
    48    52    51    1
    49    30    27    1
    50    42    36   am
    51    57    55   ar
    52    55    56   ar
    53    55    54    1
    54    54    51    1
    55    51    50    1
    56    29    28    2
    57    27    28    1
    58    27    26    1
    59    36    35    1
    60    36    37    2
    61    28    34   am
    62    34    35    1
    63    26    20   am
    64    35    38    1
    65    20    19    1
    66    20    21    2
    67    87    85    1
    68    40    39    1
    69    40    41    1
    70    38    39    1
    71    24    23   ar
    72    19    22    1
    73    19    18    1
    74    22    23    1
    75    85    84    2
    76    85    86    1
    77    23    25   ar
    78    84    83    1
    79    83    82    1
    80    82    81    1
    81    77    78    1
    82    81    78    1
    83    78    79    1
    84    80    79    2
