@<TRIPOS>MOLECULE
tmp/5uuuA00.pdb
 167 156 0 0 0
SMALL
GASTEIGER

@<TRIPOS>ATOM
      1  N        -60.9310   32.6120  -46.8360 N.3    86  ILE86      -0.1231
      2  CA       -60.2450   31.3310  -46.5880 C.3    86  ILE86       0.1692
      3  C        -60.1020   31.0260  -45.0940 C.2    86  ILE86       0.2593
      4  O        -59.2050   30.2780  -44.6940 O.2    86  ILE86      -0.2718
      5  CB       -58.8510   31.2840  -47.2800 C.3    86  ILE86       0.0266
      6  CG1      -57.8890   32.3400  -46.7020 C.3    86  ILE86       0.0019
      7  CG2      -58.9960   31.4700  -48.7900 C.3    86  ILE86       0.0020
      8  CD1      -56.4890   32.2780  -47.2820 C.3    86  ILE86       0.0001
      9  N        -60.9930   31.5890  -44.2770 N.am   87  GLY87      -0.1942
     10  CA       -60.9450   31.4080  -42.8190 C.3    87  GLY87       0.2014
     11  C        -61.9030   32.3380  -42.0940 C.2    87  GLY87       0.2639
     12  O        -62.1930   33.4250  -42.5870 O.2    87  GLY87      -0.2714
     13  N        -62.3920   31.9110  -40.9280 N.am   88  ARG88      -0.1963
     14  CA       -63.3220   32.7080  -40.1120 C.3    88  ARG88       0.1729
     15  C        -62.9850   32.6280  -38.6210 C.2    88  ARG88       0.2617
     16  O        -62.2950   31.7120  -38.1780 O.2    88  ARG88      -0.2715
     17  CB       -64.7600   32.2430  -40.3470 C.3    88  ARG88       0.0348
     18  CG       -65.3040   32.6260  -41.7120 C.3    88  ARG88       0.0492
     19  CD       -66.7190   32.1160  -41.9230 C.3    88  ARG88       0.2205
     20  NE       -67.3430   32.6960  -43.1190 N.pl3  88  ARG88      -0.0865
     21  CZ       -67.8460   33.9340  -43.2110 C.cat  88  ARG88       0.5346
     22  NH1      -67.8000   34.7820  -42.1800 N.pl3  88  ARG88       0.1354
     23  NH2      -68.3960   34.3390  -44.3560 N.pl3  88  ARG88       0.1354
     24  N        -63.4580   33.6130  -37.8630 N.am   89  GLY89      -0.1940
     25  CA       -63.3080   33.6250  -36.4050 C.3    89  GLY89       0.2014
     26  C        -64.2570   34.6020  -35.7230 C.2    89  GLY89       0.2639
     27  O        -65.0870   35.2470  -36.3720 O.2    89  GLY89      -0.2714
     28  N        -64.1200   34.7160  -34.4070 N.am   90  GLY90      -0.1939
     29  CA       -65.0250   35.5230  -33.5910 C.3    90  GLY90       0.2014
     30  C        -65.0670   37.0100  -33.9000 C.2    90  GLY90       0.2639
     31  O        -66.1350   37.6140  -33.8500 O.2    90  GLY90      -0.2714
     32  N        -63.9160   37.6070  -34.2010 N.am   91  PHE91      -0.1959
     33  CA       -63.8480   39.0500  -34.4780 C.3    91  PHE91       0.1771
     34  C        -63.8070   39.3960  -35.9710 C.2    91  PHE91       0.2620
     35  O        -63.9070   40.5710  -36.3260 O.2    91  PHE91      -0.2715
     36  CB       -62.6280   39.7000  -33.7970 C.3    91  PHE91       0.0574
     37  CG       -62.5200   39.4580  -32.3040 C.ar   91  PHE91      -0.0200
     38  CD1      -63.6310   39.1370  -31.5160 C.ar   91  PHE91      -0.0042
     39  CD2      -61.2820   39.6040  -31.6750 C.ar   91  PHE91      -0.0042
     40  CE1      -63.4890   38.9300  -30.1520 C.ar   91  PHE91      -0.0003
     41  CE2      -61.1360   39.3920  -30.3130 C.ar   91  PHE91      -0.0003
     42  CZ       -62.2410   39.0610  -29.5510 C.ar   91  PHE91      -0.0000
     43  N        -63.6510   38.4060  -36.8460 N.am   92  GLY92      -0.1940
     44  CA       -63.5160   38.7010  -38.2740 C.3    92  GLY92       0.2014
     45  C        -63.2270   37.4910  -39.1290 C.2    92  GLY92       0.2639
     46  O        -63.6220   36.3750  -38.7860 O.2    92  GLY92      -0.2714
     47  N        -62.5320   37.7150  -40.2430 N.am   93  GLU93      -0.1963
     48  CA       -62.2680   36.6570  -41.2290 C.3    93  GLU93       0.1733
     49  C        -60.9430   36.8620  -41.9690 C.2    93  GLU93       0.2616
     50  O        -60.3300   37.9160  -41.8620 O.2    93  GLU93      -0.2715
     51  CB       -63.4380   36.5480  -42.2130 C.3    93  GLU93       0.0429
     52  CG       -63.9130   37.8700  -42.8000 C.3    93  GLU93       0.1163
     53  CD       -64.8610   38.6630  -41.9080 C.2    93  GLU93       0.3649
     54  OE1      -65.7370   38.0590  -41.2590 O.co2  93  GLU93      -0.2457
     55  OE2      -64.7320   39.9070  -41.8640 O.co2  93  GLU93      -0.2457
     56  N        -60.5020   35.8300  -42.6870 N.am   94  VAL94      -0.1977
     57  CA       -59.2430   35.8560  -43.4440 C.3    94  VAL94       0.1596
     58  C        -59.5280   35.7270  -44.9370 C.2    94  VAL94       0.2287
     59  O        -60.3010   34.8650  -45.3490 O.2    94  VAL94      -0.2864
     60  CB       -58.3090   34.6940  -43.0510 C.3    94  VAL94       0.0276
     61  CG1      -56.8930   34.9500  -43.5570 C.3    94  VAL94       0.0022
     62  CG2      -58.2990   34.4920  -41.5470 C.3    94  VAL94       0.0022
     63  N        -52.1870   36.2250  -47.1250 N.3   107  ALA107     -0.1245
     64  CA       -53.4610   36.1040  -46.4230 C.3   107  ALA107      0.1562
     65  C        -53.7010   37.3880  -45.6440 C.2   107  ALA107      0.2260
     66  O        -52.8120   37.8420  -44.9260 O.2   107  ALA107     -0.2867
     67  CB       -53.4340   34.9140  -45.4800 C.3   107  ALA107      0.0290
     68  N        -55.8310   38.8570  -42.7010 N.3   109  LYS109     -0.1245
     69  CA       -56.6800   38.6340  -41.5420 C.3   109  LYS109      0.1561
     70  C        -57.3230   39.9600  -41.1390 C.2   109  LYS109      0.2260
     71  O        -56.6730   40.8060  -40.5310 O.2   109  LYS109     -0.2867
     72  CB       -55.8390   38.0700  -40.4080 C.3   109  LYS109      0.0271
     73  CG       -56.6190   37.5960  -39.1960 C.3   109  LYS109      0.0035
     74  CD       -55.8200   36.5490  -38.4310 C.3   109  LYS109      0.0206
     75  CE       -56.6010   35.9960  -37.2670 C.3   109  LYS109      0.1093
     76  NZ       -55.8860   34.8460  -36.6530 N.3   109  LYS109     -0.1314
     77  N        -59.9230   41.8560  -38.9400 N.3   111  LEU111     -0.1245
     78  CA       -60.7550   41.8700  -37.7310 C.3   111  LEU111      0.1561
     79  C        -61.5620   43.1560  -37.6840 C.2   111  LEU111      0.2260
     80  O        -61.0490   44.2300  -38.0090 O.2   111  LEU111     -0.2867
     81  CB       -59.9030   41.7750  -36.4690 C.3   111  LEU111      0.0270
     82  CG       -58.8250   40.6940  -36.4200 C.3   111  LEU111      0.0019
     83  CD1      -58.1980   40.6740  -35.0330 C.3   111  LEU111      0.0001
     84  CD2      -59.3960   39.3310  -36.7830 C.3   111  LEU111      0.0001
     85  N        -52.1260   39.4760  -30.4520 N.3   128  GLU128     -0.1245
     86  CA       -51.7310   38.7300  -31.6550 C.3   128  GLU128      0.1567
     87  C        -50.7120   39.5330  -32.4730 C.2   128  GLU128      0.2260
     88  O        -49.7400   38.9840  -32.9870 O.2   128  GLU128     -0.2867
     89  CB       -52.9400   38.3330  -32.5290 C.3   128  GLU128      0.0388
     90  CG       -52.6270   37.1630  -33.4670 C.3   128  GLU128      0.1160
     91  CD       -53.7490   36.7880  -34.4250 C.2   128  GLU128      0.3649
     92  OE1      -53.4710   36.0440  -35.4030 O.co2 128  GLU128     -0.2457
     93  OE2      -54.8950   37.2190  -34.2080 O.co2 128  GLU128     -0.2457
     94  N        -47.0680   30.5300  -39.5420 N.3   144  VAL144     -0.1245
     95  CA       -47.7130   31.5220  -40.4020 C.3   144  VAL144      0.1561
     96  C        -47.3520   32.8920  -39.8530 C.2   144  VAL144      0.2260
     97  O        -47.9260   33.3370  -38.8550 O.2   144  VAL144     -0.2867
     98  CB       -49.2490   31.3560  -40.4630 C.3   144  VAL144      0.0252
     99  CG1      -49.8890   32.4860  -41.2660 C.3   144  VAL144      0.0019
    100  CG2      -49.6060   30.0110  -41.0770 C.3   144  VAL144      0.0019
    101  N        -50.4620   38.1110  -43.6220 N.3   160  LEU160     -0.1231
    102  CA       -49.8110   36.8840  -43.1730 C.3   160  LEU160      0.1693
    103  C        -49.4350   36.0180  -44.3510 C.2   160  LEU160      0.2592
    104  O        -49.9380   36.2120  -45.4560 O.2   160  LEU160     -0.2718
    105  CB       -50.7470   36.0920  -42.2590 C.3   160  LEU160      0.0284
    106  CG       -51.3870   36.8360  -41.0910 C.3   160  LEU160      0.0019
    107  CD1      -52.3730   35.9180  -40.3950 C.3   160  LEU160      0.0001
    108  CD2      -50.3370   37.3400  -40.1150 C.3   160  LEU160      0.0001
    109  N        -48.5590   35.0460  -44.0970 N.am  161  ASP161     -0.1974
    110  CA       -48.2350   34.0100  -45.0790 C.3   161  ASP161      0.1709
    111  C        -49.5270   33.3230  -45.5650 C.2   161  ASP161      0.2293
    112  O        -50.3830   32.9630  -44.7490 O.2   161  ASP161     -0.2864
    113  CB       -47.2820   32.9630  -44.4740 C.3   161  ASP161      0.1436
    114  CG       -45.8710   33.4970  -44.2490 C.2   161  ASP161      0.3671
    115  OD1      -45.3110   34.1610  -45.1410 O.co2 161  ASP161     -0.2456
    116  OD2      -45.3000   33.2290  -43.1790 O.co2 161  ASP161     -0.2456
    117  N        -51.8530   30.4250  -46.8900 N.3   163  MET163     -0.1245
    118  CA       -51.9230   28.9790  -46.8030 C.3   163  MET163      0.1570
    119  C        -53.2520   28.5610  -47.3970 C.2   163  MET163      0.2261
    120  O        -54.3080   28.7960  -46.8020 O.2   163  MET163     -0.2867
    121  CB       -51.8050   28.5190  -45.3490 C.3   163  MET163      0.0387
    122  CG       -50.4620   28.8350  -44.7040 C.3   163  MET163      0.0595
    123  SD       -49.0810   27.9170  -45.4080 S.3   163  MET163     -0.1393
    124  CE       -49.1800   26.3850  -44.4950 C.3   163  MET163      0.0692
    125  N        -56.7730   23.2940  -42.9500 N.3   167  ASP167     -0.1239
    126  CA       -56.2040   22.8420  -41.6580 C.3   167  ASP167      0.1674
    127  C        -56.3560   21.3330  -41.3870 C.2   167  ASP167      0.2266
    128  O        -57.1500   20.6570  -42.0350 O.2   167  ASP167     -0.2867
    129  CB       -56.8040   23.6480  -40.5060 C.3   167  ASP167      0.1410
    130  CG       -58.2890   23.4850  -40.3970 C.2   167  ASP167      0.3668
    131  OD1      -58.7320   22.4090  -39.9730 O.co2 167  ASP167     -0.2456
    132  OD2      -59.0120   24.4320  -40.7480 O.co2 167  ASP167     -0.2456
    133  N        -56.6220   22.0430  -35.7410 N.3   210  ALA210     -0.1231
    134  CA       -57.2280   23.2090  -36.4200 C.3   210  ALA210      0.1694
    135  C        -56.2520   24.3780  -36.6750 C.2   210  ALA210      0.2592
    136  O        -56.4520   25.1690  -37.6010 O.2   210  ALA210     -0.2718
    137  CB       -58.4340   23.6970  -35.6360 C.3   210  ALA210      0.0304
    138  N        -55.2120   24.4850  -35.8490 N.am  211  ASN211     -0.1974
    139  CA       -54.1990   25.5370  -36.0000 C.3   211  ASN211      0.1688
    140  C        -52.9500   25.0670  -36.7450 C.2   211  ASN211      0.2292
    141  O        -51.9420   25.7520  -36.7350 O.2   211  ASN211     -0.2864
    142  CB       -53.8140   26.1010  -34.6200 C.3   211  ASN211      0.1181
    143  CG       -54.9110   26.9520  -34.0040 C.2   211  ASN211      0.2629
    144  OD1      -55.6350   27.6490  -34.7080 O.2   211  ASN211     -0.2716
    145  ND2      -55.0270   26.9080  -32.6800 N.am  211  ASN211     -0.0877
    146  N        -52.0310   24.5420  -40.4550 N.3   213  LEU213     -0.1245
    147  CA       -52.4850   24.7680  -41.8290 C.3   213  LEU213      0.1561
    148  C        -51.5370   24.1320  -42.8160 C.2   213  LEU213      0.2260
    149  O        -50.3670   23.9540  -42.5160 O.2   213  LEU213     -0.2867
    150  CB       -52.5510   26.2590  -42.1260 C.3   213  LEU213      0.0270
    151  CG       -53.3210   27.1380  -41.1450 C.3   213  LEU213      0.0019
    152  CD1      -53.4450   28.5390  -41.7310 C.3   213  LEU213      0.0001
    153  CD2      -54.6970   26.5650  -40.8220 C.3   213  LEU213      0.0001
    154  N        -50.4990   28.2010  -37.0100 N.3   223  SER223     -0.1202
    155  CA       -51.2660   29.4050  -37.3290 C.3   223  SER223      0.2020
    156  C        -52.0030   29.9250  -36.0960 C.2   223  SER223      0.2618
    157  O        -52.4020   29.1440  -35.2380 O.2   223  SER223     -0.2717
    158  CB       -52.2790   29.0960  -38.4280 C.3   223  SER223      0.2103
    159  OG       -53.2510   30.1250  -38.5610 O.3   223  SER223     -0.2182
    160  N        -52.1750   31.2480  -36.0410 N.am  224  ASP224     -0.1973
    161  CA       -53.0160   31.9360  -35.0500 C.3   224  ASP224      0.1709
    162  C        -52.3590   32.0200  -33.6690 C.2   224  ASP224      0.2293
    163  O        -52.4500   31.0910  -32.8670 O.2   224  ASP224     -0.2864
    164  CB       -54.4150   31.3020  -34.9630 C.3   224  ASP224      0.1436
    165  CG       -55.4370   32.2070  -34.2890 C.2   224  ASP224      0.3671
    166  OD1      -55.0420   33.2200  -33.6710 O.co2 224  ASP224     -0.2456
    167  OD2      -56.6470   31.8890  -34.3700 O.co2 224  ASP224     -0.2456
@<TRIPOS>BOND
     1     7     5    1
     2   119   118    1
     3   119   120    2
     4     8     6    1
     5     5     6    1
     6     5     2    1
     7    63    64    1
     8   117   118    1
     9     1     2    1
    10   118   121    1
    11     2     3    1
    12    64    65    1
    13    64    67    1
    14    65    66    2
    15   111   110    1
    16   111   112    2
    17   104   103    2
    18   123   122    1
    19   123   124    1
    20    59    58    2
    21   121   122    1
    22   115   114   ar
    23     3     4    2
    24     3     9   am
    25   110   113    1
    26   110   109    1
    27    58    57    1
    28   113   114    1
    29    23    21    1
    30   103   109   am
    31   103   102    1
    32     9    10    1
    33   114   116   ar
    34   101   102    1
    35    61    60    1
    36    57    60    1
    37    57    56    1
    38    21    20    2
    39    21    22    1
    40   102   105    1
    41    20    19    1
    42    60    62    1
    43   125   126    1
    44    10    11    1
    45   148   149    2
    46   148   147    1
    47    52    51    1
    48    52    53    1
    49    68    69    1
    50    56    49   am
    51    12    11    2
    52   105   106    1
    53    51    48    1
    54   150   147    1
    55   150   151    1
    56    11    13   am
    57   128   127    2
    58    49    50    2
    59    49    48    1
    60    19    18    1
    61    53    55   ar
    62    53    54   ar
    63   147   146    1
    64   152   151    1
    65    18    17    1
    66   126   127    1
    67   126   129    1
    68    69    70    1
    69    69    72    1
    70    99    98    1
    71    48    47    1
    72   151   153    1
    73    70    71    2
    74   106   107    1
    75   106   108    1
    76   100    98    1
    77    13    14    1
    78   132   130   ar
    79   129   130    1
    80    98    95    1
    81    72    73    1
    82    95    96    1
    83    95    94    1
    84   130   131   ar
    85    17    14    1
    86    47    45   am
    87    14    15    1
    88    96    97    2
    89    73    74    1
    90    45    46    2
    91    45    44    1
    92    77    78    1
    93    15    16    2
    94    15    24   am
    95   159   158    1
    96    74    75    1
    97   158   155    1
    98    44    43    1
    99    80    79    2
   100    24    25    1
   101    78    79    1
   102    78    81    1
   103   136   135    2
   104   155   154    1
   105   155   156    1
   106    75    76    1
   107    43    34   am
   108    84    82    1
   109   140   141    2
   110   140   139    1
   111   135   134    1
   112   135   138   am
   113    81    82    1
   114   134   133    1
   115   134   137    1
   116    82    83    1
   117    25    26    1
   118    27    26    2
   119    35    34    2
   120   156   160   am
   121   156   157    2
   122   160   161    1
   123   139   138    1
   124   139   142    1
   125    34    33    1
   126    26    28   am
   127    92    91   ar
   128   161   164    1
   129   161   162    1
   130   164   165    1
   131   144   143    2
   132   142   143    1
   133    33    32    1
   134    33    36    1
   135    91    93   ar
   136    91    90    1
   137    28    29    1
   138   167   165   ar
   139   165   166   ar
   140    32    30   am
   141   143   145   am
   142    30    31    2
   143    30    29    1
   144    36    37    1
   145   162   163    2
   146    90    89    1
   147    88    87    2
   148    89    86    1
   149    87    86    1
   150    37    39   ar
   151    37    38   ar
   152    39    41   ar
   153    86    85    1
   154    38    40   ar
   155    41    42   ar
   156    40    42   ar
