@<TRIPOS>MOLECULE
tmp/5uuvB01.pdb
 126 116 0 0 0
SMALL
GASTEIGER

@<TRIPOS>ATOM
      1  N         63.0750    4.2740   70.4850 N.3   104  VAL104     -0.1231
      2  CA        64.1240    3.2750   70.2900 C.3   104  VAL104      0.1692
      3  C         65.4290    4.0130   69.9910 C.2   104  VAL104      0.2592
      4  O         66.4480    3.4070   69.6390 O.2   104  VAL104     -0.2718
      5  CB        63.7270    2.2870   69.1710 C.3   104  VAL104      0.0266
      6  CG1       64.7420    1.1570   69.0060 C.3   104  VAL104      0.0020
      7  CG2       62.3600    1.7010   69.4600 C.3   104  VAL104      0.0020
      8  N         65.4140    5.3330   70.1730 N.am  105  THR105     -0.1953
      9  CA        66.5840    6.1790   69.9690 C.3   105  THR105      0.1897
     10  C         67.7370    5.8330   70.9090 C.2   105  THR105      0.2313
     11  O         67.6150    4.9610   71.7760 O.2   105  THR105     -0.2863
     12  CB        66.2040    7.6530   70.1280 C.3   105  THR105      0.1794
     13  OG1       65.6310    7.8640   71.4240 O.3   105  THR105     -0.2208
     14  CG2       65.2010    8.0580   69.0590 C.3   105  THR105      0.0378
     15  N         57.0950    2.9720   71.7030 N.3   126  ASP126     -0.1225
     16  CA        56.2580    3.1720   70.5250 C.3   126  ASP126      0.1805
     17  C         57.0430    3.8700   69.4190 C.2   126  ASP126      0.2598
     18  O         57.6730    4.9070   69.6530 O.2   126  ASP126     -0.2718
     19  CB        54.9870    3.9570   70.8650 C.3   126  ASP126      0.1424
     20  CG        55.2720    5.2930   71.5170 C.2   126  ASP126      0.3668
     21  OD1       56.3650    5.4550   72.1000 O.co2 126  ASP126     -0.2456
     22  OD2       54.3940    6.1810   71.4500 O.co2 126  ASP126     -0.2456
     23  N         57.0050    3.2930   68.2210 N.am  127  THR127     -0.1939
     24  CA        57.5930    3.8740   67.0220 C.3   127  THR127      0.2028
     25  C         56.5750    3.7930   65.8930 C.2   127  THR127      0.2642
     26  O         55.4630    3.2840   66.0640 O.2   127  THR127     -0.2714
     27  CB        58.8980    3.1730   66.6240 C.3   127  THR127      0.1808
     28  OG1       58.7030    1.7530   66.6170 O.3   127  THR127     -0.2208
     29  CG2       60.0090    3.5370   67.5880 C.3   127  THR127      0.0379
     30  N         56.9600    4.3100   64.7260 N.am  128  ALA128     -0.1963
     31  CA        56.0680    4.2570   63.5750 C.3   128  ALA128      0.1728
     32  C         55.8740    2.8290   63.0840 C.2   128  ALA128      0.2616
     33  O         54.7810    2.4770   62.6250 O.2   128  ALA128     -0.2715
     34  CB        56.6090    5.1390   62.4500 C.3   128  ALA128      0.0334
     35  N         56.9080    1.9970   63.1720 N.am  129  HIS129     -0.1973
     36  CA        56.8470    0.6140   62.7070 C.3   129  HIS129      0.1656
     37  C         57.3860   -0.2690   63.8300 C.2   129  HIS129      0.2291
     38  O         58.6020   -0.4010   63.9980 O.2   129  HIS129     -0.2864
     39  CB        57.6360    0.4350   61.4130 C.3   129  HIS129      0.0771
     40  CG        57.4110   -0.8830   60.7430 C.ar  129  HIS129      0.0820
     41  ND1       56.2200   -1.5700   60.8340 N.ar  129  HIS129     -0.2267
     42  CD2       58.2170   -1.6310   59.9520 C.ar  129  HIS129      0.1154
     43  CE1       56.3050   -2.6900   60.1390 C.ar  129  HIS129      0.1986
     44  NE2       57.5060   -2.7500   59.5920 N.ar  129  HIS129     -0.2212
     45  N         59.8350   -3.4880   63.3020 N.3   132  SER132     -0.1217
     46  CA        61.2070   -3.2820   62.8660 C.3   132  SER132      0.1889
     47  C         62.1680   -4.1230   63.6970 C.2   132  SER132      0.2288
     48  O         61.9110   -4.4320   64.8640 O.2   132  SER132     -0.2866
     49  CB        61.5820   -1.8030   62.9700 C.3   132  SER132      0.2089
     50  OG        62.9280   -1.5900   62.5850 O.3   132  SER132     -0.2183
     51  N         65.1210   -3.1450   64.6880 N.3   134  GLY134     -0.1210
     52  CA        65.6740   -2.2990   65.7310 C.3   134  GLY134      0.1956
     53  C         64.7750   -2.1830   66.9450 C.2   134  GLY134      0.2611
     54  O         65.2600   -2.0850   68.0750 O.2   134  GLY134     -0.2717
     55  N         63.4580   -2.1920   66.7350 N.am  135  VAL135     -0.1979
     56  CA        62.5270   -2.1250   67.8570 C.3   135  VAL135      0.1595
     57  C         62.5320   -3.4360   68.6350 C.2   135  VAL135      0.2287
     58  O         62.5100   -3.4390   69.8720 O.2   135  VAL135     -0.2864
     59  CB        61.1150   -1.7640   67.3600 C.3   135  VAL135      0.0276
     60  CG1       60.1450   -1.6830   68.5280 C.3   135  VAL135      0.0022
     61  CG2       61.1460   -0.4490   66.5980 C.3   135  VAL135      0.0022
     62  N         54.1490    0.5250   67.3340 N.3   155  ASN155     -0.1240
     63  CA        52.7940    0.0570   67.0590 C.3   155  ASN155      0.1653
     64  C         52.8130   -1.0340   65.9970 C.2   155  ASN155      0.2266
     65  O         53.6800   -1.0410   65.1250 O.2   155  ASN155     -0.2867
     66  CB        51.9050    1.2160   66.6080 C.3   155  ASN155      0.1155
     67  CG        51.6290    2.2060   67.7200 C.2   155  ASN155      0.2627
     68  OD1       51.8180    1.9010   68.8970 O.2   155  ASN155     -0.2716
     69  ND2       51.1750    3.3980   67.3530 N.am  155  ASN155     -0.0877
     70  N         47.0080   11.6490   61.7440 N.3   183  CYS183     -0.1235
     71  CA        47.9530   10.8150   61.0170 C.3   183  CYS183      0.1677
     72  C         47.7720   10.9720   59.5130 C.2   183  CYS183      0.2270
     73  O         46.6470   11.0830   59.0180 O.2   183  CYS183     -0.2867
     74  CB        47.7740    9.3500   61.4180 C.3   183  CYS183      0.0956
     75  SG        48.7330    8.1810   60.4420 S.3   183  CYS183     -0.0801
     76  N         50.0270    8.8700   57.5140 N.3   185  THR185     -0.1218
     77  CA        50.8660    7.7730   57.0370 C.3   185  THR185      0.1862
     78  C         50.2540    7.0840   55.8230 C.2   185  THR185      0.2287
     79  O         50.9580    6.7680   54.8570 O.2   185  THR185     -0.2866
     80  CB        51.0850    6.7620   58.1630 C.3   185  THR185      0.1770
     81  OG1       51.6730    7.4190   59.2930 O.3   185  THR185     -0.2211
     82  CG2       51.9990    5.6340   57.7050 C.3   185  THR185      0.0375
     83  N         52.7130   13.7140   66.4110 N.3   266  MET266     -0.1230
     84  CA        54.1290   13.5260   66.7030 C.3   266  MET266      0.1702
     85  C         54.9840   13.4740   65.4440 C.2   266  MET266      0.2592
     86  O         56.1920   13.7240   65.5220 O.2   266  MET266     -0.2718
     87  CB        54.3310   12.2560   67.5280 C.3   266  MET266      0.0401
     88  CG        53.7820   12.3320   68.9480 C.3   266  MET266      0.0596
     89  SD        54.7770   13.3750   70.0420 S.3   266  MET266     -0.1393
     90  CE        53.9600   14.9550   69.8690 C.3   266  MET266      0.0692
     91  N         54.3930   13.1560   64.2970 N.am  267  GLY267     -0.1957
     92  CA        55.0780   13.1780   63.0240 C.3   267  GLY267      0.1869
     93  C         54.9290   14.4560   62.2360 C.2   267  GLY267      0.2309
     94  O         55.4610   14.5510   61.1260 O.2   267  GLY267     -0.2863
     95  N         58.5630   17.9340   65.6310 N.3   272  MET272     -0.1245
     96  CA        59.9650   17.5910   65.4540 C.3   272  MET272      0.1570
     97  C         60.8890   18.7980   65.5190 C.2   272  MET272      0.2261
     98  O         62.0740   18.6520   65.7900 O.2   272  MET272     -0.2867
     99  CB        60.1770   16.8440   64.1400 C.3   272  MET272      0.0387
    100  CG        59.0260   15.9380   63.7560 C.3   272  MET272      0.0595
    101  SD        59.5300   14.4710   62.8440 S.3   272  MET272     -0.1393
    102  CE        58.9520   14.8770   61.2010 C.3   272  MET272      0.0692
    103  N         62.3900   11.7690   57.5640 N.3   275  LEU275     -0.1231
    104  CA        62.5710   13.0660   56.9220 C.3   275  LEU275      0.1693
    105  C         61.2290   13.6870   56.5430 C.2   275  LEU275      0.2591
    106  O         60.9120   14.8050   56.9500 O.2   275  LEU275     -0.2718
    107  CB        63.4570   12.9330   55.6810 C.3   275  LEU275      0.0284
    108  CG        64.9190   12.5410   55.9050 C.3   275  LEU275      0.0019
    109  CD1       65.6330   12.3610   54.5740 C.3   275  LEU275      0.0001
    110  CD2       65.6310   13.5780   56.7620 C.3   275  LEU275      0.0001
    111  N         60.4480   12.9570   55.7580 N.am  276  VAL276     -0.1980
    112  CA        59.1360   13.4430   55.3260 C.3   276  VAL276      0.1595
    113  C         58.1610   13.3260   56.4960 C.2   276  VAL276      0.2287
    114  O         58.1450   12.2880   57.1770 O.2   276  VAL276     -0.2864
    115  CB        58.6490   12.6550   54.1080 C.3   276  VAL276      0.0276
    116  CG1       58.6260   11.1590   54.3970 C.3   276  VAL276      0.0022
    117  CG2       57.2790   13.1420   53.6480 C.3   276  VAL276      0.0022
    118  N         54.7590   12.7900   58.7750 N.3   278  GLU278     -0.1245
    119  CA        53.6270   11.8720   58.7210 C.3   278  GLU278      0.1567
    120  C         52.5160   12.3020   59.6720 C.2   278  GLU278      0.2260
    121  O         51.7250   11.4730   60.1290 O.2   278  GLU278     -0.2867
    122  CB        54.0750   10.4390   59.0110 C.3   278  GLU278      0.0388
    123  CG        55.0170    9.8820   57.9510 C.3   278  GLU278      0.1160
    124  CD        55.3550    8.4190   58.1640 C.2   278  GLU278      0.3649
    125  OE1       56.3650    7.9550   57.5930 O.co2 278  GLU278     -0.2457
    126  OE2       54.6150    7.7330   58.8980 O.co2 278  GLU278     -0.2457
@<TRIPOS>BOND
     1   117   115    1
     2   115   116    1
     3   115   112    1
     4   109   108    1
     5    79    78    2
     6   112   111    1
     7   112   113    1
     8   107   108    1
     9   107   104    1
    10   111   105   am
    11    78    77    1
    12   108   110    1
    13   113   114    2
    14   105   104    1
    15   105   106    2
    16   104   103    1
    17    77    76    1
    18    77    80    1
    19   125   124   ar
    20    82    80    1
    21   123   124    1
    22   123   122    1
    23    80    81    1
    24   124   126   ar
    25   119   118    1
    26   119   122    1
    27   119   120    1
    28    73    72    2
    29    72    71    1
    30    44    42   ar
    31    44    43   ar
    32   120   121    2
    33    42    40   ar
    34    43    41   ar
    35    75    74    1
    36    40    41   ar
    37    40    39    1
    38    71    74    1
    39    71    70    1
    40    94    93    2
    41   102   101    1
    42    39    36    1
    43    93    92    1
    44    34    31    1
    45    50    49    1
    46    33    32    2
    47    36    35    1
    48    36    37    1
    49   101   100    1
    50    46    49    1
    51    46    45    1
    52    46    47    1
    53    92    91    1
    54    32    35   am
    55    32    31    1
    56    31    30    1
    57    47    48    2
    58   100    99    1
    59    37    38    2
    60    99    96    1
    61    91    85   am
    62    51    52    1
    63    30    25   am
    64    65    64    2
    65    85    86    2
    66    85    84    1
    67    96    97    1
    68    96    95    1
    69    97    98    2
    70    52    53    1
    71    25    26    2
    72    25    24    1
    73    64    63    1
    74    83    84    1
    75    61    59    1
    76    66    63    1
    77    66    67    1
    78    28    27    1
    79    27    24    1
    80    27    29    1
    81    84    87    1
    82    55    53   am
    83    55    56    1
    84    53    54    2
    85    24    23    1
    86    63    62    1
    87    69    67   am
    88    59    56    1
    89    59    60    1
    90    87    88    1
    91    67    68    2
    92    56    57    1
    93    23    17   am
    94    57    58    2
    95    88    89    1
    96     6     5    1
    97    14    12    1
    98     5     7    1
    99     5     2    1
   100    17    18    2
   101    17    16    1
   102     4     3    2
   103    90    89    1
   104     9    12    1
   105     9     8    1
   106     9    10    1
   107     3     8   am
   108     3     2    1
   109    12    13    1
   110     2     1    1
   111    16    19    1
   112    16    15    1
   113    19    20    1
   114    10    11    2
   115    22    20   ar
   116    20    21   ar
