@<TRIPOS>MOLECULE
tmp/5uuzB01.pdb
 93 86 0 0 0
SMALL
GASTEIGER

@<TRIPOS>ATOM
      1  N         25.4660   22.9480   11.3570 N.3   126  ASP126     -0.1225
      2  CA        24.1730   22.3050   11.1860 C.3   126  ASP126      0.1805
      3  C         23.0990   23.3800   11.0840 C.2   126  ASP126      0.2598
      4  O         22.9880   24.2410   11.9640 O.2   126  ASP126     -0.2718
      5  CB        23.8980   21.3560   12.3520 C.3   126  ASP126      0.1424
      6  CG        22.7600   20.3950   12.0710 C.2   126  ASP126      0.3668
      7  OD1       22.0970   20.5360   11.0230 O.co2 126  ASP126     -0.2456
      8  OD2       22.5330   19.4890   12.9000 O.co2 126  ASP126     -0.2456
      9  N         22.3230   23.3350   10.0040 N.am  127  THR127     -0.1939
     10  CA        21.2220   24.2590    9.7940 C.3   127  THR127      0.2028
     11  C         20.0410   23.5050    9.2050 C.2   127  THR127      0.2642
     12  O         20.1900   22.4200    8.6390 O.2   127  THR127     -0.2714
     13  CB        21.6170   25.4090    8.8680 C.3   127  THR127      0.1808
     14  OG1       20.4750   26.2370    8.6130 O.3   127  THR127     -0.2208
     15  CG2       22.1230   24.8530    7.5670 C.3   127  THR127      0.0379
     16  N         18.8560   24.0970    9.3580 N.am  128  ALA128     -0.1963
     17  CA        17.6540   23.5030    8.7890 C.3   128  ALA128      0.1728
     18  C         17.7640   23.3760    7.2760 C.2   128  ALA128      0.2616
     19  O         17.2780   22.4030    6.6900 O.2   128  ALA128     -0.2715
     20  CB        16.4330   24.3400    9.1670 C.3   128  ALA128      0.0334
     21  N         18.4040   24.3450    6.6260 N.am  129  HIS129     -0.1973
     22  CA        18.5590   24.3610    5.1730 C.3   129  HIS129      0.1656
     23  C         20.0240   24.6530    4.8620 C.2   129  HIS129      0.2291
     24  O         20.4670   25.8020    4.9560 O.2   129  HIS129     -0.2864
     25  CB        17.6430   25.3940    4.5280 C.3   129  HIS129      0.0771
     26  CG        17.5650   25.2800    3.0400 C.ar  129  HIS129      0.0820
     27  ND1       17.9010   24.1260    2.3640 N.ar  129  HIS129     -0.2267
     28  CD2       17.2050   26.1790    2.0930 C.ar  129  HIS129      0.1154
     29  CE1       17.7380   24.3150    1.0660 C.ar  129  HIS129      0.1986
     30  NE2       17.3190   25.5540    0.8750 N.ar  129  HIS129     -0.2212
     31  N         21.5520   27.3170    1.7420 N.3   132  SER132     -0.1217
     32  CA        21.4020   28.7640    1.7530 C.3   132  SER132      0.1889
     33  C         22.7810   29.4050    1.6890 C.2   132  SER132      0.2288
     34  O         23.7590   28.8640    2.2130 O.2   132  SER132     -0.2866
     35  CB        20.6660   29.2490    3.0010 C.3   132  SER132      0.2089
     36  OG        21.5210   29.2220    4.1290 O.3   132  SER132     -0.2183
     37  N         10.8670   14.6810   13.5960 N.3   183  CYS183     -0.1235
     38  CA        10.8760   15.7980   12.6640 C.3   183  CYS183      0.1677
     39  C          9.5190   15.9620   11.9900 C.2   183  CYS183      0.2270
     40  O          8.8900   14.9800   11.5860 O.2   183  CYS183     -0.2867
     41  CB        11.9650   15.6010   11.6080 C.3   183  CYS183      0.0956
     42  SG        11.8650   16.7340   10.2240 S.3   183  CYS183     -0.0801
     43  N          9.3530   18.6630    9.5710 N.3   185  THR185     -0.1218
     44  CA         9.6800   19.5690    8.4720 C.3   185  THR185      0.1862
     45  C          8.8570   19.2620    7.2230 C.2   185  THR185      0.2287
     46  O          8.2760   20.1660    6.6140 O.2   185  THR185     -0.2866
     47  CB        11.1770   19.4870    8.1650 C.3   185  THR185      0.1770
     48  OG1       11.9190   20.0440    9.2570 O.3   185  THR185     -0.2211
     49  CG2       11.5060   20.2370    6.8860 C.3   185  THR185      0.0375
     50  N         15.2550   19.3660   18.0930 N.3   266  MET266     -0.1230
     51  CA        15.8250   20.6760   18.3880 C.3   266  MET266      0.1702
     52  C         15.0000   21.8180   17.8160 C.2   266  MET266      0.2592
     53  O         15.1870   22.9620   18.2390 O.2   266  MET266     -0.2718
     54  CB        17.2670   20.7600   17.8800 C.3   266  MET266      0.0401
     55  CG        18.2520   19.8500   18.6230 C.3   266  MET266      0.0596
     56  SD        18.6110   20.3560   20.3230 S.3   266  MET266     -0.1393
     57  CE        19.7330   21.7300   20.0500 C.3   266  MET266      0.0692
     58  N         14.0780   21.5390   16.9010 N.am  267  GLY267     -0.1957
     59  CA        13.1430   22.5250   16.4030 C.3   267  GLY267      0.1869
     60  C         11.7890   22.4990   17.0730 C.2   267  GLY267      0.2309
     61  O         10.8490   23.1180   16.5640 O.2   267  GLY267     -0.2863
     62  N         13.4060   25.0330   21.7740 N.3   272  MET272     -0.1245
     63  CA        13.7670   26.3740   21.3350 C.3   272  MET272      0.1570
     64  C         13.7210   27.3970   22.4620 C.2   272  MET272      0.2261
     65  O         14.3970   28.4270   22.3660 O.2   272  MET272     -0.2867
     66  CB        12.8600   26.8040   20.1790 C.3   272  MET272      0.0387
     67  CG        13.0550   25.9540   18.9330 C.3   272  MET272      0.0595
     68  SD        11.8770   26.2790   17.6090 S.3   272  MET272     -0.1393
     69  CE        12.2190   28.0080   17.2660 C.3   272  MET272      0.0692
     70  N          7.1420   31.5170   17.3120 N.3   276  LEU276     -0.1231
     71  CA         7.8260   30.8600   16.2080 C.3   276  LEU276      0.1693
     72  C          7.1480   29.5340   15.8660 C.2   276  LEU276      0.2591
     73  O          6.4030   28.9610   16.6680 O.2   276  LEU276     -0.2718
     74  CB         9.3050   30.6410   16.5440 C.3   276  LEU276      0.0284
     75  CG        10.2130   31.8660   16.3820 C.3   276  LEU276      0.0019
     76  CD1       11.2890   31.9000   17.4570 C.3   276  LEU276      0.0001
     77  CD2       10.8390   31.8770   14.9970 C.3   276  LEU276      0.0001
     78  N          7.4110   29.0560   14.6530 N.am  277  VAL277     -0.1980
     79  CA         6.7660   27.8600   14.1150 C.3   277  VAL277      0.1595
     80  C          7.7350   26.6900   14.2510 C.2   277  VAL277      0.2287
     81  O          8.7890   26.6980   13.5970 O.2   277  VAL277     -0.2864
     82  CB         6.3520   28.0620   12.6500 C.3   277  VAL277      0.0276
     83  CG1        6.0240   26.7360   11.9950 C.3   277  VAL277      0.0022
     84  CG2        5.1630   29.0010   12.5650 C.3   277  VAL277      0.0022
     85  N          9.5000   22.8890   13.9050 N.3   279  GLU279     -0.1245
     86  CA         9.6730   21.8220   12.9230 C.3   279  GLU279      0.1567
     87  C         10.0050   20.4940   13.5980 C.2   279  GLU279      0.2260
     88  O         10.6100   19.6090   12.9770 O.2   279  GLU279     -0.2867
     89  CB        10.7510   22.1830   11.9000 C.3   279  GLU279      0.0388
     90  CG        10.3940   23.3410   10.9950 C.3   279  GLU279      0.1160
     91  CD        11.3550   23.4770    9.8330 C.2   279  GLU279      0.3649
     92  OE1       11.2900   24.5000    9.1230 O.co2 279  GLU279     -0.2457
     93  OE2       12.1740   22.5570    9.6250 O.co2 279  GLU279     -0.2457
@<TRIPOS>BOND
     1    30    29   ar
     2    30    28   ar
     3    29    27   ar
     4    33    32    1
     5    33    34    2
     6    31    32    1
     7    32    35    1
     8    28    26   ar
     9    27    26   ar
    10    35    36    1
    11    26    25    1
    12    25    22    1
    13    23    24    2
    14    23    22    1
    15    22    21    1
    16    46    45    2
    17    21    18   am
    18    19    18    2
    19    49    47    1
    20    45    44    1
    21    18    17    1
    22    15    13    1
    23    47    44    1
    24    47    48    1
    25    44    43    1
    26    14    13    1
    27    12    11    2
    28    17    20    1
    29    17    16    1
    30    13    10    1
    31    92    91   ar
    32    11    16   am
    33    11    10    1
    34    93    91   ar
    35    10     9    1
    36    91    90    1
    37     9     3   am
    38    42    41    1
    39    90    89    1
    40     7     6   ar
    41     3     2    1
    42     3     4    2
    43     2     1    1
    44     2     5    1
    45    40    39    2
    46    41    38    1
    47    89    86    1
    48    39    38    1
    49    83    82    1
    50     6     5    1
    51     6     8   ar
    52    84    82    1
    53    82    79    1
    54    38    37    1
    55    86    87    1
    56    86    85    1
    57    88    87    2
    58    81    80    2
    59    79    80    1
    60    79    78    1
    61    78    72   am
    62    77    75    1
    63    72    71    1
    64    72    73    2
    65    71    74    1
    66    71    70    1
    67    75    74    1
    68    75    76    1
    69    59    58    1
    70    59    60    1
    71    61    60    2
    72    58    52   am
    73    69    68    1
    74    68    67    1
    75    52    53    2
    76    52    51    1
    77    54    51    1
    78    54    55    1
    79    50    51    1
    80    55    56    1
    81    67    66    1
    82    57    56    1
    83    66    63    1
    84    63    62    1
    85    63    64    1
    86    65    64    2
