@<TRIPOS>MOLECULE
tmp/5uv2A00.pdb
 158 149 0 0 0
SMALL
GASTEIGER

@<TRIPOS>ATOM
      1  N         -3.7250   20.5520  -13.9880 N.3   248  TRP248     -0.1241
      2  CA        -5.1320   20.3290  -13.6420 C.3   248  TRP248      0.1605
      3  C         -5.3720   20.4860  -12.1370 C.2   248  TRP248      0.2264
      4  O         -6.3210   21.1530  -11.7080 O.2   248  TRP248     -0.2867
      5  CB        -5.5650   18.9370  -14.1020 C.3   248  TRP248      0.0550
      6  CG        -5.8570   18.8670  -15.5720 C.ar  248  TRP248      0.0003
      7  CD1       -4.9570   18.6710  -16.5860 C.ar  248  TRP248      0.0946
      8  CD2       -7.1450   19.0130  -16.1970 C.ar  248  TRP248      0.0152
      9  NE1       -5.6080   18.6800  -17.7980 N.ar  248  TRP248     -0.2442
     10  CE2       -6.9490   18.8790  -17.5910 C.ar  248  TRP248      0.0810
     11  CE3       -8.4420   19.2020  -15.7120 C.ar  248  TRP248      0.0012
     12  CZ2       -8.0070   18.9270  -18.5060 C.ar  248  TRP248      0.0191
     13  CZ3       -9.5020   19.2600  -16.6290 C.ar  248  TRP248      0.0001
     14  CH2       -9.2720   19.1190  -18.0060 C.ar  248  TRP248      0.0015
     15  N         -4.5310   11.6340  -11.3720 N.3   269  ILE269     -0.1245
     16  CA        -4.6980   11.9680  -12.7820 C.3   269  ILE269      0.1561
     17  C         -3.6410   11.2660  -13.6340 C.2   269  ILE269      0.2260
     18  O         -3.9430   10.7650  -14.7240 O.2   269  ILE269     -0.2867
     19  CB        -4.6670   13.5020  -12.9580 C.3   269  ILE269      0.0252
     20  CG1       -5.9370   14.1380  -12.3730 C.3   269  ILE269      0.0019
     21  CG2       -4.4850   13.8890  -14.4230 C.3   269  ILE269      0.0019
     22  CD1       -5.8550   15.6950  -12.2550 C.3   269  ILE269      0.0001
     23  N         -4.9200    7.7580  -13.8210 N.3   272  ILE272     -0.1231
     24  CA        -6.0740    7.7330  -14.7150 C.3   272  ILE272      0.1692
     25  C         -5.6230    7.7450  -16.1670 C.2   272  ILE272      0.2592
     26  O         -6.1220    6.9790  -16.9990 O.2   272  ILE272     -0.2718
     27  CB        -7.0040    8.9180  -14.4160 C.3   272  ILE272      0.0266
     28  CG1       -7.8010    8.6480  -13.1420 C.3   272  ILE272      0.0019
     29  CG2       -7.9210    9.1390  -15.5860 C.3   272  ILE272      0.0020
     30  CD1       -8.2850    9.9090  -12.4610 C.3   272  ILE272      0.0001
     31  N         -4.6570    8.6000  -16.4830 N.am  273  THR273     -0.1953
     32  CA        -4.1400    8.6910  -17.8410 C.3   273  THR273      0.1897
     33  C         -3.6400    7.3390  -18.3410 C.2   273  THR273      0.2313
     34  O         -3.9040    6.9600  -19.4890 O.2   273  THR273     -0.2863
     35  CB        -3.0150    9.7280  -17.8860 C.3   273  THR273      0.1794
     36  OG1       -3.5570   11.0120  -17.5690 O.3   273  THR273     -0.2208
     37  CG2       -2.4090    9.7810  -19.2610 C.3   273  THR273      0.0378
     38  N         -6.6840    4.7780  -18.5490 N.3   276  ASP276     -0.1225
     39  CA        -7.5250    5.1270  -19.6880 C.3   276  ASP276      0.1805
     40  C         -6.8970    4.6670  -21.0030 C.2   276  ASP276      0.2597
     41  O         -7.5870    4.1040  -21.8640 O.2   276  ASP276     -0.2718
     42  CB        -7.7620    6.6360  -19.7050 C.3   276  ASP276      0.1424
     43  CG        -8.6790    7.0650  -20.8270 C.2   276  ASP276      0.3668
     44  OD1       -9.8970    6.7900  -20.7460 O.co2 276  ASP276     -0.2456
     45  OD2       -8.1900    7.6950  -21.7730 O.co2 276  ASP276     -0.2456
     46  N         -5.5860    4.8760  -21.1680 N.am  277  ASP277     -0.1974
     47  CA        -4.8950    4.3300  -22.3350 C.3   277  ASP277      0.1709
     48  C         -5.0410    2.8190  -22.4140 C.2   277  ASP277      0.2293
     49  O         -5.1290    2.2540  -23.5080 O.2   277  ASP277     -0.2864
     50  CB        -3.4140    4.7130  -22.3200 C.3   277  ASP277      0.1436
     51  CG        -3.1780    6.1400  -22.8090 C.2   277  ASP277      0.3671
     52  OD1       -4.1220    6.7400  -23.3870 O.co2 277  ASP277     -0.2456
     53  OD2       -2.0530    6.6530  -22.6290 O.co2 277  ASP277     -0.2456
     54  N         -8.9150    2.1930  -23.6330 N.3   280  ASP280     -0.1239
     55  CA        -9.3960    2.5270  -24.9670 C.3   280  ASP280      0.1674
     56  C         -8.3030    2.4640  -26.0320 C.2   280  ASP280      0.2266
     57  O         -8.5470    2.8720  -27.1720 O.2   280  ASP280     -0.2867
     58  CB       -10.1590    3.8750  -24.9690 C.3   280  ASP280      0.1410
     59  CG        -9.2970    5.0890  -24.6590 C.2   280  ASP280      0.3668
     60  OD1       -8.0950    5.1080  -25.0080 O.co2 280  ASP280     -0.2456
     61  OD2       -9.8590    6.0590  -24.0760 O.co2 280  ASP280     -0.2456
     62  N        -15.4660    3.0920  -17.9880 N.3   352  TYR352     -0.1241
     63  CA       -14.5320    2.7870  -19.0690 C.3   352  TYR352      0.1605
     64  C        -14.8970    1.4770  -19.7450 C.2   352  TYR352      0.2264
     65  O        -14.7630    1.3420  -20.9650 O.2   352  TYR352     -0.2867
     66  CB       -13.0900    2.6830  -18.5440 C.3   352  TYR352      0.0534
     67  CG       -12.3510    3.9760  -18.2500 C.ar  352  TYR352     -0.0201
     68  CD1      -12.8270    5.2130  -18.6900 C.ar  352  TYR352     -0.0009
     69  CD2      -11.1450    3.9510  -17.5360 C.ar  352  TYR352     -0.0009
     70  CE1      -12.1280    6.3790  -18.4260 C.ar  352  TYR352      0.0417
     71  CE2      -10.4450    5.1030  -17.2710 C.ar  352  TYR352      0.0417
     72  CZ       -10.9360    6.3140  -17.7170 C.ar  352  TYR352      0.1957
     73  OH       -10.2240    7.4560  -17.4300 O.3   352  TYR352     -0.2866
     74  N        -17.7590    1.8040  -22.2220 N.3   355  GLU355     -0.1245
     75  CA       -17.3340    2.3900  -23.4880 C.3   355  GLU355      0.1567
     76  C        -16.5660    1.3940  -24.3390 C.2   355  GLU355      0.2260
     77  O        -16.6480    1.4490  -25.5680 O.2   355  GLU355     -0.2867
     78  CB       -16.4780    3.6460  -23.2540 C.3   355  GLU355      0.0388
     79  CG       -17.2410    4.8520  -22.6950 C.3   355  GLU355      0.1160
     80  CD       -16.3470    6.0530  -22.4320 C.2   355  GLU355      0.3649
     81  OE1      -15.1120    5.8750  -22.4220 O.co2 355  GLU355     -0.2457
     82  OE2      -16.8660    7.1800  -22.2290 O.co2 355  GLU355     -0.2457
     83  N        -17.1200    8.6200  -16.9750 N.3   377  SER377     -0.1202
     84  CA       -15.8470    8.2440  -17.5620 C.3   377  SER377      0.2020
     85  C        -14.9210    9.4350  -17.7490 C.2   377  SER377      0.2619
     86  O        -13.7110    9.2290  -17.8790 O.2   377  SER377     -0.2717
     87  CB       -16.0590    7.5410  -18.9060 C.3   377  SER377      0.2103
     88  OG       -16.6090    8.4250  -19.8700 O.3   377  SER377     -0.2182
     89  N        -15.4490   10.6690  -17.7770 N.am  378  ILE378     -0.1965
     90  CA       -14.5710   11.8360  -17.8540 C.3   378  ILE378      0.1727
     91  C        -13.8840   12.1230  -16.5180 C.2   378  ILE378      0.2616
     92  O        -12.9780   12.9590  -16.4820 O.2   378  ILE378     -0.2715
     93  CB       -15.3550   13.0560  -18.3930 C.3   378  ILE378      0.0290
     94  CG1      -14.4080   14.2050  -18.8140 C.3   378  ILE378      0.0022
     95  CG2      -16.3830   13.5890  -17.3520 C.3   378  ILE378      0.0023
     96  CD1      -13.3150   13.8030  -19.7920 C.3   378  ILE378      0.0001
     97  N        -14.2860   11.4280  -15.4350 N.am  379  THR379     -0.1951
     98  CA       -13.7230   11.3580  -14.0740 C.3   379  THR379      0.1897
     99  C        -14.3030   12.4070  -13.1180 C.2   379  THR379      0.2313
    100  O        -13.8490   12.5090  -11.9700 O.2   379  THR379     -0.2863
    101  CB       -12.1800   11.4690  -14.0360 C.3   379  THR379      0.1794
    102  OG1      -11.7700   12.8280  -14.2610 O.3   379  THR379     -0.2208
    103  CG2      -11.5060   10.5310  -15.0580 C.3   379  THR379      0.0378
    104  N        -13.0540   12.7550   -9.3730 N.3   383  ILE383     -0.1245
    105  CA       -12.1910   13.8850   -9.0250 C.3   383  ILE383      0.1561
    106  C        -12.7780   14.7250   -7.8900 C.2   383  ILE383      0.2260
    107  O        -12.0350   15.2280   -7.0430 O.2   383  ILE383     -0.2867
    108  CB       -11.9050   14.7420  -10.2680 C.3   383  ILE383      0.0252
    109  CG1      -11.0560   13.9590  -11.2810 C.3   383  ILE383      0.0019
    110  CG2      -11.1870   16.0350   -9.8740 C.3   383  ILE383      0.0019
    111  CD1       -9.5980   13.7230  -10.8270 C.3   383  ILE383      0.0001
    112  N        -17.9920   18.9520  -18.4990 N.3   417  PHE417     -0.1227
    113  CA       -16.6270   18.4350  -18.6070 C.3   417  PHE417      0.1736
    114  C        -16.5070   17.4620  -19.7760 C.2   417  PHE417      0.2595
    115  O        -15.6580   17.6330  -20.6610 O.2   417  PHE417     -0.2718
    116  CB       -16.2690   17.7770  -17.2650 C.3   417  PHE417      0.0547
    117  CG       -14.8190   17.3540  -17.1050 C.ar  417  PHE417     -0.0202
    118  CD1      -13.8400   17.7140  -18.0260 C.ar  417  PHE417     -0.0042
    119  CD2      -14.4440   16.5800  -15.9990 C.ar  417  PHE417     -0.0042
    120  CE1      -12.5080   17.2980  -17.8660 C.ar  417  PHE417     -0.0003
    121  CE2      -13.1280   16.1540  -15.8430 C.ar  417  PHE417     -0.0003
    122  CZ       -12.1570   16.5150  -16.7710 C.ar  417  PHE417     -0.0000
    123  N        -17.4030   16.4700  -19.8240 N.am  418  ARG418     -0.1980
    124  CA       -17.3600   15.4650  -20.8830 C.3   418  ARG418      0.1597
    125  C        -17.5710   16.0860  -22.2620 C.2   418  ARG418      0.2287
    126  O        -16.8460   15.7560  -23.2150 O.2   418  ARG418     -0.2864
    127  CB       -18.4000   14.3730  -20.6080 C.3   418  ARG418      0.0334
    128  CG       -18.7070   13.4420  -21.8040 C.3   418  ARG418      0.0492
    129  CD       -17.4510   12.8530  -22.4690 C.3   418  ARG418      0.2205
    130  NE       -16.8040   11.8400  -21.6470 N.pl3 418  ARG418     -0.0865
    131  CZ       -15.5510   11.3940  -21.8210 C.cat 418  ARG418      0.5346
    132  NH1      -14.7540   11.8820  -22.7780 N.pl3 418  ARG418      0.1354
    133  NH2      -15.0830   10.4620  -21.0120 N.pl3 418  ARG418      0.1354
    134  N        -14.4100   18.0780  -23.1540 N.3   421  ASP421     -0.1239
    135  CA       -13.3230   17.2160  -23.5690 C.3   421  ASP421      0.1674
    136  C        -13.5580   16.6900  -24.9770 C.2   421  ASP421      0.2266
    137  O        -12.6430   16.6840  -25.8020 O.2   421  ASP421     -0.2867
    138  CB       -13.1590   16.0610  -22.5920 C.3   421  ASP421      0.1410
    139  CG       -11.9100   15.2380  -22.8880 C.2   421  ASP421      0.3668
    140  OD1      -10.8030   15.7490  -22.6750 O.co2 421  ASP421     -0.2456
    141  OD2      -12.0420   14.0990  -23.3470 O.co2 421  ASP421     -0.2456
    142  N        -17.6970    9.6840  -29.7160 N.3   437  LYS437     -0.1245
    143  CA       -17.7970   10.6520  -28.6420 C.3   437  LYS437      0.1561
    144  C        -19.0020   11.5660  -28.8960 C.2   437  LYS437      0.2260
    145  O        -19.8580   11.2720  -29.7350 O.2   437  LYS437     -0.2867
    146  CB       -16.4830   11.4320  -28.5490 C.3   437  LYS437      0.0271
    147  CG       -15.2230   10.5580  -28.4240 C.3   437  LYS437      0.0035
    148  CD       -15.1730    9.8460  -27.0770 C.3   437  LYS437      0.0206
    149  CE       -13.7930    9.2420  -26.8220 C.3   437  LYS437      0.1093
    150  NZ       -13.5220    9.0610  -25.3610 N.3   437  LYS437     -0.1314
    151  N        -12.7480   22.2190  -11.5710 N.3   490  LEU490     -0.1245
    152  CA       -12.5120   21.1260  -12.5130 C.3   490  LEU490      0.1561
    153  C        -13.1030   21.4520  -13.8840 C.2   490  LEU490      0.2260
    154  O        -12.4070   21.3820  -14.9030 O.2   490  LEU490     -0.2867
    155  CB       -13.0860   19.8140  -11.9630 C.3   490  LEU490      0.0270
    156  CG       -12.9990   18.6270  -12.9310 C.3   490  LEU490      0.0019
    157  CD1      -11.5190   18.2900  -13.2990 C.3   490  LEU490      0.0001
    158  CD2      -13.7190   17.3900  -12.3580 C.3   490  LEU490      0.0001
@<TRIPOS>BOND
     1   145   144    2
     2   142   143    1
     3   144   143    1
     4   143   146    1
     5   146   147    1
     6   147   148    1
     7    57    56    2
     8   148   149    1
     9   149   150    1
    10    56    55    1
    11   137   136    2
    12    77    76    2
    13    60    59   ar
    14   136   135    1
    15    58    55    1
    16    58    59    1
    17    55    54    1
    18    59    61   ar
    19    76    75    1
    20   135   134    1
    21   135   138    1
    22    49    48    2
    23    75    78    1
    24    75    74    1
    25    52    51   ar
    26   141   139   ar
    27    78    79    1
    28   126   125    2
    29   139   140   ar
    30   139   138    1
    31    51    53   ar
    32    51    50    1
    33   132   131    1
    34    79    80    1
    35   129   128    1
    36   129   130    1
    37    80    81   ar
    38    80    82   ar
    39    48    47    1
    40    47    50    1
    41    47    46    1
    42   125   124    1
    43    41    40    2
    44   131   130    2
    45   131   133    1
    46   128   127    1
    47    45    43   ar
    48    46    40   am
    49    40    39    1
    50    65    64    2
    51   124   127    1
    52   124   123    1
    53    43    44   ar
    54    43    42    1
    55   115   114    2
    56    88    87    1
    57   123   114   am
    58    96    94    1
    59   114   113    1
    60    64    63    1
    61    42    39    1
    62    39    38    1
    63    34    33    2
    64    37    35    1
    65    63    66    1
    66    63    62    1
    67    87    84    1
    68    94    93    1
    69    68    70   ar
    70    68    67   ar
    71   113   112    1
    72   113   116    1
    73    66    67    1
    74    12    14   ar
    75    12    10   ar
    76    70    72   ar
    77    93    90    1
    78    93    95    1
    79    33    32    1
    80    67    69   ar
    81   118   120   ar
    82   118   117   ar
    83    14    13   ar
    84    35    32    1
    85    35    36    1
    86    86    85    2
    87   120   122   ar
    88    90    89    1
    89    90    91    1
    90    32    31    1
    91     9    10   ar
    92     9     7   ar
    93    89    85   am
    94    85    84    1
    95    72    73    1
    96    72    71   ar
    97    10     8   ar
    98    84    83    1
    99    69    71   ar
   100   116   117    1
   101   117   119   ar
   102    26    25    2
   103   122   121   ar
   104    13    11   ar
   105     7     6   ar
   106    91    92    2
   107    91    97   am
   108    31    25   am
   109     8    11   ar
   110     8     6   ar
   111    25    24    1
   112   119   121   ar
   113    29    27    1
   114     6     5    1
   115    97    98    1
   116   103   101    1
   117   154   153    2
   118    18    17    2
   119    24    27    1
   120    24    23    1
   121    21    19    1
   122    27    28    1
   123   102   101    1
   124     5     2    1
   125    98   101    1
   126    98    99    1
   127     1     2    1
   128   153   152    1
   129     2     3    1
   130    17    16    1
   131   157   156    1
   132    28    30    1
   133    99   100    2
   134    19    16    1
   135    19    20    1
   136   156   158    1
   137   156   155    1
   138    16    15    1
   139   152   155    1
   140   152   151    1
   141    20    22    1
   142     3     4    2
   143   109   111    1
   144   109   108    1
   145   108   110    1
   146   108   105    1
   147   104   105    1
   148   105   106    1
   149   106   107    2
