@<TRIPOS>MOLECULE
tmp/5uv3A01.pdb
 89 85 0 0 0
SMALL
GASTEIGER

@<TRIPOS>ATOM
      1  N         90.7000  119.1150   13.8400 N.3    76  LEU76      -0.1245
      2  CA        92.1200  119.0380   13.5150 C.3    76  LEU76       0.1561
      3  C         92.4560  117.6980   12.8670 C.2    76  LEU76       0.2260
      4  O         93.0760  117.6530   11.7970 O.2    76  LEU76      -0.2867
      5  CB        92.9650  119.2530   14.7610 C.3    76  LEU76       0.0270
      6  CG        94.4760  119.1340   14.6090 C.3    76  LEU76       0.0019
      7  CD1       95.0640  120.1920   13.6220 C.3    76  LEU76       0.0001
      8  CD2       95.0850  119.2620   15.9980 C.3    76  LEU76       0.0001
      9  N         91.0160  117.5310    9.3440 N.3    79  ARG79      -0.1231
     10  CA        91.8220  118.3450    8.4360 C.3    79  ARG79       0.1694
     11  C         93.1380  117.6470    8.0810 C.2    79  ARG79       0.2591
     12  O         93.5610  117.6270    6.9120 O.2    79  ARG79      -0.2718
     13  CB        92.0980  119.7200    9.0420 C.3    79  ARG79       0.0321
     14  CG        92.8890  120.6440    8.0860 C.3    79  ARG79       0.0489
     15  CD        93.0560  122.0860    8.6230 C.3    79  ARG79       0.2205
     16  NE        93.9220  122.1420    9.7930 N.pl3  79  ARG79      -0.0865
     17  CZ        95.2350  122.3410    9.7550 C.cat  79  ARG79       0.5346
     18  NH1       95.8290  122.5420    8.5990 N.pl3  79  ARG79       0.1354
     19  NH2       95.9450  122.3600   10.8830 N.pl3  79  ARG79       0.1354
     20  N         93.8070  117.0710    9.0820 N.am   80  LEU80      -0.1980
     21  CA        95.0300  116.3160    8.8070 C.3    80  LEU80       0.1596
     22  C         94.7540  115.1500    7.8680 C.2    80  LEU80       0.2287
     23  O         95.5460  114.8710    6.9530 O.2    80  LEU80      -0.2864
     24  CB        95.6520  115.7780   10.1190 C.3    80  LEU80       0.0297
     25  CG        96.1710  116.9060   10.9900 C.3    80  LEU80       0.0022
     26  CD1       96.7740  116.3950   12.3980 C.3    80  LEU80       0.0001
     27  CD2       97.1240  117.7150   10.2270 C.3    80  LEU80       0.0001
     28  N         94.5490  116.4810    4.2890 N.3    83  THR83      -0.1203
     29  CA        95.5290  117.3490    3.6380 C.3    83  THR83       0.1994
     30  C         96.9590  117.0560    4.0110 C.2    83  THR83       0.2618
     31  O         97.8430  117.7090    3.4630 O.2    83  THR83      -0.2717
     32  CB        95.2690  118.8230    3.9840 C.3    83  THR83       0.1784
     33  OG1       95.4750  118.9740    5.3920 O.3    83  THR83      -0.2211
     34  CG2       93.8090  119.2080    3.6090 C.3    83  THR83       0.0376
     35  N         97.2320  116.1460    4.9580 N.am   84  SER84      -0.1951
     36  CA        98.5900  115.9410    5.4460 C.3    84  SER84       0.1924
     37  C         99.1780  114.6920    4.8210 C.2    84  SER84       0.2314
     38  O         98.7290  113.5710    5.1170 O.2    84  SER84      -0.2863
     39  CB        98.6240  115.8010    6.9840 C.3    84  SER84       0.2116
     40  OG        99.9140  115.3590    7.3410 O.3    84  SER84      -0.2180
     41  N        102.0050  113.5220    5.5730 N.3    86  VAL86      -0.1231
     42  CA       102.6410  112.7940    6.6960 C.3    86  VAL86       0.1692
     43  C        101.6270  111.9140    7.4100 C.2    86  VAL86       0.2591
     44  O        101.9010  110.7280    7.6910 O.2    86  VAL86      -0.2718
     45  CB       103.3470  113.7760    7.6570 C.3    86  VAL86       0.0266
     46  CG1      103.8950  113.0550    8.8700 C.3    86  VAL86       0.0020
     47  CG2      104.5110  114.4620    6.9450 C.3    86  VAL86       0.0020
     48  N        100.4450  112.4690    7.7180 N.am   87  ALA87      -0.1980
     49  CA        99.4170  111.6900    8.4020 C.3    87  ALA87       0.1597
     50  C         99.0130  110.4730    7.5680 C.2    87  ALA87       0.2287
     51  O         98.7880  109.3680    8.0870 O.2    87  ALA87      -0.2864
     52  CB        98.2100  112.5770    8.6860 C.3    87  ALA87       0.0319
     53  N         97.3530  105.7030   13.8240 N.3   106  TRP106     -0.1241
     54  CA        98.2610  106.4720   14.6760 C.3   106  TRP106      0.1605
     55  C         97.9750  106.2950   16.1610 C.2   106  TRP106      0.2264
     56  O         98.8940  106.4930   16.9680 O.2   106  TRP106     -0.2867
     57  CB        98.2010  107.9730   14.3230 C.3   106  TRP106      0.0550
     58  CG        98.9050  108.3430   12.9870 C.ar  106  TRP106      0.0003
     59  CD1       98.3450  108.3470   11.7220 C.ar  106  TRP106      0.0946
     60  CD2      100.2590  108.7880   12.8160 C.ar  106  TRP106      0.0152
     61  NE1       99.2720  108.7840   10.7850 N.ar  106  TRP106     -0.2442
     62  CE2      100.4530  109.0480   11.4270 C.ar  106  TRP106      0.0810
     63  CE3      101.3160  109.0220   13.7010 C.ar  106  TRP106      0.0012
     64  CZ2      101.6680  109.4940   10.9150 C.ar  106  TRP106      0.0191
     65  CZ3      102.5150  109.4470   13.2030 C.ar  106  TRP106      0.0001
     66  CH2      102.6940  109.6690   11.8060 C.ar  106  TRP106      0.0015
     67  N         97.4650  121.6650   19.9710 N.3   189  PRO189     -0.2102
     68  CA        98.8180  122.1410   20.2940 C.3   189  PRO189      0.1504
     69  C         99.4980  122.8800   19.1400 C.2   189  PRO189      0.2575
     70  O        100.6970  123.1730   19.2320 O.2   189  PRO189     -0.2718
     71  CB        99.5600  120.8520   20.6720 C.3   189  PRO189      0.0282
     72  CG        98.8300  119.7620   19.9500 C.3   189  PRO189      0.0208
     73  CD        97.3880  120.1930   19.9340 C.3   189  PRO189      0.0893
     74  N         98.7420  123.2240   18.0820 N.am  190  LEU190     -0.1980
     75  CA        99.2440  124.0340   16.9720 C.3   190  LEU190      0.1596
     76  C         99.4000  125.5140   17.2910 C.2   190  LEU190      0.2287
     77  O        100.5250  126.0260   17.2780 O.2   190  LEU190     -0.2864
     78  CB        98.3470  123.9310   15.7340 C.3   190  LEU190      0.0297
     79  CG        98.4360  122.6540   14.8990 C.3   190  LEU190      0.0022
     80  CD1       97.5980  122.7720   13.6310 C.3   190  LEU190      0.0001
     81  CD2       99.8700  122.4000   14.5660 C.3   190  LEU190      0.0001
     82  N        101.7760  127.7050   19.2090 N.3   193  LEU193     -0.1245
     83  CA       102.8830  128.3250   18.4820 C.3   193  LEU193      0.1561
     84  C        102.4980  129.7250   18.0210 C.2   193  LEU193      0.2260
     85  O        101.9750  130.5230   18.8020 O.2   193  LEU193     -0.2867
     86  CB       103.2930  127.4670   17.2780 C.3   193  LEU193      0.0270
     87  CG       103.9970  126.1470   17.5920 C.3   193  LEU193      0.0019
     88  CD1      104.1890  125.3840   16.3030 C.3   193  LEU193      0.0001
     89  CD2      105.3390  126.3630   18.2430 C.3   193  LEU193      0.0001
@<TRIPOS>BOND
     1    31    30    2
     2    34    32    1
     3    29    32    1
     4    29    30    1
     5    29    28    1
     6    32    33    1
     7    30    35   am
     8    37    38    2
     9    37    36    1
    10    35    36    1
    11    36    39    1
    12    41    42    1
    13    42    43    1
    14    42    45    1
    15    12    11    2
    16    47    45    1
    17    23    22    2
    18    39    40    1
    19    43    44    2
    20    43    48   am
    21    50    51    2
    22    50    49    1
    23    45    46    1
    24    48    49    1
    25    22    21    1
    26    11    10    1
    27    11    20   am
    28    14    15    1
    29    14    13    1
    30    49    52    1
    31    10    13    1
    32    10     9    1
    33    18    17    1
    34    15    16    1
    35    21    20    1
    36    21    24    1
    37    17    16    2
    38    17    19    1
    39    24    25    1
    40    27    25    1
    41    61    62   ar
    42    61    59   ar
    43    64    62   ar
    44    64    66   ar
    45    25    26    1
    46    62    60   ar
    47    59    58   ar
    48     4     3    2
    49    66    65   ar
    50    60    58   ar
    51    60    63   ar
    52     3     2    1
    53    58    57    1
    54    65    63   ar
    55     2     1    1
    56     2     5    1
    57     7     6    1
    58    80    79    1
    59    53    54    1
    60    57    54    1
    61    81    79    1
    62     6     5    1
    63     6     8    1
    64    54    55    1
    65    79    78    1
    66    78    75    1
    67    55    56    2
    68    88    87    1
    69    75    76    1
    70    75    74    1
    71    77    76    2
    72    86    87    1
    73    86    83    1
    74    87    89    1
    75    84    83    1
    76    84    85    2
    77    74    69   am
    78    83    82    1
    79    69    70    2
    80    69    68    1
    81    73    72    1
    82    73    67    1
    83    72    71    1
    84    67    68    1
    85    68    71    1
