@<TRIPOS>MOLECULE
tmp/5uv4A00.pdb
 184 173 0 0 0
SMALL
GASTEIGER

@<TRIPOS>ATOM
      1  N         20.1590   31.3570   54.2390 N.3    24  ILE24      -0.1231
      2  CA        20.4490   32.7720   54.0090 C.3    24  ILE24       0.1696
      3  C         19.7750   33.5180   55.1660 C.2    24  ILE24       0.2632
      4  O         20.4020   34.3270   55.8380 O.2    24  ILE24      -0.2714
      5  CB        19.9220   33.2610   52.6180 C.3    24  ILE24       0.0266
      6  CG1       20.5060   32.4560   51.4600 C.3    24  ILE24       0.0019
      7  CG2       20.1550   34.7540   52.4420 C.3    24  ILE24       0.0020
      8  CD1       20.1590   32.9740   50.0600 C.3    24  ILE24       0.0001
      9  N         18.5060   33.2110   55.3980 N.am   25  GLY25      -0.1718
     10  CA        17.7450   33.8250   56.4770 C.2    25  GLY25       0.1480
     11  C         16.2770   33.4750   56.5100 C.2    25  GLY25       0.2820
     12  O         15.7830   32.7230   55.6660 O.2    25  GLY25      -0.2669
     13  N         15.5870   34.0210   57.5190 N.am   26  ARG26      -0.1929
     14  CA        14.1730   33.8080   57.7690 C.3    26  ARG26       0.1732
     15  C         13.4320   35.1390   57.7490 C.2    26  ARG26       0.2617
     16  O         13.9950   36.1740   58.1040 O.2    26  ARG26      -0.2715
     17  CB        13.9580   33.1140   59.1200 C.3    26  ARG26       0.0348
     18  CG        14.3930   31.6650   59.1500 C.3    26  ARG26       0.0492
     19  CD        14.2220   31.0660   60.5400 C.3    26  ARG26       0.2205
     20  NE        14.6230   29.6570   60.5850 N.pl3  26  ARG26      -0.0865
     21  CZ        15.8490   29.2310   60.8840 C.cat  26  ARG26       0.5346
     22  NH1       16.8180   30.1030   61.1500 N.pl3  26  ARG26       0.1354
     23  NH2       16.1190   27.9320   60.9060 N.pl3  26  ARG26       0.1354
     24  N         12.1590   35.1040   57.3480 N.am   27  SER27      -0.1936
     25  CA        11.3220   36.2890   57.2920 C.3    27  SER27       0.2055
     26  C          9.8450   35.9300   57.5120 C.2    27  SER27       0.2643
     27  O          9.5100   34.7620   57.7770 O.2    27  SER27      -0.2714
     28  CB        11.5140   37.0100   55.9580 C.3    27  SER27       0.2130
     29  OG        10.9900   36.2350   54.8910 O.3    27  SER27      -0.2179
     30  N          8.9680   36.9460   57.3520 N.am   28  CYS28      -0.1953
     31  CA         7.5200   36.8370   57.4780 C.3    28  CYS28       0.1843
     32  C          6.9780   35.9250   56.3950 C.2    28  CYS28       0.2625
     33  O          5.9800   35.2620   56.6380 O.2    28  CYS28      -0.2714
     34  CB         6.8670   38.2130   57.4240 C.3    28  CYS28       0.0997
     35  SG         7.2690   39.1590   55.9330 S.3    28  CYS28      -0.0797
     36  N          7.5840   35.9800   55.2170 N.am   29  HIS29      -0.1973
     37  CA         7.2500   35.1180   54.0930 C.3    29  HIS29       0.1656
     38  C          7.6350   33.6510   54.2800 C.2    29  HIS29       0.2291
     39  O          6.9130   32.7580   53.8650 O.2    29  HIS29      -0.2864
     40  CB         7.8400   35.6750   52.8060 C.3    29  HIS29       0.0771
     41  CG         7.2350   36.9760   52.3930 C.ar   29  HIS29       0.0820
     42  ND1        7.8680   38.1810   52.5820 N.ar   29  HIS29      -0.2267
     43  CD2        6.0460   37.2620   51.8180 C.ar   29  HIS29       0.1154
     44  CE1        7.1000   39.1540   52.1310 C.ar   29  HIS29       0.1986
     45  NE2        5.9880   38.6230   51.6630 N.ar   29  HIS29      -0.2212
     46  N         11.4900   31.1630   54.6090 N.3    31  THR31      -0.1203
     47  CA        12.9420   31.0700   54.7000 C.3    31  THR31       0.1994
     48  C         13.6760   30.9580   53.3450 C.2    31  THR31       0.2618
     49  O         13.2200   30.2750   52.4390 O.2    31  THR31      -0.2717
     50  CB        13.3480   29.9030   55.6180 C.3    31  THR31       0.1784
     51  OG1       14.7350   29.6110   55.4470 O.3    31  THR31      -0.2211
     52  CG2       12.5420   28.6730   55.2910 C.3    31  THR31       0.0376
     53  N         14.8170   31.6360   53.2380 N.am   32  SER32      -0.1951
     54  CA        15.6870   31.6560   52.0630 C.3    32  SER32       0.1924
     55  C         16.9270   30.7710   52.2500 C.2    32  SER32       0.2314
     56  O         17.5700   30.8170   53.3050 O.2    32  SER32      -0.2863
     57  CB        16.1630   33.0710   51.7640 C.3    32  SER32       0.2116
     58  OG        15.1310   33.7650   51.0870 O.3    32  SER32      -0.2180
     59  N         18.8190   31.1170   44.6530 N.3    44  THR44      -0.1218
     60  CA        18.1330   31.4830   45.8930 C.3    44  THR44       0.1862
     61  C         16.8750   30.6140   45.9010 C.2    44  THR44       0.2287
     62  O         16.1290   30.6070   44.9160 O.2    44  THR44      -0.2866
     63  CB        17.7900   32.9730   45.9810 C.3    44  THR44       0.1770
     64  OG1       18.9420   33.7610   45.6840 O.3    44  THR44      -0.2211
     65  CG2       17.2930   33.3510   47.3650 C.3    44  THR44       0.0375
     66  N         13.6290   30.1420   48.0380 N.3    46  LYS46      -0.1245
     67  CA        12.7250   30.7920   48.9820 C.3    46  LYS46       0.1561
     68  C         11.4840   29.9310   49.2020 C.2    46  LYS46       0.2260
     69  O         10.6690   29.7780   48.2940 O.2    46  LYS46      -0.2867
     70  CB        12.3210   32.1810   48.4510 C.3    46  LYS46       0.0271
     71  CG        11.7540   33.0950   49.5140 C.3    46  LYS46       0.0035
     72  CD        11.2550   34.4230   48.9520 C.3    46  LYS46       0.0206
     73  CE        10.8480   35.3630   50.0780 C.3    46  LYS46       0.1093
     74  NZ        12.0150   35.9280   50.8040 N.3    46  LYS46      -0.1314
     75  N         21.1660   33.6710   42.6240 N.3    95  TYR95      -0.1227
     76  CA        21.8290   34.0670   43.8470 C.3    95  TYR95       0.1736
     77  C         22.8850   35.1120   43.4620 C.2    95  TYR95       0.2595
     78  O         23.6390   34.9030   42.5170 O.2    95  TYR95      -0.2718
     79  CB        22.4490   32.8660   44.5760 C.3    95  TYR95       0.0548
     80  CG        23.2440   33.2680   45.8050 C.ar   95  TYR95      -0.0200
     81  CD1       22.6070   33.5530   47.0110 C.ar   95  TYR95      -0.0009
     82  CD2       24.6260   33.4320   45.7430 C.ar   95  TYR95      -0.0009
     83  CE1       23.3250   33.9740   48.1280 C.ar   95  TYR95       0.0417
     84  CE2       25.3530   33.8590   46.8520 C.ar   95  TYR95       0.0417
     85  CZ        24.6980   34.1380   48.0390 C.ar   95  TYR95       0.1957
     86  OH        25.4050   34.5820   49.1280 O.3    95  TYR95      -0.2866
     87  N         22.9420   36.2260   44.1910 N.am   96  ALA96      -0.1980
     88  CA        23.9480   37.2730   43.9820 C.3    96  ALA96       0.1597
     89  C         24.8230   37.3280   45.1970 C.2    96  ALA96       0.2287
     90  O         24.3320   37.3950   46.3290 O.2    96  ALA96      -0.2864
     91  CB        23.2840   38.6300   43.7750 C.3    96  ALA96       0.0319
     92  N         26.4780   39.2070   47.4490 N.3    98  ALA98      -0.1231
     93  CA        26.2130   40.5760   47.8440 C.3    98  ALA98       0.1694
     94  C         26.0220   40.6690   49.3300 C.2    98  ALA98       0.2593
     95  O         26.0860   39.6730   50.0310 O.2    98  ALA98      -0.2718
     96  CB        24.9220   41.0300   47.1560 C.3    98  ALA98       0.0304
     97  N         25.7430   41.8680   49.8030 N.am   99  THR99      -0.1939
     98  CA        25.4180   42.1770   51.1870 C.3    99  THR99       0.2028
     99  C         24.2250   43.0800   51.0790 C.2    99  THR99       0.2642
    100  O         24.1720   43.9350   50.1960 O.2    99  THR99      -0.2714
    101  CB        26.6370   42.6970   52.0120 C.3    99  THR99       0.1808
    102  OG1       26.1970   43.4810   53.1330 O.3    99  THR99      -0.2208
    103  CG2       27.6470   43.4710   51.1870 C.3    99  THR99       0.0379
    104  N         23.2040   42.8270   51.8730 N.am  100  SER100     -0.1949
    105  CA        22.0060   43.6470   51.7870 C.3   100  SER100      0.1924
    106  C         22.2360   45.0260   52.3490 C.2   100  SER100      0.2314
    107  O         23.1150   45.2080   53.1840 O.2   100  SER100     -0.2863
    108  CB        20.8550   42.9870   52.5220 C.3   100  SER100      0.2116
    109  OG        21.0080   43.1790   53.9150 O.3   100  SER100     -0.2180
    110  N         20.3090   46.7660   54.5430 N.3   102  SER102     -0.1202
    111  CA        20.1580   46.7740   56.0090 C.3   102  SER102      0.2020
    112  C         21.3500   46.1370   56.7380 C.2   102  SER102      0.2619
    113  O         21.8000   46.7030   57.7400 O.2   102  SER102     -0.2717
    114  CB        18.8250   46.1800   56.4660 C.3   102  SER102      0.2103
    115  OG        18.6890   44.8240   56.0890 O.3   102  SER102     -0.2182
    116  N         21.9400   45.1020   56.1670 N.am  103  THR103     -0.1952
    117  CA        23.1200   44.5240   56.7730 C.3   103  THR103      0.1897
    118  C         24.2950   45.4940   56.6280 C.2   103  THR103      0.2313
    119  O         25.0990   45.6330   57.5390 O.2   103  THR103     -0.2863
    120  CB        23.4960   43.1880   56.1320 C.3   103  THR103      0.1794
    121  OG1       22.6280   42.1710   56.6280 O.3   103  THR103     -0.2208
    122  CG2       24.9160   42.8280   56.4810 C.3   103  THR103      0.0378
    123  N          6.9490   44.8340   48.2580 N.3   145  ASN145     -0.1240
    124  CA         7.7240   44.2720   49.3390 C.3   145  ASN145      0.1653
    125  C          9.0090   45.0360   49.5500 C.2   145  ASN145      0.2266
    126  O          9.9910   44.4770   50.0030 O.2   145  ASN145     -0.2867
    127  CB         8.0160   42.8020   49.0760 C.3   145  ASN145      0.1155
    128  CG         8.2840   42.0330   50.3420 C.2   145  ASN145      0.2627
    129  OD1        7.9460   42.4790   51.4270 O.2   145  ASN145     -0.2716
    130  ND2        8.9040   40.8770   50.2090 N.am  145  ASN145     -0.0877
    131  N         11.9210   46.9380   51.0240 N.3   147  LYS147     -0.1245
    132  CA        12.5530   47.0170   52.3220 C.3   147  LYS147      0.1561
    133  C         14.0410   46.9480   52.1020 C.2   147  LYS147      0.2260
    134  O         14.4860   46.4560   51.0680 O.2   147  LYS147     -0.2867
    135  CB        12.0270   45.9360   53.3050 C.3   147  LYS147      0.0271
    136  CG        12.1710   44.5010   52.8180 C.3   147  LYS147      0.0035
    137  CD        11.5450   43.5090   53.7980 C.3   147  LYS147      0.0206
    138  CE        10.0390   43.4800   53.7550 C.3   147  LYS147      0.1093
    139  NZ         9.5810   42.0870   53.8080 N.3   147  LYS147     -0.1314
    140  N         16.1660   45.0930   53.3290 N.3   149  SER149     -0.1202
    141  CA        16.6750   43.7300   53.2610 C.3   149  SER149      0.2020
    142  C         16.5070   43.1390   51.8420 C.2   149  SER149      0.2618
    143  O         17.0970   42.0950   51.5330 O.2   149  SER149     -0.2717
    144  CB        16.0340   42.8540   54.3270 C.3   149  SER149      0.2103
    145  OG        14.6910   42.5750   53.9770 O.3   149  SER149     -0.2182
    146  N         15.7220   43.8310   50.9770 N.am  150  ASN150     -0.1974
    147  CA        15.4650   43.4230   49.5950 C.3   150  ASN150      0.1688
    148  C         16.2370   44.3050   48.5990 C.2   150  ASN150      0.2292
    149  O         15.9560   44.3170   47.4180 O.2   150  ASN150     -0.2864
    150  CB        13.9310   43.3280   49.3020 C.3   150  ASN150      0.1181
    151  CG        13.2550   42.2160   50.0680 C.2   150  ASN150      0.2629
    152  OD1       13.8950   41.2840   50.5150 O.2   150  ASN150     -0.2716
    153  ND2       11.9420   42.2590   50.2290 N.am  150  ASN150     -0.0877
    154  N         20.1270   44.5320   47.4830 N.3   152  LEU152     -0.1245
    155  CA        21.4360   43.8800   47.5850 C.3   152  LEU152      0.1561
    156  C         22.5340   44.7220   46.9570 C.2   152  LEU152      0.2260
    157  O         22.3380   45.3090   45.8900 O.2   152  LEU152     -0.2867
    158  CB        21.4470   42.4420   47.0270 C.3   152  LEU152      0.0270
    159  CG        20.4190   41.4510   47.6280 C.3   152  LEU152      0.0019
    160  CD1       20.4860   40.1150   46.9260 C.3   152  LEU152      0.0001
    161  CD2       20.5860   41.2830   49.1350 C.3   152  LEU152      0.0001
    162  N         15.3370   42.5510   45.1630 N.3   163  THR163     -0.1203
    163  CA        14.8760   41.1580   45.2580 C.3   163  THR163      0.1994
    164  C         13.4160   41.0430   45.7570 C.2   163  THR163      0.2617
    165  O         12.8240   42.0330   46.1520 O.2   163  THR163     -0.2717
    166  CB        15.7820   40.3640   46.2480 C.3   163  THR163      0.1784
    167  OG1       15.4440   40.6930   47.5870 O.3   163  THR163     -0.2211
    168  CG2       17.2370   40.6220   46.0530 C.3   163  THR163      0.0376
    169  N         12.8950   39.8060   45.8290 N.am  164  ASP164     -0.1973
    170  CA        11.6140   39.4290   46.4640 C.3   164  ASP164      0.1709
    171  C         10.4470   40.3270   46.0880 C.2   164  ASP164      0.2293
    172  O          9.8070   40.9360   46.9590 O.2   164  ASP164     -0.2864
    173  CB        11.8160   39.3610   47.9890 C.3   164  ASP164      0.1436
    174  CG        12.9230   38.3910   48.3900 C.2   164  ASP164      0.3671
    175  OD1       12.7820   37.1970   48.1100 O.co2 164  ASP164     -0.2456
    176  OD2       13.9560   38.8480   48.9300 O.co2 164  ASP164     -0.2456
    177  N          4.2130   43.0200   59.0300 N.3   182  ASN182     -0.1240
    178  CA         5.6580   43.0720   59.1240 C.3   182  ASN182      0.1653
    179  C          6.1880   44.3790   58.5310 C.2   182  ASN182      0.2266
    180  O          7.0300   45.0120   59.1660 O.2   182  ASN182     -0.2867
    181  CB         6.3000   41.8530   58.4650 C.3   182  ASN182      0.1155
    182  CG         7.7990   41.7640   58.6920 C.2   182  ASN182      0.2627
    183  OD1        8.5940   41.7560   57.7460 O.2   182  ASN182     -0.2716
    184  ND2        8.2220   41.7480   59.9550 N.am  182  ASN182     -0.0877
@<TRIPOS>BOND
     1    78    77    2
     2    75    76    1
     3    77    76    1
     4    77    87   am
     5    91    88    1
     6    76    79    1
     7    88    87    1
     8    88    89    1
     9    79    80    1
    10    59    60    1
    11    62    61    2
    12   162   163    1
    13    89    90    2
    14   163   164    1
    15   163   166    1
    16    64    63    1
    17    82    80   ar
    18    82    84   ar
    19   164   169   am
    20   164   165    2
    21    80    81   ar
    22   169   170    1
    23   157   156    2
    24    60    61    1
    25    60    63    1
    26    63    65    1
    27   168   166    1
    28   171   170    1
    29   171   172    2
    30   166   167    1
    31   170   173    1
    32    84    85   ar
    33   160   159    1
    34   156   155    1
    35    81    83   ar
    36   158   155    1
    37   158   159    1
    38    96    93    1
    39   149   148    2
    40    92    93    1
    41   154   155    1
    42   159   161    1
    43    93    94    1
    44   173   174    1
    45    66    67    1
    46    85    83   ar
    47    85    86    1
    48   175   174   ar
    49   123   124    1
    50    69    68    2
    51   174   176   ar
    52    70    67    1
    53    70    71    1
    54   148   147    1
    55    72    71    1
    56    72    73    1
    57    67    68    1
    58   127   124    1
    59   127   128    1
    60   150   147    1
    61   150   151    1
    62    94    97   am
    63    94    95    2
    64   124   125    1
    65   125   126    2
    66   147   146    1
    67    97    98    1
    68     8     6    1
    69   151   153   am
    70   151   152    2
    71    73    74    1
    72   100    99    2
    73   130   128   am
    74   128   129    2
    75   146   142   am
    76   131   132    1
    77   134   133    2
    78    99    98    1
    79    99   104   am
    80    58    57    1
    81   103   101    1
    82    98   101    1
    83     6     5    1
    84   143   142    2
    85    45    43   ar
    86    45    44   ar
    87    57    54    1
    88   105   104    1
    89   105   106    1
    90   105   108    1
    91    43    41   ar
    92   142   141    1
    93   101   102    1
    94    54    55    1
    95    54    53    1
    96   133   132    1
    97    44    42   ar
    98    55    56    2
    99   132   135    1
   100   106   107    2
   101    41    42   ar
   102    41    40    1
   103    49    48    2
   104     7     5    1
   105   108   109    1
   106     5     2    1
   107    40    37    1
   108   136   135    1
   109   136   137    1
   110    53    48   am
   111   141   140    1
   112   141   144    1
   113    48    47    1
   114   138   137    1
   115   138   139    1
   116    39    38    2
   117   145   144    1
   118     2     1    1
   119     2     3    1
   120    37    38    1
   121    37    36    1
   122   110   111    1
   123    46    47    1
   124    47    50    1
   125    29    28    1
   126     3     9    1
   127     3     4    2
   128    36    32   am
   129    52    50    1
   130     9    10    2
   131    51    50    1
   132    12    11    2
   133    35    34    1
   134    28    25    1
   135   111   114    1
   136   111   112    1
   137   115   114    1
   138   120   122    1
   139   120   121    1
   140   120   117    1
   141   116   112   am
   142   116   117    1
   143    32    33    2
   144    32    31    1
   145    10    11    1
   146    11    13   am
   147   118   117    1
   148   118   119    2
   149   112   113    2
   150    25    24    1
   151    25    26    1
   152    24    15   am
   153    30    31    1
   154    30    26   am
   155    34    31    1
   156    26    27    2
   157    13    14    1
   158   183   182    2
   159    15    14    1
   160    15    16    2
   161    14    17    1
   162   181   182    1
   163   181   178    1
   164   179   178    1
   165   179   180    2
   166   182   184   am
   167   177   178    1
   168    17    18    1
   169    18    19    1
   170    19    20    1
   171    20    21    2
   172    21    23    1
   173    21    22    1
