@<TRIPOS>MOLECULE
tmp/5uv5C00.pdb
 75 70 0 0 0
SMALL
GASTEIGER

@<TRIPOS>ATOM
      1  N        -54.9880   49.5840  -89.1400 N.3   435  ASP435     -0.1225
      2  CA       -55.7430   49.5910  -87.8940 C.3   435  ASP435      0.1805
      3  C        -55.1730   48.5040  -86.9930 C.2   435  ASP435      0.2598
      4  O        -54.4180   47.6350  -87.4390 O.2   435  ASP435     -0.2718
      5  CB       -57.2510   49.3870  -88.1270 C.3   435  ASP435      0.1424
      6  CG       -58.0880   49.7380  -86.8980 C.2   435  ASP435      0.3668
      7  OD1      -57.7090   50.6910  -86.1810 O.co2 435  ASP435     -0.2456
      8  OD2      -59.1310   49.0900  -86.6530 O.co2 435  ASP435     -0.2456
      9  N        -55.5270   48.5800  -85.7130 N.am  436  GLY436     -0.1957
     10  CA       -55.1360   47.5640  -84.7620 C.3   436  GLY436      0.1869
     11  C        -56.2660   47.2800  -83.7940 C.2   436  GLY436      0.2309
     12  O        -57.2200   48.0540  -83.6680 O.2   436  GLY436     -0.2863
     13  N        -53.9940   48.2420  -77.1150 N.3   466  ASN466     -0.1240
     14  CA       -54.6270   48.8740  -78.2700 C.3   466  ASN466      0.1653
     15  C        -53.7320   49.9450  -78.8810 C.2   466  ASN466      0.2266
     16  O        -53.5920   50.0250  -80.1070 O.2   466  ASN466     -0.2867
     17  CB       -55.9750   49.4720  -77.8690 C.3   466  ASN466      0.1155
     18  CG       -57.0130   48.4140  -77.5680 C.2   466  ASN466      0.2627
     19  OD1      -57.0560   47.8630  -76.4680 O.2   466  ASN466     -0.2716
     20  ND2      -57.8590   48.1220  -78.5490 N.am  466  ASN466     -0.0877
     21  N        -51.8970   50.0110  -82.7500 N.3   470  GLU470     -0.1245
     22  CA       -52.0700   51.0760  -83.7300 C.3   470  GLU470      0.1567
     23  C        -50.7260   51.5690  -84.2410 C.2   470  GLU470      0.2260
     24  O        -50.5590   51.8190  -85.4380 O.2   470  GLU470     -0.2867
     25  CB       -52.8560   52.2300  -83.1190 C.3   470  GLU470      0.0388
     26  CG       -54.2040   51.8320  -82.5790 C.3   470  GLU470      0.1160
     27  CD       -55.2820   51.8270  -83.6350 C.2   470  GLU470      0.3649
     28  OE1      -54.9700   52.0700  -84.8220 O.co2 470  GLU470     -0.2457
     29  OE2      -56.4460   51.5830  -83.2620 O.co2 470  GLU470     -0.2457
     30  N        -56.7830   55.5470  -87.8810 N.3   490  ASP490     -0.1225
     31  CA       -57.9240   55.9620  -87.0820 C.3   490  ASP490      0.1805
     32  C        -57.5360   56.2680  -85.6450 C.2   490  ASP490      0.2598
     33  O        -58.4100   56.6000  -84.8390 O.2   490  ASP490     -0.2718
     34  CB       -58.9960   54.8730  -87.1080 C.3   490  ASP490      0.1424
     35  CG       -58.6810   53.7380  -86.1700 C.2   490  ASP490      0.3668
     36  OD1      -57.8070   52.9160  -86.5090 O.co2 490  ASP490     -0.2456
     37  OD2      -59.3150   53.6670  -85.1000 O.co2 490  ASP490     -0.2456
     38  N        -56.2530   56.1500  -85.3050 N.am  491  SER491     -0.1938
     39  CA       -55.7570   56.4070  -83.9580 C.3   491  SER491      0.2055
     40  C        -55.1620   57.8090  -83.9120 C.2   491  SER491      0.2642
     41  O        -54.1110   58.0660  -84.5080 O.2   491  SER491     -0.2714
     42  CB       -54.7130   55.3700  -83.5500 C.3   491  SER491      0.2130
     43  OG       -54.7050   55.1640  -82.1460 O.3   491  SER491     -0.2179
     44  N        -55.8380   58.7150  -83.2050 N.am  492  GLN492     -0.1976
     45  CA       -55.2700   60.0360  -82.9630 C.3   492  GLN492      0.1601
     46  C        -54.0410   59.9560  -82.0650 C.2   492  GLN492      0.2287
     47  O        -53.1190   60.7690  -82.2030 O.2   492  GLN492     -0.2864
     48  CB       -56.3320   60.9580  -82.3590 C.3   492  GLN492      0.0394
     49  CG       -56.9890   60.4320  -81.0810 C.3   492  GLN492      0.0908
     50  CD       -57.9840   59.3050  -81.3390 C.2   492  GLN492      0.2608
     51  OE1      -57.5950   58.1720  -81.6350 O.2   492  GLN492     -0.2717
     52  NE2      -59.2730   59.6170  -81.2380 N.am  492  GLN492     -0.0878
     53  N        -62.9470   56.6980  -86.6220 N.3   530  ALA530     -0.1231
     54  CA       -63.1810   55.2640  -86.5820 C.3   530  ALA530      0.1694
     55  C        -64.6710   54.9680  -86.6500 C.2   530  ALA530      0.2592
     56  O        -65.4870   55.6820  -86.0600 O.2   530  ALA530     -0.2718
     57  CB       -62.5860   54.6630  -85.3110 C.3   530  ALA530      0.0304
     58  N        -65.0200   53.9160  -87.3920 N.am  531  HIS531     -0.1976
     59  CA       -66.3950   53.4200  -87.4630 C.3   531  HIS531      0.1656
     60  C        -67.3410   54.4560  -88.0540 C.2   531  HIS531      0.2291
     61  O        -68.4530   54.6590  -87.5620 O.2   531  HIS531     -0.2864
     62  CB       -66.8830   52.9690  -86.0890 C.3   531  HIS531      0.0771
     63  CG       -66.1890   51.7490  -85.5870 C.ar  531  HIS531      0.0820
     64  ND1      -66.3710   50.5040  -86.1480 N.ar  531  HIS531     -0.2267
     65  CD2      -65.2640   51.5920  -84.6150 C.ar  531  HIS531      0.1154
     66  CE1      -65.6170   49.6240  -85.5140 C.ar  531  HIS531      0.1986
     67  NE2      -64.9330   50.2590  -84.5800 N.ar  531  HIS531     -0.2212
     68  N        -60.2940   47.3840  -90.2640 N.3   541  ASP541     -0.1239
     69  CA       -60.8840   47.2470  -88.9350 C.3   541  ASP541      0.1674
     70  C        -61.4600   45.8560  -88.7370 C.2   541  ASP541      0.2266
     71  O        -61.2960   45.2500  -87.6720 O.2   541  ASP541     -0.2867
     72  CB       -61.9730   48.3000  -88.7240 C.3   541  ASP541      0.1410
     73  CG       -62.6950   48.1380  -87.3920 C.2   541  ASP541      0.3668
     74  OD1      -62.0700   48.3620  -86.3320 O.co2 541  ASP541     -0.2456
     75  OD2      -63.8860   47.7600  -87.4040 O.co2 541  ASP541     -0.2456
@<TRIPOS>BOND
     1    68    69    1
     2     1     2    1
     3    69    70    1
     4    69    72    1
     5    70    71    2
     6    72    73    1
     7     5     2    1
     8     5     6    1
     9    60    61    2
    10    60    59    1
    11     2     3    1
    12    30    31    1
    13    59    58    1
    14    59    62    1
    15     4     3    2
    16    75    73   ar
    17    73    74   ar
    18    58    55   am
    19    34    31    1
    20    34    35    1
    21    31    32    1
    22     3     9   am
    23     6     8   ar
    24     6     7   ar
    25    55    54    1
    26    55    56    2
    27    53    54    1
    28    54    57    1
    29    36    35   ar
    30    35    37   ar
    31    64    63   ar
    32    64    66   ar
    33    62    63    1
    34     9    10    1
    35    32    38   am
    36    32    33    2
    37    63    65   ar
    38    66    67   ar
    39    24    23    2
    40    38    39    1
    41    28    27   ar
    42    10    11    1
    43    65    67   ar
    44    41    40    2
    45    23    22    1
    46    39    40    1
    47    39    42    1
    48    40    44   am
    49    11    12    2
    50    22    25    1
    51    22    21    1
    52    27    29   ar
    53    27    26    1
    54    42    43    1
    55    44    45    1
    56    25    26    1
    57    45    48    1
    58    45    46    1
    59    48    49    1
    60    47    46    2
    61    51    50    2
    62    50    52   am
    63    50    49    1
    64    16    15    2
    65    15    14    1
    66    20    18   am
    67    14    17    1
    68    14    13    1
    69    17    18    1
    70    18    19    2
