@<TRIPOS>MOLECULE
tmp/5uv6B00.pdb
 106 99 0 0 0
SMALL
GASTEIGER

@<TRIPOS>ATOM
      1  N         16.3980   25.1480  294.2950 N.3    29  ASN29      -0.1225
      2  CA        15.7410   25.8430  293.1930 C.3    29  ASN29       0.1785
      3  C         16.8710   26.4580  292.3800 C.2    29  ASN29       0.2597
      4  O         17.4160   27.4990  292.7530 O.2    29  ASN29      -0.2718
      5  CB        14.7640   26.8990  293.6950 C.3    29  ASN29       0.1169
      6  CG        14.1720   27.7370  292.5720 C.2    29  ASN29       0.2627
      7  OD1       14.3970   27.4670  291.3930 O.2    29  ASN29      -0.2716
      8  ND2       13.3980   28.7510  292.9340 N.am   29  ASN29      -0.0877
      9  N         17.2330   25.7990  291.2830 N.am   30  ARG30      -0.1979
     10  CA        18.4010   26.1520  290.4700 C.3    30  ARG30       0.1597
     11  C         19.6420   25.9370  291.3270 C.2    30  ARG30       0.2287
     12  O         19.8940   24.7910  291.7370 O.2    30  ARG30      -0.2864
     13  CB        18.2390   27.5640  289.8820 C.3    30  ARG30       0.0334
     14  CG        17.0830   27.7200  288.8780 C.3    30  ARG30       0.0492
     15  CD        16.8920   29.1740  288.4340 C.3    30  ARG30       0.2205
     16  NE        15.7470   29.3270  287.5440 N.pl3  30  ARG30      -0.0865
     17  CZ        15.8080   29.2250  286.2130 C.cat  30  ARG30       0.5346
     18  NH1       16.9670   28.9780  285.6090 N.pl3  30  ARG30       0.1354
     19  NH2       14.7100   29.3760  285.4760 N.pl3  30  ARG30       0.1354
     20  N         20.1280   27.8700  294.1610 N.3    32  THR32      -0.1218
     21  CA        19.7760   28.3850  295.4750 C.3    32  THR32       0.1862
     22  C         19.2450   27.2190  296.2940 C.2    32  THR32       0.2287
     23  O         18.4010   26.4600  295.8120 O.2    32  THR32      -0.2866
     24  CB        18.7150   29.4910  295.4030 C.3    32  THR32       0.1770
     25  OG1       17.5680   29.0070  294.6960 O.3    32  THR32      -0.2211
     26  CG2       19.2320   30.7510  294.7070 C.3    32  THR32       0.0375
     27  N         16.9290   25.6260  298.8470 N.3    34  LEU34      -0.1245
     28  CA        15.6240   25.9390  299.4230 C.3    34  LEU34       0.1561
     29  C         15.4900   25.3640  300.8250 C.2    34  LEU34       0.2260
     30  O         15.1960   26.0880  301.7840 O.2    34  LEU34      -0.2867
     31  CB        14.4960   25.3910  298.5430 C.3    34  LEU34       0.0270
     32  CG        14.0570   26.0600  297.2410 C.3    34  LEU34       0.0019
     33  CD1       12.8080   25.3600  296.7750 C.3    34  LEU34       0.0001
     34  CD2       13.7960   27.5420  297.3990 C.3    34  LEU34       0.0001
     35  N         14.9810   29.1770  302.3030 N.3    42  SER42      -0.1217
     36  CA        14.0760   30.1250  301.6630 C.3    42  SER42       0.1889
     37  C         13.2630   30.8890  302.7010 C.2    42  SER42       0.2288
     38  O         13.0210   30.4060  303.8080 O.2    42  SER42      -0.2866
     39  CB        13.1310   29.3910  300.7050 C.3    42  SER42       0.2089
     40  OG        12.3090   30.2950  299.9790 O.3    42  SER42      -0.2183
     41  N         10.3250   32.1550  301.5020 N.3    44  ASP44      -0.1239
     42  CA         9.0510   32.1950  300.7990 C.3    44  ASP44       0.1674
     43  C          8.0360   31.3280  301.5350 C.2    44  ASP44       0.2266
     44  O          8.2310   30.1130  301.6290 O.2    44  ASP44      -0.2867
     45  CB         9.2340   31.7190  299.3650 C.3    44  ASP44       0.1410
     46  CG         8.0440   32.0290  298.4900 C.2    44  ASP44       0.3668
     47  OD1        7.0870   32.6610  298.9820 O.co2  44  ASP44      -0.2456
     48  OD2        8.0760   31.6500  297.2980 O.co2  44  ASP44      -0.2456
     49  N          5.4050   30.1910  300.5960 N.3    46  ARG46      -0.1231
     50  CA         4.8160   29.2090  299.6940 C.3    46  ARG46       0.1694
     51  C          5.5560   27.8810  299.7610 C.2    46  ARG46       0.2591
     52  O          4.9480   26.8260  299.5470 O.2    46  ARG46      -0.2718
     53  CB         4.8190   29.7550  298.2640 C.3    46  ARG46       0.0321
     54  CG         3.9260   30.9740  298.0720 C.3    46  ARG46       0.0489
     55  CD         3.9760   31.5030  296.6400 C.3    46  ARG46       0.2205
     56  NE         5.3400   31.6510  296.1400 N.pl3  46  ARG46      -0.0865
     57  CZ         5.8690   30.8920  295.1860 C.cat  46  ARG46       0.5346
     58  NH1        5.1440   29.9360  294.6230 N.pl3  46  ARG46       0.1354
     59  NH2        7.1210   31.0890  294.7920 N.pl3  46  ARG46       0.1354
     60  N          6.8530   27.9140  300.0670 N.am   47  VAL47      -0.1980
     61  CA         7.6890   26.7170  300.1040 C.3    47  VAL47       0.1595
     62  C          7.5880   26.1140  301.4980 C.2    47  VAL47       0.2287
     63  O          8.0550   26.7080  302.4670 O.2    47  VAL47      -0.2864
     64  CB         9.1460   27.0380  299.7540 C.3    47  VAL47       0.0276
     65  CG1        9.9780   25.7590  299.7030 C.3    47  VAL47       0.0022
     66  CG2        9.2260   27.8080  298.4430 C.3    47  VAL47       0.0022
     67  N          5.7770   23.7110  296.7930 N.3    61  ILE61      -0.1245
     68  CA         5.6200   25.1120  296.4230 C.3    61  ILE61       0.1561
     69  C          4.1350   25.3380  296.1870 C.2    61  ILE61       0.2260
     70  O          3.6110   24.9890  295.1260 O.2    61  ILE61      -0.2867
     71  CB         6.4180   25.4690  295.1690 C.3    61  ILE61       0.0252
     72  CG1        7.8740   25.0220  295.2870 C.3    61  ILE61       0.0019
     73  CG2        6.2690   26.9500  294.8630 C.3    61  ILE61       0.0019
     74  CD1        8.5630   24.9500  293.9570 C.3    61  ILE61       0.0001
     75  N          7.2240   32.4460  287.3640 N.3    67  TYR67      -0.1227
     76  CA         8.6160   32.6260  287.7510 C.3    67  TYR67       0.1736
     77  C          9.1950   31.4110  288.4650 C.2    67  TYR67       0.2595
     78  O         10.4160   31.3530  288.6310 O.2    67  TYR67      -0.2718
     79  CB         8.7690   33.8640  288.6410 C.3    67  TYR67       0.0548
     80  CG         8.5530   35.1920  287.9340 C.ar   67  TYR67      -0.0200
     81  CD1        9.3590   35.5730  286.8620 C.ar   67  TYR67      -0.0009
     82  CD2        7.5650   36.0770  288.3550 C.ar   67  TYR67      -0.0009
     83  CE1        9.1740   36.7900  286.2170 C.ar   67  TYR67       0.0417
     84  CE2        7.3740   37.2980  287.7150 C.ar   67  TYR67       0.0417
     85  CZ         8.1820   37.6460  286.6480 C.ar   67  TYR67       0.1957
     86  OH         8.0050   38.8500  286.0100 O.3    67  TYR67      -0.2866
     87  N          8.3640   30.4570  288.9070 N.am   68  ASP68      -0.1974
     88  CA         8.8830   29.2360  289.5230 C.3    68  ASP68       0.1709
     89  C          9.3690   28.2140  288.5040 C.2    68  ASP68       0.2293
     90  O         10.1100   27.2980  288.8770 O.2    68  ASP68      -0.2864
     91  CB         7.8240   28.5570  290.4030 C.3    68  ASP68       0.1436
     92  CG         7.2660   29.4720  291.4690 C.2    68  ASP68       0.3671
     93  OD1        7.9930   30.3820  291.9140 O.co2  68  ASP68      -0.2456
     94  OD2        6.0950   29.2800  291.8620 O.co2  68  ASP68      -0.2456
     95  N         14.6060   22.1210  289.6030 N.3    72  TYR72      -0.1241
     96  CA        14.7250   21.8850  291.0360 C.3    72  TYR72       0.1605
     97  C         15.4410   20.5600  291.2520 C.2    72  TYR72       0.2264
     98  O         15.1060   19.5610  290.6090 O.2    72  TYR72      -0.2867
     99  CB        13.3530   21.8590  291.7080 C.3    72  TYR72       0.0534
    100  CG        12.6650   23.1990  291.7230 C.ar   72  TYR72      -0.0201
    101  CD1       12.1620   23.7490  290.5600 C.ar   72  TYR72      -0.0009
    102  CD2       12.5250   23.9220  292.9000 C.ar   72  TYR72      -0.0009
    103  CE1       11.5380   24.9770  290.5560 C.ar   72  TYR72       0.0417
    104  CE2       11.8910   25.1600  292.9080 C.ar   72  TYR72       0.0417
    105  CZ        11.3990   25.6790  291.7240 C.ar   72  TYR72       0.1957
    106  OH        10.7690   26.9030  291.6950 O.3    72  TYR72      -0.2866
@<TRIPOS>BOND
     1    19    17    1
     2    18    17    1
     3    86    85    1
     4    17    16    2
     5    83    85   ar
     6    83    81   ar
     7    85    84   ar
     8    81    80   ar
     9    75    76    1
    10    16    15    1
    11    84    82   ar
    12    76    77    1
    13    76    79    1
    14    80    82   ar
    15    80    79    1
    16    15    14    1
    17    77    78    2
    18    77    87   am
    19    89    90    2
    20    89    88    1
    21    14    13    1
    22    87    88    1
    23    88    91    1
    24    95    96    1
    25    13    10    1
    26    91    92    1
    27    10     9    1
    28    10    11    1
    29   103   101   ar
    30   103   105   ar
    31   101   100   ar
    32    98    97    2
    33    96    97    1
    34    96    99    1
    35     9     3   am
    36    11    12    2
    37     7     6    2
    38    92    94   ar
    39    92    93   ar
    40   106   105    1
    41    99   100    1
    42   100   102   ar
    43   105   104   ar
    44     3     4    2
    45     3     2    1
    46     6     8   am
    47     6     5    1
    48   102   104   ar
    49     2     5    1
    50     2     1    1
    51    74    72    1
    52    20    21    1
    53    58    57    1
    54    25    24    1
    55    26    24    1
    56    59    57    1
    57    73    71    1
    58    70    69    2
    59    71    72    1
    60    71    68    1
    61    57    56    2
    62    24    21    1
    63    21    22    1
    64    23    22    2
    65    56    55    1
    66    69    68    1
    67    68    67    1
    68    55    54    1
    69    33    32    1
    70    32    34    1
    71    32    31    1
    72    48    46   ar
    73    54    53    1
    74    53    50    1
    75    66    64    1
    76    46    47   ar
    77    46    45    1
    78    31    28    1
    79    27    28    1
    80    45    42    1
    81    28    29    1
    82    52    51    2
    83    50    51    1
    84    50    49    1
    85    65    64    1
    86    64    61    1
    87    51    60   am
    88    40    39    1
    89    60    61    1
    90    61    62    1
    91    39    36    1
    92    42    41    1
    93    42    43    1
    94    29    30    2
    95    62    63    2
    96    43    44    2
    97    36    35    1
    98    36    37    1
    99    37    38    2
