@<TRIPOS>MOLECULE
tmp/5uvbA01.pdb
 121 113 0 0 0
SMALL
GASTEIGER

@<TRIPOS>ATOM
      1  N          7.3370   12.9800   24.4050 N.3    76  ARG76      -0.1245
      2  CA         7.6020   13.3870   23.0230 C.3    76  ARG76       0.1563
      3  C          6.2460   13.7450   22.4320 C.2    76  ARG76       0.2260
      4  O          5.2280   13.3150   22.9570 O.2    76  ARG76      -0.2867
      5  CB         8.2590   12.2750   22.1750 C.3    76  ARG76       0.0307
      6  CG         7.3690   11.0570   22.0180 C.3    76  ARG76       0.0489
      7  CD         7.9740    9.9660   21.1540 C.3    76  ARG76       0.2205
      8  NE         6.9980    8.9170   20.9650 N.pl3  76  ARG76      -0.0865
      9  CZ         7.0750    7.9660   20.0440 C.cat  76  ARG76       0.5346
     10  NH1        8.1240    7.9090   19.2390 N.pl3  76  ARG76       0.1354
     11  NH2        6.0970    7.0700   19.9580 N.pl3  76  ARG76       0.1354
     12  N          2.1200   10.4820   19.0550 N.3    79  SER79      -0.1217
     13  CA         1.9700    9.7980   17.8020 C.3    79  SER79       0.1889
     14  C          0.6140   10.1260   17.1840 C.2    79  SER79       0.2288
     15  O         -0.4190   10.1080   17.8660 O.2    79  SER79      -0.2866
     16  CB         2.0780    8.2950   18.0040 C.3    79  SER79       0.2089
     17  OG         1.6830    7.6070   16.8330 O.3    79  SER79      -0.2183
     18  N         -0.9490    8.3490   15.1300 N.3    81  ILE81      -0.1231
     19  CA        -1.7420    7.1600   14.8960 C.3    81  ILE81       0.1692
     20  C         -1.9530    6.3740   16.1970 C.2    81  ILE81       0.2591
     21  O         -3.1110    6.1370   16.5830 O.2    81  ILE81      -0.2718
     22  CB        -1.0940    6.3130   13.7440 C.3    81  ILE81       0.0266
     23  CG1       -1.8950    5.0480   13.4970 C.3    81  ILE81       0.0019
     24  CG2        0.3930    6.0290   13.9810 C.3    81  ILE81       0.0020
     25  CD1       -1.3870    4.1660   12.3630 C.3    81  ILE81       0.0001
     26  N         -0.8760    5.9950   16.8880 N.am   82  LEU82      -0.1980
     27  CA        -1.0090    5.1880   18.1110 C.3    82  LEU82       0.1596
     28  C         -1.7850    5.9250   19.1890 C.2    82  LEU82       0.2287
     29  O         -2.5500    5.3330   19.9260 O.2    82  LEU82      -0.2864
     30  CB         0.3580    4.8120   18.6650 C.3    82  LEU82       0.0297
     31  CG         0.3120    3.8510   19.8640 C.3    82  LEU82       0.0022
     32  CD1       -0.1650    2.4540   19.4590 C.3    82  LEU82       0.0001
     33  CD2        1.6870    3.8060   20.5060 C.3    82  LEU82       0.0001
     34  N         11.1410    4.1420   23.7170 N.3   165  VAL165     -0.1231
     35  CA         9.7150    4.2790   23.4170 C.3   165  VAL165      0.1692
     36  C          8.9140    3.2560   24.2260 C.2   165  VAL165      0.2592
     37  O          7.8870    3.5660   24.8450 O.2   165  VAL165     -0.2718
     38  CB         9.4790    4.1080   21.8950 C.3   165  VAL165      0.0266
     39  CG1        8.0070    4.0030   21.5940 C.3   165  VAL165      0.0020
     40  CG2       10.0840    5.2780   21.1060 C.3   165  VAL165      0.0020
     41  N          9.4010    2.0190   24.2270 N.am  166  PHE166     -0.1976
     42  CA         8.6450    0.9520   24.8240 C.3   166  PHE166      0.1639
     43  C          8.7740    0.9930   26.3440 C.2   166  PHE166      0.2290
     44  O          7.8200    0.7030   27.0400 O.2   166  PHE166     -0.2864
     45  CB         9.0880   -0.3850   24.2260 C.3   166  PHE166      0.0560
     46  CG         8.4930   -0.6510   22.8760 C.ar  166  PHE166     -0.0200
     47  CD1        7.2340   -1.2150   22.7700 C.ar  166  PHE166     -0.0042
     48  CD2        9.1690   -0.3160   21.7180 C.ar  166  PHE166     -0.0042
     49  CE1        6.6700   -1.4460   21.5250 C.ar  166  PHE166     -0.0003
     50  CE2        8.6110   -0.5460   20.4680 C.ar  166  PHE166     -0.0003
     51  CZ         7.3520   -1.1000   20.3780 C.ar  166  PHE166     -0.0000
     52  N          6.1590    3.7450   27.7700 N.3   169  PHE169     -0.1241
     53  CA         4.7560    3.4070   27.9910 C.3   169  PHE169      0.1605
     54  C          4.5130    2.9470   29.4300 C.2   169  PHE169      0.2264
     55  O          3.3790    2.8920   29.8910 O.2   169  PHE169     -0.2867
     56  CB         4.2670    2.2880   27.0790 C.3   169  PHE169      0.0534
     57  CG         4.2770    2.6130   25.6010 C.ar  169  PHE169     -0.0203
     58  CD1        3.5250    3.6540   25.0980 C.ar  169  PHE169     -0.0042
     59  CD2        4.9830    1.8080   24.7300 C.ar  169  PHE169     -0.0042
     60  CE1        3.5250    3.9320   23.7460 C.ar  169  PHE169     -0.0003
     61  CE2        4.9860    2.0840   23.3550 C.ar  169  PHE169     -0.0003
     62  CZ         4.2440    3.1390   22.8800 C.ar  169  PHE169     -0.0000
     63  N          8.2940    8.7710   12.0350 N.3   227  ARG227     -0.1231
     64  CA         8.7090    8.4760   13.4040 C.3   227  ARG227      0.1694
     65  C          7.9940    7.2390   13.9600 C.2   227  ARG227      0.2592
     66  O          8.6230    6.4150   14.6340 O.2   227  ARG227     -0.2718
     67  CB         8.4890    9.6990   14.2950 C.3   227  ARG227      0.0321
     68  CG         9.1730    9.6050   15.6650 C.3   227  ARG227      0.0489
     69  CD         8.6270   10.6440   16.6490 C.3   227  ARG227      0.2205
     70  NE         7.2430   10.3390   17.0350 N.pl3 227  ARG227     -0.0865
     71  CZ         6.5170   11.0160   17.9290 C.cat 227  ARG227      0.5346
     72  NH1        5.2910   10.6070   18.2500 N.pl3 227  ARG227      0.1354
     73  NH2        6.9980   12.1270   18.4800 N.pl3 227  ARG227      0.1354
     74  N          6.7130    7.0660   13.6500 N.am  228  SER228     -0.1952
     75  CA         5.9940    5.8930   14.0890 C.3   228  SER228      0.1924
     76  C          6.6900    4.6110   13.6070 C.2   228  SER228      0.2314
     77  O          6.8050    3.6620   14.3660 O.2   228  SER228     -0.2863
     78  CB         4.5500    5.9200   13.6000 C.3   228  SER228      0.2116
     79  OG         3.8050    6.8810   14.3110 O.3   228  SER228     -0.2180
     80  N          9.8510    4.0280   15.4180 N.3   231  SER231     -0.1202
     81  CA         9.5890    3.6270   16.7860 C.3   231  SER231      0.2020
     82  C          9.2350    2.1540   16.9050 C.2   231  SER231      0.2618
     83  O          9.7530    1.4420   17.7750 O.2   231  SER231     -0.2717
     84  CB         8.4470    4.4390   17.3730 C.3   231  SER231      0.2103
     85  OG         8.7360    5.8230   17.3840 O.3   231  SER231     -0.2182
     86  N          8.3030    1.7210   16.0620 N.am  232  ALA232     -0.1979
     87  CA         7.6880    0.4200   16.2260 C.3   232  ALA232      0.1597
     88  C          8.2670   -0.6530   15.3250 C.2   232  ALA232      0.2287
     89  O          8.0650   -1.8410   15.5610 O.2   232  ALA232     -0.2864
     90  CB         6.2010    0.5270   15.9730 C.3   232  ALA232      0.0319
     91  N         10.1870   -4.3970   17.6510 N.3   236  THR236     -0.1218
     92  CA         9.1210   -5.3840   17.6260 C.3   236  THR236      0.1862
     93  C          9.5420   -6.6710   16.8830 C.2   236  THR236      0.2287
     94  O          9.3610   -7.7640   17.3780 O.2   236  THR236     -0.2866
     95  CB         7.8660   -4.8360   16.9690 C.3   236  THR236      0.1770
     96  OG1        8.2000   -4.2750   15.6850 O.3   236  THR236     -0.2211
     97  CG2        7.2280   -3.7730   17.8540 C.3   236  THR236      0.0375
     98  N          4.8820   -7.7310   22.4500 N.3   279  VAL279     -0.1245
     99  CA         4.3020   -6.5300   23.0130 C.3   279  VAL279      0.1561
    100  C          3.3010   -7.0220   24.0480 C.2   279  VAL279      0.2260
    101  O          2.2390   -7.5470   23.7110 O.2   279  VAL279     -0.2867
    102  CB         3.6640   -5.6480   21.9410 C.3   279  VAL279      0.0252
    103  CG1        2.9630   -4.4580   22.5930 C.3   279  VAL279      0.0019
    104  CG2        4.7640   -5.1850   20.9840 C.3   279  VAL279      0.0019
    105  N         -0.7400   -2.8380   26.7290 N.3   282  PHE282     -0.1241
    106  CA        -1.0000   -1.4270   26.4630 C.3   282  PHE282      0.1605
    107  C         -2.0890   -0.9430   27.3990 C.2   282  PHE282      0.2264
    108  O         -2.8710   -1.7520   27.9370 O.2   282  PHE282     -0.2867
    109  CB        -1.4270   -1.1890   25.0090 C.3   282  PHE282      0.0534
    110  CG        -0.2820   -0.9620   24.0620 C.ar  282  PHE282     -0.0203
    111  CD1        0.5810    0.1060   24.2320 C.ar  282  PHE282     -0.0042
    112  CD2       -0.0780   -1.8120   22.9920 C.ar  282  PHE282     -0.0042
    113  CE1        1.6450    0.3280   23.3470 C.ar  282  PHE282     -0.0003
    114  CE2        0.9820   -1.5950   22.1050 C.ar  282  PHE282     -0.0003
    115  CZ         1.8420   -0.5130   22.2890 C.ar  282  PHE282     -0.0000
    116  N         -2.1960   -3.7450   14.5580 N.3   342  CYS342     -0.1235
    117  CA        -0.8870   -3.4520   13.9770 C.3   342  CYS342      0.1677
    118  C         -0.9120   -3.1480   12.5000 C.2   342  CYS342      0.2270
    119  O         -1.1660   -4.0220   11.6980 O.2   342  CYS342     -0.2867
    120  CB         0.0460   -4.6190   14.1900 C.3   342  CYS342      0.0956
    121  SG         1.7020   -4.2610   13.5910 S.3   342  CYS342     -0.0801
@<TRIPOS>BOND
     1   119   118    2
     2    63    64    1
     3    25    23    1
     4   118   117    1
     5    64    65    1
     6    64    67    1
     7    23    22    1
     8   121   120    1
     9    78    75    1
    10    78    79    1
    11    76    75    1
    12    76    77    2
    13    74    65   am
    14    74    75    1
    15    22    24    1
    16    22    19    1
    17    65    66    2
    18   117   120    1
    19   117   116    1
    20    67    68    1
    21    19    18    1
    22    19    20    1
    23    88    89    2
    24    88    87    1
    25    80    81    1
    26    68    69    1
    27    96    95    1
    28    90    87    1
    29    86    87    1
    30    86    82   am
    31    20    21    2
    32    20    26   am
    33    69    70    1
    34    81    82    1
    35    81    84    1
    36    17    16    1
    37    93    94    2
    38    93    92    1
    39    26    27    1
    40    82    83    2
    41    95    92    1
    42    95    97    1
    43    70    71    2
    44    14    13    1
    45    14    15    2
    46    84    85    1
    47    92    91    1
    48    13    16    1
    49    13    12    1
    50    71    72    1
    51    71    73    1
    52    27    30    1
    53    27    28    1
    54    30    31    1
    55    28    29    2
    56    10     9    1
    57    32    31    1
    58    31    33    1
    59    11     9    1
    60     9     8    2
    61    51    50   ar
    62    51    49   ar
    63    50    48   ar
    64     8     7    1
    65   104   102    1
    66    40    38    1
    67     7     6    1
    68    49    47   ar
    69    39    38    1
    70    48    46   ar
    71    38    35    1
    72   102   103    1
    73   102    99    1
    74     6     5    1
    75   114   115   ar
    76   114   112   ar
    77     5     2    1
    78   115   113   ar
    79     3     4    2
    80     3     2    1
    81    98    99    1
    82    47    46   ar
    83    46    45    1
    84    62    61   ar
    85    62    60   ar
    86   112   110   ar
    87    99   100    1
    88     2     1    1
    89   113   111   ar
    90    61    59   ar
    91    35    34    1
    92    35    36    1
    93   101   100    2
    94    60    58   ar
    95   110   111   ar
    96   110   109    1
    97    36    41   am
    98    36    37    2
    99    45    42    1
   100    41    42    1
   101    59    57   ar
   102    42    43    1
   103   109   106    1
   104    58    57   ar
   105    57    56    1
   106    43    44    2
   107   106   105    1
   108   106   107    1
   109    56    53    1
   110   107   108    2
   111    52    53    1
   112    53    54    1
   113    54    55    2
