@<TRIPOS>MOLECULE
tmp/5uvcA00.pdb
 157 145 0 0 0
SMALL
GASTEIGER

@<TRIPOS>ATOM
      1  N         20.1570   36.9300   -1.3930 N.3   141  ILE141     -0.1231
      2  CA        19.2810   35.8320   -1.8420 C.3   141  ILE141      0.1692
      3  C         17.8060   36.2630   -1.9960 C.2   141  ILE141      0.2593
      4  O         16.9050   35.4230   -2.0530 O.2   141  ILE141     -0.2718
      5  CB        19.3960   34.6030   -0.8960 C.3   141  ILE141      0.0266
      6  CG1       19.0470   34.9820    0.5510 C.3   141  ILE141      0.0019
      7  CG2       20.8050   34.0200   -0.9530 C.3   141  ILE141      0.0020
      8  CD1       18.9300   33.7960    1.4820 C.3   141  ILE141      0.0001
      9  N         17.5760   37.5680   -2.1140 N.am  142  GLY142     -0.1942
     10  CA        16.2240   38.1220   -2.1460 C.3   142  GLY142      0.2014
     11  C         16.2610   39.6400   -2.1080 C.2   142  GLY142      0.2639
     12  O         17.1860   40.2290   -1.5450 O.2   142  GLY142     -0.2714
     13  N         15.2600   40.2690   -2.7200 N.am  143  ARG143     -0.1963
     14  CA        15.1780   41.7300   -2.8020 C.3   143  ARG143      0.1729
     15  C         13.7230   42.1700   -2.6630 C.2   143  ARG143      0.2617
     16  O         12.8080   41.4340   -3.0490 O.2   143  ARG143     -0.2715
     17  CB        15.7730   42.2270   -4.1340 C.3   143  ARG143      0.0348
     18  CG        17.2970   42.3250   -4.1370 C.3   143  ARG143      0.0492
     19  CD        17.8870   42.4480   -5.5400 C.3   143  ARG143      0.2205
     20  NE        19.3470   42.6290   -5.4990 N.pl3 143  ARG143     -0.0865
     21  CZ        20.1590   42.6460   -6.5630 C.cat 143  ARG143      0.5346
     22  NH1       19.6800   42.4870   -7.7990 N.pl3 143  ARG143      0.1354
     23  NH2       21.4690   42.8220   -6.3890 N.pl3 143  ARG143      0.1354
     24  N         13.5150   43.3570   -2.0950 N.am  144  GLY144     -0.1940
     25  CA        12.1680   43.9100   -1.9360 C.3   144  GLY144      0.2014
     26  C         12.1170   45.4240   -1.8210 C.2   144  GLY144      0.2639
     27  O         13.1230   46.1130   -2.0180 O.2   144  GLY144     -0.2714
     28  N         10.9290   45.9280   -1.4910 N.am  145  GLY145     -0.1939
     29  CA        10.6370   47.3590   -1.5140 C.3   145  GLY145      0.2014
     30  C         11.4460   48.1950   -0.5360 C.2   145  GLY145      0.2639
     31  O         11.8780   49.2990   -0.8750 O.2   145  GLY145     -0.2714
     32  N         11.6470   47.6740    0.6770 N.am  146  PHE146     -0.1959
     33  CA        12.3640   48.4030    1.7400 C.3   146  PHE146      0.1771
     34  C         13.7800   47.8700    2.0270 C.2   146  PHE146      0.2620
     35  O         14.5120   48.4720    2.8080 O.2   146  PHE146     -0.2715
     36  CB        11.5500   48.3830    3.0420 C.3   146  PHE146      0.0574
     37  CG        10.1140   48.8300    2.8820 C.ar  146  PHE146     -0.0200
     38  CD1        9.8080   50.0590    2.2990 C.ar  146  PHE146     -0.0042
     39  CD2        9.0630   48.0310    3.3450 C.ar  146  PHE146     -0.0042
     40  CE1        8.4880   50.4720    2.1620 C.ar  146  PHE146     -0.0003
     41  CE2        7.7440   48.4410    3.2070 C.ar  146  PHE146     -0.0003
     42  CZ         7.4570   49.6660    2.6160 C.ar  146  PHE146     -0.0000
     43  N         14.1650   46.7490    1.4160 N.am  147  GLY147     -0.1954
     44  CA        15.4930   46.1750    1.6530 C.3   147  GLY147      0.1869
     45  C         15.7490   44.8730    0.9130 C.2   147  GLY147      0.2309
     46  O         15.1600   44.6250   -0.1430 O.2   147  GLY147     -0.2863
     47  N         17.5030   40.4490    1.4030 N.3   149  VAL149     -0.1245
     48  CA        17.6870   39.2610    2.2540 C.3   149  VAL149      0.1561
     49  C         19.0350   38.6130    1.9440 C.2   149  VAL149      0.2260
     50  O         19.3580   38.3670    0.7810 O.2   149  VAL149     -0.2867
     51  CB        16.5780   38.2070    2.0100 C.3   149  VAL149      0.0252
     52  CG1       16.5120   37.2140    3.1670 C.3   149  VAL149      0.0019
     53  CG2       15.2280   38.8770    1.8010 C.3   149  VAL149      0.0019
     54  N         18.6000   32.9450    7.0740 N.3   162  ALA162     -0.1245
     55  CA        18.3560   34.1090    6.2260 C.3   162  ALA162      0.1562
     56  C         18.1870   35.3390    7.1150 C.2   162  ALA162      0.2260
     57  O         17.4770   35.2930    8.1250 O.2   162  ALA162     -0.2867
     58  CB        17.1180   33.9000    5.3740 C.3   162  ALA162      0.0290
     59  N         16.7320   38.9500    6.7940 N.3   164  LYS164     -0.1245
     60  CA        16.0050   39.9920    6.0630 C.3   164  LYS164      0.1561
     61  C         16.3290   41.3390    6.6960 C.2   164  LYS164      0.2260
     62  O         16.0310   41.5750    7.8700 O.2   164  LYS164     -0.2867
     63  CB        14.4910   39.7520    6.0670 C.3   164  LYS164      0.0271
     64  CG        13.7300   40.6860    5.1230 C.3   164  LYS164      0.0035
     65  CD        12.2140   40.5640    5.2550 C.3   164  LYS164      0.0206
     66  CE        11.6070   39.6020    4.2480 C.3   164  LYS164      0.1093
     67  NZ        10.1320   39.7860    4.1810 N.3   164  LYS164     -0.1314
     68  N         15.8720   45.2620    6.4330 N.3   166  LEU166     -0.1245
     69  CA        15.1580   46.4380    5.9220 C.3   166  LEU166      0.1561
     70  C         15.8790   47.7280    6.3130 C.2   166  LEU166      0.2260
     71  O         16.2540   47.9020    7.4700 O.2   166  LEU166     -0.2867
     72  CB        13.7300   46.4790    6.4660 C.3   166  LEU166      0.0270
     73  CG        12.8840   45.2220    6.3080 C.3   166  LEU166      0.0019
     74  CD1       11.4850   45.4790    6.8500 C.3   166  LEU166      0.0001
     75  CD2       12.8320   44.7790    4.8510 C.3   166  LEU166      0.0001
     76  N          4.7030   43.0230    9.9880 N.3   183  GLU183     -0.1245
     77  CA         5.4680   41.8120    9.6980 C.3   183  GLU183      0.1567
     78  C          6.0920   41.2240   10.9750 C.2   183  GLU183      0.2260
     79  O          6.1000   40.0040   11.1700 O.2   183  GLU183     -0.2867
     80  CB         6.5620   42.1030    8.6580 C.3   183  GLU183      0.0388
     81  CG         7.0750   40.8680    7.9290 C.3   183  GLU183      0.1160
     82  CD         8.2880   41.1640    7.0690 C.2   183  GLU183      0.3649
     83  OE1        9.3210   41.5820    7.6280 O.co2 183  GLU183     -0.2457
     84  OE2        8.2180   40.9740    5.8380 O.co2 183  GLU183     -0.2457
     85  N          8.0890   30.2800    6.6050 N.3   199  VAL199     -0.1245
     86  CA         9.3740   30.9170    6.8440 C.3   199  VAL199      0.1561
     87  C          9.2790   31.6970    8.1510 C.2   199  VAL199      0.2260
     88  O          8.8450   32.8420    8.1640 O.2   199  VAL199     -0.2867
     89  CB         9.7840   31.8610    5.6970 C.3   199  VAL199      0.0252
     90  CG1       11.1390   32.4970    5.9960 C.3   199  VAL199      0.0019
     91  CG2        9.8200   31.1000    4.3760 C.3   199  VAL199      0.0019
     92  N         15.5190   34.6750    9.8500 N.3   215  LEU215     -0.1231
     93  CA        14.4460   33.8080    9.3670 C.3   215  LEU215      0.1693
     94  C         14.9890   32.4690    8.8930 C.2   215  LEU215      0.2592
     95  O         16.1820   32.3460    8.6030 O.2   215  LEU215     -0.2718
     96  CB        13.7250   34.4820    8.2020 C.3   215  LEU215      0.0284
     97  CG        13.0870   35.8550    8.4410 C.3   215  LEU215      0.0019
     98  CD1       12.7410   36.5000    7.1070 C.3   215  LEU215      0.0001
     99  CD2       11.8500   35.7430    9.3210 C.3   215  LEU215      0.0001
    100  N         14.1030   31.4720    8.7920 N.am  216  ASP216     -0.1974
    101  CA        14.4520   30.1750    8.1840 C.3   216  ASP216      0.1709
    102  C         15.0700   30.4070    6.8170 C.2   216  ASP216      0.2293
    103  O         14.4730   31.0840    5.9860 O.2   216  ASP216     -0.2864
    104  CB        13.2090   29.2940    7.9980 C.3   216  ASP216      0.1436
    105  CG        12.6440   28.7700    9.3110 C.2   216  ASP216      0.3671
    106  OD1       13.4310   28.4460   10.2320 O.co2 216  ASP216     -0.2456
    107  OD2       11.4050   28.6740    9.4190 O.co2 216  ASP216     -0.2456
    108  N         15.8280   29.8520    3.1520 N.3   218  MET218     -0.1245
    109  CA        15.2490   29.2240    1.9740 C.3   218  MET218      0.1570
    110  C         16.0940   29.5820    0.7630 C.2   218  MET218      0.2261
    111  O         16.0290   30.6860    0.2430 O.2   218  MET218     -0.2867
    112  CB        13.8010   29.6650    1.7890 C.3   218  MET218      0.0387
    113  CG        12.8920   29.2380    2.9360 C.3   218  MET218      0.0595
    114  SD        12.8670   27.4450    3.1920 S.3   218  MET218     -0.1393
    115  CE        11.6450   26.9450    1.9850 C.3   218  MET218      0.0692
    116  N         -1.9250   37.0810    0.9230 N.3   261  ASP261     -0.1239
    117  CA        -1.0830   37.2480   -0.2650 C.3   261  ASP261      0.1674
    118  C         -0.5520   35.9030   -0.7930 C.2   261  ASP261      0.2266
    119  O          0.6120   35.7980   -1.1990 O.2   261  ASP261     -0.2867
    120  CB         0.0750   38.2070    0.0590 C.3   261  ASP261      0.1410
    121  CG         0.6470   38.8910   -1.1790 C.2   261  ASP261      0.3668
    122  OD1       -0.0590   39.0040   -2.2040 O.co2 261  ASP261     -0.2456
    123  OD2        1.8120   39.3310   -1.1170 O.co2 261  ASP261     -0.2456
    124  N          8.5520   29.7620   -1.2010 N.3   268  LEU268     -0.1245
    125  CA         9.9850   29.5470   -1.3480 C.3   268  LEU268      0.1561
    126  C         10.3200   28.0730   -1.2120 C.2   268  LEU268      0.2260
    127  O          9.6520   27.3360   -0.4750 O.2   268  LEU268     -0.2867
    128  CB        10.7590   30.3430   -0.2920 C.3   268  LEU268      0.0270
    129  CG        10.5670   31.8670   -0.2910 C.3   268  LEU268      0.0019
    130  CD1       11.5170   32.5060    0.7040 C.3   268  LEU268      0.0001
    131  CD2       10.7670   32.4860   -1.6660 C.3   268  LEU268      0.0001
    132  N          6.3730   32.4050    2.7060 N.3   278  SER278     -0.1202
    133  CA         7.2290   33.5190    3.1690 C.3   278  SER278      0.2020
    134  C          6.4330   34.8130    3.1840 C.2   278  SER278      0.2618
    135  O          5.2440   34.7880    2.9380 O.2   278  SER278     -0.2717
    136  CB         8.4710   33.6570    2.2730 C.3   278  SER278      0.2103
    137  OG         8.2810   34.6030    1.2270 O.3   278  SER278     -0.2182
    138  N          7.0950   35.9330    3.4840 N.am  279  ASP279     -0.1973
    139  CA         6.4930   37.2850    3.3940 C.3   279  ASP279      0.1709
    140  C          5.1160   37.4040    4.0790 C.2   279  ASP279      0.2293
    141  O          4.0710   37.2900    3.4300 O.2   279  ASP279     -0.2864
    142  CB         6.4050   37.7480    1.9150 C.3   279  ASP279      0.1436
    143  CG         7.5640   38.6610    1.4980 C.2   279  ASP279      0.3671
    144  OD1        8.5390   38.8080    2.2650 O.co2 279  ASP279     -0.2456
    145  OD2        7.4960   39.2390    0.3880 O.co2 279  ASP279     -0.2456
    146  N          4.1900   40.2290    5.5600 N.3   281  GLY281     -0.1210
    147  CA         3.9420   41.6680    5.6370 C.3   281  GLY281      0.1956
    148  C          2.4830   42.0600    5.4520 C.2   281  GLY281      0.2611
    149  O          2.0040   42.9960    6.1000 O.2   281  GLY281     -0.2717
    150  N          1.7800   41.3290    4.5820 N.am  282  LEU282     -0.1979
    151  CA         0.3720   41.6090    4.2580 C.3   282  LEU282      0.1596
    152  C         -0.6320   40.8120    5.1110 C.2   282  LEU282      0.2287
    153  O         -1.8330   41.0480    5.0270 O.2   282  LEU282     -0.2864
    154  CB         0.1120   41.3600    2.7570 C.3   282  LEU282      0.0297
    155  CG         0.3890   42.5340    1.8050 C.3   282  LEU282      0.0022
    156  CD1        1.7500   43.1710    2.0480 C.3   282  LEU282      0.0001
    157  CD2        0.2710   42.0760    0.3600 C.3   282  LEU282      0.0001
@<TRIPOS>BOND
     1    22    21    1
     2    21    23    1
     3    21    20    2
     4    19    20    1
     5    19    18    1
     6    18    17    1
     7    17    14    1
     8    16    15    2
     9    14    13    1
    10    14    15    1
    11    13    11   am
    12    15    24   am
    13   122   121   ar
    14    10     9    1
    15    10    11    1
    16     9     3   am
    17    11    12    2
    18    24    25    1
    19     4     3    2
    20    27    26    2
    21     3     2    1
    22    25    26    1
    23     2     1    1
    24     2     5    1
    25    26    28   am
    26   131   129    1
    27    29    28    1
    28    29    30    1
    29   125   126    1
    30   125   124    1
    31   125   128    1
    32   126   127    2
    33   119   118    2
    34   121   123   ar
    35   121   120    1
    36     7     5    1
    37     5     6    1
    38    31    30    2
    39   118   117    1
    40    30    32   am
    41   128   129    1
    42   129   130    1
    43   117   120    1
    44   117   116    1
    45    46    45    2
    46   111   110    2
    47   157   155    1
    48   145   143   ar
    49     6     8    1
    50    32    33    1
    51   110   109    1
    52    50    49    2
    53    45    44    1
    54   137   136    1
    55    47    48    1
    56    43    44    1
    57    43    34   am
    58   143   142    1
    59   143   144   ar
    60    33    34    1
    61    33    36    1
    62   112   109    1
    63   112   113    1
    64    53    51    1
    65   155   156    1
    66   155   154    1
    67   142   139    1
    68    49    48    1
    69   109   108    1
    70   115   114    1
    71    51    48    1
    72    51    52    1
    73    34    35    2
    74    40    38   ar
    75    40    42   ar
    76   136   133    1
    77    38    37   ar
    78    42    41   ar
    79   132   133    1
    80   154   151    1
    81    37    36    1
    82    37    39   ar
    83   113   114    1
    84   135   134    2
    85   133   134    1
    86   134   138   am
    87    41    39   ar
    88   139   138    1
    89   139   140    1
    90   141   140    2
    91    67    66    1
    92    66    65    1
    93   151   150    1
    94   151   152    1
    95    91    89    1
    96   150   148   am
    97    75    73    1
    98   153   152    2
    99    64    65    1
   100    64    63    1
   101    58    55    1
   102   148   147    1
   103   148   149    2
   104   146   147    1
   105    89    90    1
   106    89    86    1
   107    84    82   ar
   108    69    70    1
   109    69    68    1
   110    69    72    1
   111   103   102    2
   112    60    63    1
   113    60    61    1
   114    60    59    1
   115    55    54    1
   116    55    56    1
   117    73    72    1
   118    73    74    1
   119    70    71    2
   120    85    86    1
   121    61    62    2
   122   102   101    1
   123    86    87    1
   124    82    83   ar
   125    82    81    1
   126    98    97    1
   127    56    57    2
   128    81    80    1
   129   104   101    1
   130   104   105    1
   131    87    88    2
   132   101   100    1
   133    96    97    1
   134    96    93    1
   135    97    99    1
   136    95    94    2
   137    80    77    1
   138   100    94   am
   139    94    93    1
   140   105   107   ar
   141   105   106   ar
   142    93    92    1
   143    77    76    1
   144    77    78    1
   145    78    79    2
