@<TRIPOS>MOLECULE
tmp/5uvfC01.pdb
 81 75 0 0 0
SMALL
GASTEIGER

@<TRIPOS>ATOM
      1  N        -10.0800    3.7260   63.3580 N.3   189  SER189     -0.1202
      2  CA        -8.6490    3.5570   63.5350 C.3   189  SER189      0.2020
      3  C         -8.1460    4.0850   64.8900 C.2   189  SER189      0.2619
      4  O         -8.7480    5.0000   65.4810 O.2   189  SER189     -0.2717
      5  CB        -7.8990    4.2480   62.4020 C.3   189  SER189      0.2103
      6  OG        -8.0030    5.6580   62.4950 O.3   189  SER189     -0.2182
      7  N         -6.9910    3.5580   65.3360 N.am  190  ILE190     -0.1965
      8  CA        -6.3050    4.0590   66.5390 C.3   190  ILE190      0.1727
      9  C         -6.0140    5.5700   66.3560 C.2   190  ILE190      0.2616
     10  O         -6.2050    6.3410   67.2980 O.2   190  ILE190     -0.2715
     11  CB        -5.0200    3.2230   66.8040 C.3   190  ILE190      0.0290
     12  CG1       -5.3840    1.8260   67.3360 C.3   190  ILE190      0.0022
     13  CG2       -4.0290    3.9410   67.7670 C.3   190  ILE190      0.0023
     14  CD1       -4.2570    0.7610   67.0730 C.3   190  ILE190      0.0001
     15  N         -5.5980    5.9930   65.1320 N.am  191  ASP191     -0.1971
     16  CA        -5.3480    7.4180   64.8240 C.3   191  ASP191      0.1709
     17  C         -6.5850    8.2390   65.1530 C.2   191  ASP191      0.2293
     18  O         -6.4490    9.2450   65.8320 O.2   191  ASP191     -0.2864
     19  CB        -4.9810    7.6290   63.3400 C.3   191  ASP191      0.1436
     20  CG        -3.5570    7.2220   62.9940 C.2   191  ASP191      0.3671
     21  OD1       -2.6700    7.3700   63.8590 O.co2 191  ASP191     -0.2456
     22  OD2       -3.3360    6.7280   61.8630 O.co2 191  ASP191     -0.2456
     23  N         -3.3280    4.7770   56.1940 N.3   201  ARG201     -0.1231
     24  CA        -3.1760    3.5780   57.0510 C.3   201  ARG201      0.1694
     25  C         -4.4470    3.2810   57.8520 C.2   201  ARG201      0.2592
     26  O         -4.7690    2.1120   58.0350 O.2   201  ARG201     -0.2718
     27  CB        -1.9380    3.6800   57.9880 C.3   201  ARG201      0.0321
     28  CG        -2.0180    4.7130   59.1020 C.3   201  ARG201      0.0489
     29  CD        -0.7490    4.7030   59.9350 C.3   201  ARG201      0.2205
     30  NE        -0.8580    5.5260   61.1480 N.pl3 201  ARG201     -0.0865
     31  CZ         0.0920    5.5680   62.0770 C.cat 201  ARG201      0.5346
     32  NH1        1.1950    4.8400   61.9420 N.pl3 201  ARG201      0.1354
     33  NH2       -0.0540    6.3320   63.1490 N.pl3 201  ARG201      0.1354
     34  N         -5.1370    4.3330   58.3250 N.am  202  GLY202     -0.1957
     35  CA        -6.3860    4.2030   59.0900 C.3   202  GLY202      0.1869
     36  C         -7.5020    3.5420   58.2870 C.2   202  GLY202      0.2309
     37  O         -8.2140    2.6790   58.8060 O.2   202  GLY202     -0.2863
     38  N         -6.6210   -0.0560   58.2010 N.3   205  GLU205     -0.1245
     39  CA        -6.8080   -0.6290   59.5480 C.3   205  GLU205      0.1567
     40  C         -8.2880   -0.9060   59.7660 C.2   205  GLU205      0.2260
     41  O         -8.6370   -1.9800   60.2320 O.2   205  GLU205     -0.2867
     42  CB        -6.2700    0.3470   60.6260 C.3   205  GLU205      0.0388
     43  CG        -6.4300   -0.1140   62.0820 C.3   205  GLU205      0.1160
     44  CD        -6.1500    1.0100   63.0720 C.2   205  GLU205      0.3649
     45  OE1       -5.6030    2.0490   62.6480 O.co2 205  GLU205     -0.2457
     46  OE2       -6.5330    0.8930   64.2530 O.co2 205  GLU205     -0.2457
     47  N         -2.7370   -4.2570   68.4410 N.3   239  ARG239     -0.1245
     48  CA        -1.8270   -3.8720   67.3620 C.3   239  ARG239      0.1563
     49  C         -0.3830   -4.2000   67.7970 C.2   239  ARG239      0.2260
     50  O          0.4110   -4.6660   66.9800 O.2   239  ARG239     -0.2867
     51  CB        -1.9910   -2.3890   67.0230 C.3   239  ARG239      0.0307
     52  CG        -1.0790   -1.9050   65.9030 C.3   239  ARG239      0.0489
     53  CD        -1.2380   -0.4270   65.7040 C.3   239  ARG239      0.2205
     54  NE        -0.3840    0.1120   64.6470 N.pl3 239  ARG239     -0.0865
     55  CZ         0.7790    0.7120   64.8640 C.cat 239  ARG239      0.5346
     56  NH1        1.2540    0.8270   66.0960 N.pl3 239  ARG239      0.1354
     57  NH2        1.4750    1.2040   63.8510 N.pl3 239  ARG239      0.1354
     58  N         -2.7600   -7.5520   58.6700 N.3   263  MET263     -0.1245
     59  CA        -2.6750   -6.6850   59.8710 C.3   263  MET263      0.1570
     60  C         -1.2320   -6.2920   60.2070 C.2   263  MET263      0.2261
     61  O         -0.9830   -5.1340   60.5610 O.2   263  MET263     -0.2867
     62  CB        -3.3910   -7.2950   61.1080 C.3   263  MET263      0.0387
     63  CG        -4.8940   -7.5340   60.9230 C.3   263  MET263      0.0595
     64  SD        -5.8340   -6.0280   60.5650 S.3   263  MET263     -0.1393
     65  CE        -6.1980   -5.4420   62.2410 C.3   263  MET263      0.0692
     66  N         -0.1780   -3.5800   57.5220 N.3   266  VAL266     -0.1231
     67  CA        -0.7990   -2.2960   57.8780 C.3   266  VAL266      0.1692
     68  C         -0.0920   -1.6960   59.1420 C.2   266  VAL266      0.2591
     69  O          0.1120   -0.4860   59.2080 O.2   266  VAL266     -0.2718
     70  CB        -2.3310   -2.4660   58.0510 C.3   266  VAL266      0.0266
     71  CG1       -2.9610   -1.2130   58.6470 C.3   266  VAL266      0.0020
     72  CG2       -2.9760   -2.8000   56.6980 C.3   266  VAL266      0.0020
     73  N          0.3000   -2.5470   60.1090 N.am  267  LYS267     -0.1980
     74  CA         1.0380   -2.1080   61.3050 C.3   267  LYS267      0.1596
     75  C          2.3650   -1.3790   60.9450 C.2   267  LYS267      0.2287
     76  O          2.7440   -0.4390   61.6390 O.2   267  LYS267     -0.2864
     77  CB         1.2830   -3.3020   62.2540 C.3   267  LYS267      0.0298
     78  CG         1.8190   -2.9030   63.6460 C.3   267  LYS267      0.0038
     79  CD         2.3200   -4.1040   64.4270 C.3   267  LYS267      0.0206
     80  CE         3.1330   -3.7170   65.6560 C.3   267  LYS267      0.1093
     81  NZ         3.3280   -4.8910   66.5590 N.3   267  LYS267     -0.1314
@<TRIPOS>BOND
     1    23    24    1
     2    72    70    1
     3    24    25    1
     4    24    27    1
     5    66    67    1
     6    25    26    2
     7    25    34   am
     8    67    70    1
     9    67    68    1
    10    27    28    1
    11    70    71    1
    12    38    39    1
    13    36    37    2
    14    36    35    1
    15    34    35    1
    16    58    59    1
    17    28    29    1
    18    68    69    2
    19    68    73   am
    20    39    40    1
    21    39    42    1
    22    40    41    2
    23    59    60    1
    24    59    62    1
    25    29    30    1
    26    73    74    1
    27    60    61    2
    28    64    63    1
    29    64    65    1
    30    42    43    1
    31    63    62    1
    32    75    74    1
    33    75    76    2
    34    30    31    2
    35    74    77    1
    36    22    20   ar
    37    32    31    1
    38    31    33    1
    39    43    44    1
    40    77    78    1
    41     5     6    1
    42     5     2    1
    43    45    44   ar
    44    20    19    1
    45    20    21   ar
    46    44    46   ar
    47    19    16    1
    48     1     2    1
    49     2     3    1
    50    78    79    1
    51    57    55    1
    52    79    80    1
    53    54    55    2
    54    54    53    1
    55    16    15    1
    56    16    17    1
    57    55    56    1
    58     3     7   am
    59     3     4    2
    60    15     9   am
    61    17    18    2
    62     7     8    1
    63    80    81    1
    64    53    52    1
    65    52    51    1
    66     9     8    1
    67     9    10    2
    68     8    11    1
    69    11    12    1
    70    11    13    1
    71    50    49    2
    72    51    48    1
    73    14    12    1
    74    48    49    1
    75    48    47    1
