@<TRIPOS>MOLECULE
tmp/5uvfB00.pdb
 153 145 0 0 0
SMALL
GASTEIGER

@<TRIPOS>ATOM
      1  N        -25.2570  -64.6560   37.5620 N.3    23  ILE23      -0.1245
      2  CA       -26.4280  -64.1020   36.8690 C.3    23  ILE23       0.1561
      3  C        -26.1740  -63.9430   35.3700 C.2    23  ILE23       0.2260
      4  O        -25.0770  -64.2380   34.9010 O.2    23  ILE23      -0.2867
      5  CB       -26.9420  -62.7880   37.5350 C.3    23  ILE23       0.0252
      6  CG1      -25.7870  -61.7840   37.7850 C.3    23  ILE23       0.0019
      7  CG2      -27.7210  -63.0920   38.8280 C.3    23  ILE23       0.0019
      8  CD1      -26.2100  -60.3960   37.9970 C.3    23  ILE23       0.0001
      9  N        -20.5790  -62.8460   35.6040 N.3    26  ILE26      -0.1245
     10  CA       -21.1250  -61.8980   36.5700 C.3    26  ILE26       0.1561
     11  C        -21.8540  -62.6360   37.6930 C.2    26  ILE26       0.2260
     12  O        -22.6010  -63.5860   37.4440 O.2    26  ILE26      -0.2867
     13  CB       -22.0450  -60.8410   35.8730 C.3    26  ILE26       0.0252
     14  CG1      -21.3050  -60.1020   34.7250 C.3    26  ILE26       0.0019
     15  CG2      -22.6090  -59.8220   36.8790 C.3    26  ILE26       0.0019
     16  CD1      -22.2160  -59.5850   33.6120 C.3    26  ILE26       0.0001
     17  N        -23.0310  -56.3010   41.9400 N.3    44  VAL44      -0.1245
     18  CA       -22.6620  -57.3710   41.0390 C.3    44  VAL44       0.1561
     19  C        -21.1570  -57.3280   40.9280 C.2    44  VAL44       0.2260
     20  O        -20.5460  -56.2770   41.0500 O.2    44  VAL44      -0.2867
     21  CB       -23.2790  -57.2470   39.6370 C.3    44  VAL44       0.0252
     22  CG1      -24.7820  -57.4510   39.6810 C.3    44  VAL44       0.0019
     23  CG2      -22.9080  -55.9240   38.9930 C.3    44  VAL44       0.0019
     24  N        -18.1220  -58.4160   38.3650 N.3    46  LYS46      -0.1245
     25  CA       -17.7720  -58.8110   37.0170 C.3    46  LYS46       0.1561
     26  C        -16.3590  -59.3660   37.0020 C.2    46  LYS46       0.2260
     27  O        -15.4590  -58.7600   37.5570 O.2    46  LYS46      -0.2867
     28  CB       -17.8900  -57.5930   36.1010 C.3    46  LYS46       0.0271
     29  CG       -17.6640  -57.8530   34.6310 C.3    46  LYS46       0.0035
     30  CD       -18.1380  -56.6680   33.8060 C.3    46  LYS46       0.0206
     31  CE       -18.0150  -56.9370   32.3160 C.3    46  LYS46       0.1093
     32  NZ       -19.2500  -56.5460   31.5850 N.3    46  LYS46      -0.1314
     33  N        -13.2290  -50.2680   30.8350 N.3    58  GLU58      -0.1245
     34  CA       -14.4040  -50.0850   31.6930 C.3    58  GLU58       0.1567
     35  C        -13.9860  -49.7650   33.1290 C.2    58  GLU58       0.2260
     36  O        -14.5510  -48.8700   33.7470 O.2    58  GLU58      -0.2867
     37  CB       -15.2590  -51.3520   31.6530 C.3    58  GLU58       0.0388
     38  CG       -16.5030  -51.2500   32.4980 C.3    58  GLU58       0.1160
     39  CD       -17.5980  -52.1990   32.0720 C.2    58  GLU58       0.3649
     40  OE1      -17.3810  -53.4230   32.1570 O.co2  58  GLU58      -0.2457
     41  OE2      -18.6680  -51.7220   31.6450 O.co2  58  GLU58      -0.2457
     42  N        -14.7570  -46.3170   35.2340 N.3    62  TYR62      -0.1241
     43  CA       -15.3760  -46.4140   36.5470 C.3    62  TYR62       0.1605
     44  C        -14.5100  -45.7820   37.6550 C.2    62  TYR62       0.2264
     45  O        -15.0190  -45.0300   38.4650 O.2    62  TYR62      -0.2867
     46  CB       -15.8200  -47.8650   36.8460 C.3    62  TYR62       0.0534
     47  CG       -17.1710  -48.2580   36.2310 C.ar   62  TYR62      -0.0201
     48  CD1      -18.3170  -47.5890   36.5610 C.ar   62  TYR62      -0.0009
     49  CD2      -17.2940  -49.3010   35.3420 C.ar   62  TYR62      -0.0009
     50  CE1      -19.5390  -47.9140   36.0260 C.ar   62  TYR62       0.0417
     51  CE2      -18.5100  -49.6410   34.7940 C.ar   62  TYR62       0.0417
     52  CZ       -19.6320  -48.9410   35.1440 C.ar   62  TYR62       0.1957
     53  OH       -20.8500  -49.2590   34.6190 O.3    62  TYR62      -0.2866
     54  N        -23.7110  -45.9700   36.8750 N.3    86  PRO86      -0.2116
     55  CA       -23.5450  -46.9530   37.9590 C.3    86  PRO86       0.1372
     56  C        -22.3580  -46.5770   38.8620 C.2    86  PRO86       0.2244
     57  O        -21.3220  -46.1790   38.3500 O.2    86  PRO86      -0.2868
     58  CB       -23.2440  -48.2650   37.2080 C.3    86  PRO86       0.0268
     59  CG       -23.8190  -48.0650   35.8310 C.3    86  PRO86       0.0207
     60  CD       -23.5510  -46.6010   35.5460 C.3    86  PRO86       0.0892
     61  N        -19.8130  -53.4210   41.0180 N.3   106  MET106     -0.1230
     62  CA       -20.6570  -52.3130   40.6150 C.3   106  MET106      0.1702
     63  C        -22.0680  -52.4780   41.1320 C.2   106  MET106      0.2592
     64  O        -22.4160  -53.5030   41.6800 O.2   106  MET106     -0.2718
     65  CB       -20.7540  -52.2210   39.0990 C.3   106  MET106      0.0401
     66  CG       -19.4560  -52.1300   38.3430 C.3   106  MET106      0.0596
     67  SD       -19.8030  -52.6960   36.6730 S.3   106  MET106     -0.1393
     68  CE       -19.4710  -54.4390   36.8640 C.3   106  MET106      0.0692
     69  N        -22.8730  -51.4460   40.9200 N.am  107  ASP107     -0.1960
     70  CA       -24.2680  -51.4410   41.3040 C.3   107  ASP107      0.1840
     71  C        -25.0190  -52.5420   40.5690 C.2   107  ASP107      0.2622
     72  O        -24.7510  -52.8320   39.4090 O.2   107  ASP107     -0.2715
     73  CB       -24.9190  -50.1180   40.9170 C.3   107  ASP107      0.1450
     74  CG       -24.6860  -49.0180   41.9220 C.2   107  ASP107      0.3671
     75  OD1      -24.2690  -49.2940   43.0590 O.co2 107  ASP107     -0.2456
     76  OD2      -24.9380  -47.8600   41.5610 O.co2 107  ASP107     -0.2456
     77  N        -25.9810  -53.1410   41.2490 N.am  108  ARG108     -0.1963
     78  CA       -26.7970  -54.1780   40.6510 C.3   108  ARG108      0.1729
     79  C        -28.1100  -53.5510   40.2060 C.2   108  ARG108      0.2616
     80  O        -28.6940  -52.7570   40.9280 O.2   108  ARG108     -0.2715
     81  CB       -27.0440  -55.3060   41.6460 C.3   108  ARG108      0.0348
     82  CG       -28.0110  -56.3620   41.1560 C.3   108  ARG108      0.0492
     83  CD       -29.4420  -55.9760   41.4730 C.3   108  ARG108      0.2205
     84  NE       -30.3870  -56.9770   40.9990 N.pl3 108  ARG108     -0.0865
     85  CZ       -30.6770  -58.0970   41.6480 C.cat 108  ARG108      0.5346
     86  NH1      -30.0970  -58.3620   42.8050 N.pl3 108  ARG108      0.1354
     87  NH2      -31.5480  -58.9490   41.1390 N.pl3 108  ARG108      0.1354
     88  N        -28.5570  -53.9010   39.0060 N.am  109  PHE109     -0.1960
     89  CA       -29.7990  -53.3640   38.4730 C.3   109  PHE109      0.1771
     90  C        -30.8010  -54.4490   38.1150 C.2   109  PHE109      0.2620
     91  O        -30.5050  -55.6290   38.1630 O.2   109  PHE109     -0.2715
     92  CB       -29.5220  -52.4880   37.2520 C.3   109  PHE109      0.0574
     93  CG       -28.5720  -51.3610   37.5230 C.ar  109  PHE109     -0.0200
     94  CD1      -29.0150  -50.1980   38.1130 C.ar  109  PHE109     -0.0042
     95  CD2      -27.2380  -51.4700   37.1980 C.ar  109  PHE109     -0.0042
     96  CE1      -28.1420  -49.1650   38.3700 C.ar  109  PHE109     -0.0003
     97  CE2      -26.3610  -50.4420   37.4530 C.ar  109  PHE109     -0.0003
     98  CZ       -26.8130  -49.2880   38.0400 C.ar  109  PHE109     -0.0000
     99  N        -31.9960  -54.0180   37.7550 N.am  110  GLY110     -0.1940
    100  CA       -33.0700  -54.9160   37.3710 C.3   110  GLY110      0.2014
    101  C        -33.1160  -55.0500   35.8670 C.2   110  GLY110      0.2640
    102  O        -32.0740  -55.1520   35.2010 O.2   110  GLY110     -0.2714
    103  N        -34.3180  -54.9840   35.3180 N.am  111  SER111     -0.1935
    104  CA       -34.5670  -55.1340   33.8810 C.3   111  SER111      0.2055
    105  C        -33.8740  -54.1030   32.9880 C.2   111  SER111      0.2643
    106  O        -33.6600  -52.9620   33.3900 O.2   111  SER111     -0.2714
    107  CB       -36.0720  -55.1390   33.6060 C.3   111  SER111      0.2130
    108  OG       -36.3220  -55.3700   32.2300 O.3   111  SER111     -0.2179
    109  N        -33.5240  -54.5270   31.7670 N.am  112  ASP112     -0.1971
    110  CA       -32.9930  -53.6500   30.7390 C.3   112  ASP112      0.1709
    111  C        -34.2400  -53.1110   30.0200 C.2   112  ASP112      0.2293
    112  O        -35.3130  -53.7400   30.1010 O.2   112  ASP112     -0.2864
    113  CB       -32.0910  -54.4160   29.7650 C.3   112  ASP112      0.1436
    114  CG       -32.7870  -55.6050   29.1250 C.2   112  ASP112      0.3671
    115  OD1      -33.1020  -56.5770   29.8590 O.co2 112  ASP112     -0.2456
    116  OD2      -33.0810  -55.5360   27.9170 O.co2 112  ASP112     -0.2456
    117  N        -30.8980  -51.9720   25.3410 N.3   156  SER156     -0.1202
    118  CA       -30.2410  -53.0930   26.0140 C.3   156  SER156      0.2020
    119  C        -29.1280  -52.7000   27.0050 C.2   156  SER156      0.2618
    120  O        -28.7470  -53.4890   27.8520 O.2   156  SER156     -0.2717
    121  CB       -29.7530  -54.1300   24.9990 C.3   156  SER156      0.2103
    122  OG       -28.5180  -53.7790   24.4220 O.3   156  SER156     -0.2182
    123  N        -28.6040  -51.4890   26.8640 N.am  157  ASN157     -0.1974
    124  CA       -27.5820  -50.9070   27.7610 C.3   157  ASN157      0.1688
    125  C        -28.2030  -49.9060   28.7630 C.2   157  ASN157      0.2292
    126  O        -27.4890  -49.1650   29.4270 O.2   157  ASN157     -0.2864
    127  CB       -26.4380  -50.2270   26.9500 C.3   157  ASN157      0.1181
    128  CG       -25.4920  -51.1950   26.2950 C.2   157  ASN157      0.2629
    129  OD1      -25.3040  -52.3360   26.7510 O.2   157  ASN157     -0.2716
    130  ND2      -24.8780  -50.7670   25.2060 N.am  157  ASN157     -0.0877
    131  N        -30.6070  -49.8620   32.0230 N.3   159  LEU159     -0.1245
    132  CA       -31.0960  -50.7500   33.0810 C.3   159  LEU159      0.1561
    133  C        -31.8350  -49.9860   34.1470 C.2   159  LEU159      0.2260
    134  O        -31.4310  -48.8800   34.5090 O.2   159  LEU159     -0.2867
    135  CB       -29.8940  -51.4910   33.7200 C.3   159  LEU159      0.0270
    136  CG       -29.4130  -52.8560   33.1250 C.3   159  LEU159      0.0019
    137  CD1      -29.2810  -52.8420   31.6140 C.3   159  LEU159      0.0001
    138  CD2      -28.0830  -53.2940   33.7440 C.3   159  LEU159      0.0001
    139  N        -25.3180  -48.4840   31.0830 N.3   171  VAL171     -0.1231
    140  CA       -24.2250  -49.4100   31.4360 C.3   171  VAL171      0.1692
    141  C        -23.3330  -49.7040   30.2300 C.2   171  VAL171      0.2592
    142  O        -23.6530  -49.3000   29.0840 O.2   171  VAL171     -0.2718
    143  CB       -24.7780  -50.7340   32.0280 C.3   171  VAL171      0.0266
    144  CG1      -25.5170  -50.5000   33.3390 C.3   171  VAL171      0.0020
    145  CG2      -25.6520  -51.4700   30.9970 C.3   171  VAL171      0.0020
    146  N        -22.2590  -50.4970   30.4840 N.am  172  ASP172     -0.1974
    147  CA       -21.2980  -50.9710   29.4830 C.3   172  ASP172      0.1709
    148  C        -20.3730  -49.8840   28.9670 C.2   172  ASP172      0.2293
    149  O        -20.7050  -49.1580   28.0320 O.2   172  ASP172     -0.2864
    150  CB       -21.9770  -51.7110   28.3100 C.3   172  ASP172      0.1436
    151  CG       -21.0410  -52.6240   27.5170 C.2   172  ASP172      0.3671
    152  OD1      -19.7950  -52.4030   27.5640 O.co2 172  ASP172     -0.2456
    153  OD2      -21.5440  -53.5380   26.8400 O.co2 172  ASP172     -0.2456
@<TRIPOS>BOND
     1   122   121    1
     2   121   118    1
     3   130   128   am
     4   117   118    1
     5   118   119    1
     6   128   129    2
     7   128   127    1
     8   153   151   ar
     9   123   119   am
    10   123   124    1
    11   127   124    1
    12   119   120    2
    13   151   152   ar
    14   151   150    1
    15   124   125    1
    16   116   114   ar
    17   149   148    2
    18   150   147    1
    19   125   126    2
    20   148   147    1
    21   142   141    2
    22   114   113    1
    23   114   115   ar
    24   147   146    1
    25   113   110    1
    26   111   112    2
    27   111   110    1
    28   141   146   am
    29   141   140    1
    30   110   109    1
    31    33    34    1
    32   145   143    1
    33   139   140    1
    34   140   143    1
    35    32    31    1
    36   137   136    1
    37    41    39   ar
    38    37    34    1
    39    37    38    1
    40    34    35    1
    41   109   105   am
    42   131   132    1
    43   143   144    1
    44    39    40   ar
    45    39    38    1
    46   108   107    1
    47    31    30    1
    48   105   106    2
    49   105   104    1
    50   132   135    1
    51   132   133    1
    52   136   135    1
    53   136   138    1
    54    35    36    2
    55   107   104    1
    56    16    14    1
    57    30    29    1
    58   104   103    1
    59   133   134    2
    60    53    52    1
    61    29    28    1
    62    14    13    1
    63    51    52   ar
    64    51    49   ar
    65     4     3    2
    66    52    50   ar
    67   102   101    2
    68    42    43    1
    69   103   101   am
    70    49    47   ar
    71     3     2    1
    72    60    59    1
    73    60    54    1
    74     9    10    1
    75    59    58    1
    76   101   100    1
    77    13    10    1
    78    13    15    1
    79    50    48   ar
    80    28    25    1
    81    47    48   ar
    82    47    46    1
    83    43    46    1
    84    43    44    1
    85    10    11    1
    86    67    68    1
    87    67    66    1
    88     2     5    1
    89     2     1    1
    90    54    55    1
    91    26    25    1
    92    26    27    2
    93    25    24    1
    94    95    97   ar
    95    95    93   ar
    96    58    55    1
    97    92    93    1
    98    92    89    1
    99   100    99    1
   100    12    11    2
   101    97    98   ar
   102    93    94   ar
   103     5     6    1
   104     5     7    1
   105    44    45    2
   106    99    90   am
   107     6     8    1
   108    55    56    1
   109    98    96   ar
   110    94    96   ar
   111    90    91    2
   112    90    89    1
   113    66    65    1
   114    57    56    2
   115    89    88    1
   116    23    21    1
   117    88    79   am
   118    65    62    1
   119    72    71    2
   120    21    22    1
   121    21    18    1
   122    79    78    1
   123    79    80    2
   124    71    77   am
   125    71    70    1
   126    62    61    1
   127    62    63    1
   128    78    77    1
   129    78    81    1
   130    73    70    1
   131    73    74    1
   132    69    63   am
   133    69    70    1
   134    19    18    1
   135    19    20    2
   136    84    83    1
   137    84    85    2
   138    18    17    1
   139    63    64    2
   140    87    85    1
   141    82    83    1
   142    82    81    1
   143    76    74   ar
   144    85    86    1
   145    74    75   ar
