@<TRIPOS>MOLECULE
tmp/5uvmB00.pdb
 153 149 0 0 0
SMALL
GASTEIGER

@<TRIPOS>ATOM
      1  N          8.6790   58.4660  -20.3450 N.3     6  VAL6       -0.1231
      2  CA         8.1950   57.9490  -19.0650 C.3     6  VAL6        0.1692
      3  C          9.1770   56.9210  -18.4760 C.2     6  VAL6        0.2592
      4  O          9.3680   56.8920  -17.2640 O.2     6  VAL6       -0.2718
      5  CB         6.7180   57.4090  -19.1700 C.3     6  VAL6        0.0266
      6  CG1        6.6080   56.2460  -20.1330 C.3     6  VAL6        0.0020
      7  CG2        6.1650   56.9340  -17.8300 C.3     6  VAL6        0.0020
      8  N          9.8180   56.1010  -19.3100 N.am    7  PHE7       -0.1976
      9  CA        10.7010   55.0550  -18.7680 C.3     7  PHE7        0.1639
     10  C         12.0350   55.6010  -18.2520 C.2     7  PHE7        0.2290
     11  O         12.5840   55.1140  -17.2610 O.2     7  PHE7       -0.2864
     12  CB        10.9950   53.9500  -19.8150 C.3     7  PHE7        0.0560
     13  CG         9.7950   53.1430  -20.2390 C.ar    7  PHE7       -0.0200
     14  CD1        8.6360   53.0350  -19.4440 C.ar    7  PHE7       -0.0042
     15  CD2        9.8390   52.4460  -21.4420 C.ar    7  PHE7       -0.0042
     16  CE1        7.5680   52.2660  -19.8620 C.ar    7  PHE7       -0.0003
     17  CE2        8.7650   51.6850  -21.8530 C.ar    7  PHE7       -0.0003
     18  CZ         7.6410   51.5820  -21.0670 C.ar    7  PHE7       -0.0000
     19  N         11.3140   56.9900  -14.9600 N.3    10  ILE10      -0.1245
     20  CA        11.2440   55.9230  -13.9650 C.3    10  ILE10       0.1561
     21  C         12.6440   55.4960  -13.5320 C.2    10  ILE10       0.2260
     22  O         12.8920   55.2550  -12.3400 O.2    10  ILE10      -0.2867
     23  CB        10.4410   54.7140  -14.4900 C.3    10  ILE10       0.0252
     24  CG1        8.9650   55.0800  -14.5060 C.3    10  ILE10       0.0019
     25  CG2       10.7210   53.4370  -13.6920 C.3    10  ILE10       0.0019
     26  CD1        8.0940   54.0910  -15.2590 C.3    10  ILE10       0.0001
     27  N          9.6840   59.1040  -11.3110 N.3    15  LEU15      -0.1231
     28  CA         8.4120   58.4310  -11.1300 C.3    15  LEU15       0.1678
     29  C          8.5790   57.1280  -10.3370 C.2    15  LEU15       0.2434
     30  O          9.6420   56.4830  -10.3860 O.2    15  LEU15      -0.2733
     31  CB         7.7800   58.1400  -12.5000 C.3    15  LEU15       0.0284
     32  CG         7.1910   59.2920  -13.3210 C.3    15  LEU15       0.0019
     33  CD1        6.9780   58.7700  -14.7350 C.3    15  LEU15       0.0001
     34  CD2        5.8580   59.8390  -12.7810 C.3    15  LEU15       0.0001
     35  N          7.5200   56.7240   -9.6120 N.am   16  PRO16      -0.2718
     36  CA         7.5230   55.4510   -8.9180 C.3    16  PRO16       0.1535
     37  C          7.4570   54.2220   -9.8530 C.2    16  PRO16       0.2599
     38  O          7.1450   54.3330  -11.0350 O.2    16  PRO16      -0.2715
     39  CB         6.2620   55.5140   -8.0460 C.3    16  PRO16       0.0310
     40  CG         5.3470   56.4410   -8.7550 C.3    16  PRO16       0.0237
     41  CD         6.2430   57.4420   -9.4460 C.3    16  PRO16       0.0939
     42  N          7.7850   53.0660   -9.2840 N.am   17  SER17      -0.1950
     43  CA         7.8030   51.8190  -10.0120 C.3    17  SER17       0.1924
     44  C          7.8480   50.6710   -9.0290 C.2    17  SER17       0.2314
     45  O          8.0370   50.8680   -7.8430 O.2    17  SER17      -0.2863
     46  CB         9.0400   51.7890  -10.9610 C.3    17  SER17       0.2116
     47  OG        10.2440   51.9510  -10.2140 O.3    17  SER17      -0.2180
     48  N         10.3890   46.2970  -14.7740 N.3    29  ILE29      -0.1231
     49  CA         9.3250   46.8540  -13.9220 C.3    29  ILE29       0.1692
     50  C          7.9160   46.2730  -14.1500 C.2    29  ILE29       0.2592
     51  O          7.6400   45.7140  -15.2140 O.2    29  ILE29      -0.2718
     52  CB         9.2740   48.3790  -14.0720 C.3    29  ILE29       0.0266
     53  CG1        8.8380   48.7980  -15.4600 C.3    29  ILE29       0.0019
     54  CG2       10.6570   48.9720  -13.7880 C.3    29  ILE29       0.0020
     55  CD1        8.4870   50.2710  -15.5560 C.3    29  ILE29       0.0001
     56  N          7.0460   46.4260  -13.1480 N.am   30  LYS30      -0.1966
     57  CA         5.6370   46.1160  -13.2830 C.3    30  LYS30       0.1728
     58  C          5.0060   47.0730  -14.2640 C.2    30  LYS30       0.2616
     59  O          5.2400   48.2660  -14.1890 O.2    30  LYS30      -0.2715
     60  CB         4.8990   46.2230  -11.9520 C.3    30  LYS30       0.0311
     61  CG         3.4960   45.6660  -11.9220 C.3    30  LYS30       0.0038
     62  CD         3.0220   45.5640  -10.4660 C.3    30  LYS30       0.0206
     63  CE         1.6080   45.0150  -10.4350 C.3    30  LYS30       0.1093
     64  NZ         1.5720   43.6060  -10.8890 N.3    30  LYS30      -0.1314
     65  N          4.2370   46.5480  -15.2110 N.am   31  ASP31      -0.1957
     66  CA         3.4090   47.4010  -16.0850 C.3    31  ASP31       0.1840
     67  C          2.3060   47.9390  -15.2010 C.2    31  ASP31       0.2622
     68  O          1.7370   47.2180  -14.3710 O.2    31  ASP31      -0.2715
     69  CB         2.7700   46.6270  -17.2620 C.3    31  ASP31       0.1450
     70  CG         2.2560   47.5530  -18.3660 C.2    31  ASP31       0.3671
     71  OD1        1.2460   48.2840  -18.1350 O.co2  31  ASP31      -0.2456
     72  OD2        2.8810   47.5480  -19.4500 O.co2  31  ASP31      -0.2456
     73  N          2.0190   49.2160  -15.3760 N.am   32  ILE32      -0.1963
     74  CA         1.0750   49.8870  -14.5160 C.3    32  ILE32       0.1727
     75  C         -0.3640   49.4330  -14.8230 C.2    32  ILE32       0.2616
     76  O         -1.2400   49.6130  -13.9850 O.2    32  ILE32      -0.2715
     77  CB         1.2410   51.3940  -14.6950 C.3    32  ILE32       0.0290
     78  CG1        0.6190   52.1350  -13.5170 C.3    32  ILE32       0.0022
     79  CG2        0.7020   51.8600  -16.0500 C.3    32  ILE32       0.0023
     80  CD1        0.8640   53.6260  -13.5990 C.3    32  ILE32       0.0001
     81  N         -0.5740   48.8210  -16.0100 N.am   33  ASN33      -0.1972
     82  CA        -1.8810   48.3650  -16.4980 C.3    33  ASN33       0.1688
     83  C         -1.7340   46.9320  -17.0520 C.2    33  ASN33       0.2292
     84  O         -1.7310   46.6980  -18.2530 O.2    33  ASN33      -0.2864
     85  CB        -2.3860   49.3220  -17.5820 C.3    33  ASN33       0.1181
     86  CG        -3.6740   48.8630  -18.2200 C.2    33  ASN33       0.2629
     87  OD1       -4.4690   48.1430  -17.6100 O.2    33  ASN33      -0.2716
     88  ND2       -3.8840   49.2840  -19.4750 N.am   33  ASN33      -0.0877
     89  N          2.8340   40.8620  -15.5520 N.3    39  HIS39      -0.1241
     90  CA         3.0970   41.7030  -16.6960 C.3    39  HIS39       0.1621
     91  C          4.2360   42.6590  -16.3560 C.2    39  HIS39       0.2264
     92  O          4.0380   43.6640  -15.6490 O.2    39  HIS39      -0.2867
     93  CB         1.8340   42.4020  -17.1900 C.3    39  HIS39       0.0745
     94  CG         2.0200   43.1830  -18.4540 C.ar   39  HIS39       0.0817
     95  ND1        0.9810   43.8200  -19.0860 N.ar   39  HIS39      -0.2268
     96  CD2        3.1240   43.4740  -19.1790 C.ar   39  HIS39       0.1154
     97  CE1        1.4360   44.4800  -20.1390 C.ar   39  HIS39       0.1986
     98  NE2        2.7400   44.2790  -20.2240 N.ar   39  HIS39      -0.2212
     99  N          7.6710   44.8970  -17.8040 N.3    41  LEU41      -0.1245
    100  CA         8.3520   45.5680  -18.8830 C.3    41  LEU41       0.1561
    101  C          9.8620   45.4240  -18.7120 C.2    41  LEU41       0.2260
    102  O         10.4060   45.7320  -17.6400 O.2    41  LEU41      -0.2867
    103  CB         7.9800   47.0210  -18.9100 C.3    41  LEU41       0.0270
    104  CG         6.5190   47.3170  -19.1590 C.3    41  LEU41       0.0019
    105  CD1        6.1840   48.7430  -18.7740 C.3    41  LEU41       0.0001
    106  CD2        6.1280   47.1480  -20.5890 C.3    41  LEU41       0.0001
    107  N          0.9830   49.7530  -32.0350 N.3    94  GLY94      -0.1210
    108  CA         0.6160   50.5170  -30.8430 C.3    94  GLY94       0.1956
    109  C          1.7190   50.7450  -29.8200 C.2    94  GLY94       0.2612
    110  O          1.4560   50.6430  -28.6250 O.2    94  GLY94      -0.2717
    111  N          2.9500   51.0210  -30.2730 N.am   95  GLN95      -0.1965
    112  CA         4.0250   51.4460  -29.3520 C.3    95  GLN95       0.1733
    113  C          3.6060   52.8620  -29.0020 C.2    95  GLN95       0.2617
    114  O          3.4130   53.7170  -29.8850 O.2    95  GLN95      -0.2715
    115  CB         5.3920   51.4430  -30.0140 C.3    95  GLN95       0.0408
    116  CG         6.5550   51.4270  -29.0390 C.3    95  GLN95       0.0908
    117  CD         7.9080   51.8540  -29.6750 C.2    95  GLN95       0.2608
    118  OE1        8.0020   52.1870  -30.8900 O.2    95  GLN95      -0.2717
    119  NE2        8.9850   51.8140  -28.8510 N.am   95  GLN95      -0.0878
    120  N          3.3370   53.0730  -27.7380 N.am   96  THR96      -0.1937
    121  CA         2.8220   54.3540  -27.3030 C.3    96  THR96       0.2028
    122  C          4.0480   55.0940  -26.7210 C.2    96  THR96       0.2642
    123  O          4.2150   56.2880  -26.9510 O.2    96  THR96      -0.2714
    124  CB         1.6220   54.1740  -26.3170 C.3    96  THR96       0.1808
    125  OG1        2.1040   53.9470  -24.9990 O.3    96  THR96      -0.2208
    126  CG2        0.7400   52.9500  -26.7070 C.3    96  THR96       0.0379
    127  N          4.9320   54.3540  -26.0410 N.am   97  VAL97      -0.1977
    128  CA         6.1620   54.8800  -25.4600 C.3    97  VAL97       0.1596
    129  C          7.3650   54.5270  -26.3150 C.2    97  VAL97       0.2287
    130  O          7.6890   53.3580  -26.5080 O.2    97  VAL97      -0.2864
    131  CB         6.3560   54.3430  -24.0330 C.3    97  VAL97       0.0276
    132  CG1        7.6550   54.8560  -23.4270 C.3    97  VAL97       0.0022
    133  CG2        5.1470   54.7210  -23.1560 C.3    97  VAL97       0.0022
    134  N         11.1560   48.5140  -25.2940 N.3   101  HIS101     -0.1241
    135  CA        10.8170   47.6020  -24.2200 C.3   101  HIS101      0.1621
    136  C         10.2040   46.3470  -24.7880 C.2   101  HIS101      0.2264
    137  O          9.5960   46.3790  -25.8530 O.2   101  HIS101     -0.2867
    138  CB         9.8440   48.2450  -23.2500 C.3   101  HIS101      0.0745
    139  CG         8.6690   48.8550  -23.9090 C.ar  101  HIS101      0.0817
    140  ND1        8.7840   49.8910  -24.8050 N.ar  101  HIS101     -0.2268
    141  CD2        7.3490   48.5530  -23.8500 C.ar  101  HIS101      0.1154
    142  CE1        7.5870   50.2180  -25.2590 C.ar  101  HIS101      0.1986
    143  NE2        6.6970   49.4130  -24.7080 N.ar  101  HIS101     -0.2212
    144  N          7.5110   43.3280  -23.4410 N.3   103  HIS103     -0.1241
    145  CA         6.5270   42.8870  -22.4560 C.3   103  HIS103      0.1621
    146  C          6.7420   41.4270  -22.1950 C.2   103  HIS103      0.2264
    147  O          6.9070   40.6560  -23.1570 O.2   103  HIS103     -0.2867
    148  CB         5.1210   43.0530  -22.9720 C.3   103  HIS103      0.0745
    149  CG         4.7970   44.4320  -23.4410 C.ar  103  HIS103      0.0817
    150  ND1        4.0200   45.3020  -22.7100 N.ar  103  HIS103     -0.2268
    151  CD2        5.1090   45.0840  -24.5830 C.ar  103  HIS103      0.1154
    152  CE1        3.8620   46.4300  -23.3870 C.ar  103  HIS103      0.1986
    153  NE2        4.4950   46.3150  -24.5390 N.ar  103  HIS103     -0.2212
@<TRIPOS>BOND
     1   107   108    1
     2   118   117    2
     3   108   109    1
     4   111   109   am
     5   111   112    1
     6   115   112    1
     7   115   116    1
     8   114   113    2
     9   109   110    2
    10   117   116    1
    11   117   119   am
    12   112   113    1
    13   113   120   am
    14   120   121    1
    15   121   122    1
    16   121   124    1
    17   123   122    2
    18   122   127   am
    19   126   124    1
    20   130   129    2
    21   124   125    1
    22   129   128    1
    23   127   128    1
    24   137   136    2
    25   128   131    1
    26   134   135    1
    27   142   140   ar
    28   142   143   ar
    29   140   139   ar
    30   136   135    1
    31   143   141   ar
    32   151   153   ar
    33   151   149   ar
    34   153   152   ar
    35   135   138    1
    36   131   132    1
    37   131   133    1
    38   139   141   ar
    39   139   138    1
    40   149   148    1
    41   149   150   ar
    42   144   145    1
    43   152   150   ar
    44   147   146    2
    45   148   145    1
    46   145   146    1
    47    17    15   ar
    48    17    18   ar
    49    15    13   ar
    50    18    16   ar
    51   106   104    1
    52     1     2    1
    53    13    12    1
    54    13    14   ar
    55    98    97   ar
    56    98    96   ar
    57    97    95   ar
    58     6     5    1
    59    16    14   ar
    60    12     9    1
    61    88    86   am
    62    72    70   ar
    63     8     9    1
    64     8     3   am
    65    96    94   ar
    66     5     2    1
    67     5     7    1
    68   104   103    1
    69   104   105    1
    70    95    94   ar
    71     2     3    1
    72   103   100    1
    73   100   101    1
    74   100    99    1
    75     9    10    1
    76   101   102    2
    77     3     4    2
    78    94    93    1
    79    70    71   ar
    80    70    69    1
    81    84    83    2
    82    10    11    2
    83    86    87    2
    84    86    85    1
    85    85    82    1
    86    69    66    1
    87    93    90    1
    88    83    82    1
    89    90    91    1
    90    90    89    1
    91    82    81    1
    92    91    92    2
    93    66    65    1
    94    66    67    1
    95    79    77    1
    96    81    75   am
    97    55    53    1
    98    53    52    1
    99    73    67   am
   100    73    74    1
   101    26    24    1
   102    51    50    2
   103    65    58   am
   104    67    68    2
   105    19    20    1
   106    75    74    1
   107    75    76    2
   108    48    49    1
   109    33    32    1
   110    77    74    1
   111    77    78    1
   112    24    23    1
   113    23    20    1
   114    23    25    1
   115    58    59    2
   116    58    57    1
   117    50    49    1
   118    50    56   am
   119    52    49    1
   120    52    54    1
   121    20    21    1
   122    80    78    1
   123    21    22    2
   124    32    34    1
   125    32    31    1
   126    57    56    1
   127    57    60    1
   128    31    28    1
   129    60    61    1
   130    61    62    1
   131    27    28    1
   132    28    29    1
   133    38    37    2
   134    46    47    1
   135    46    43    1
   136    64    63    1
   137    62    63    1
   138    30    29    2
   139    29    35   am
   140    43    42    1
   141    43    44    1
   142    37    42   am
   143    37    36    1
   144    35    41    1
   145    35    36    1
   146    41    40    1
   147    44    45    2
   148    36    39    1
   149    40    39    1
