@<TRIPOS>MOLECULE
tmp/5uvpA01.pdb
 122 117 0 0 0
SMALL
GASTEIGER

@<TRIPOS>ATOM
      1  N        -23.4680  -15.1220  -34.1320 N.3    41  ILE41      -0.1245
      2  CA       -24.4040  -14.5430  -35.0780 C.3    41  ILE41       0.1561
      3  C        -25.7310  -14.3300  -34.3660 C.2    41  ILE41       0.2260
      4  O        -26.2990  -15.2710  -33.8010 O.2    41  ILE41      -0.2867
      5  CB       -24.5480  -15.4310  -36.3220 C.3    41  ILE41       0.0252
      6  CG1      -23.1610  -15.6370  -36.9610 C.3    41  ILE41       0.0019
      7  CG2      -25.5140  -14.7940  -37.2890 C.3    41  ILE41       0.0019
      8  CD1      -23.1450  -16.6680  -38.0870 C.3    41  ILE41       0.0001
      9  N        -17.2600  -22.5420  -40.5880 N.3    73  PHE73      -0.1241
     10  CA       -17.9540  -21.3520  -41.0710 C.3    73  PHE73       0.1605
     11  C        -17.2420  -20.7470  -42.2700 C.2    73  PHE73       0.2264
     12  O        -17.8880  -20.2870  -43.2210 O.2    73  PHE73      -0.2867
     13  CB       -18.0820  -20.3110  -39.9630 C.3    73  PHE73       0.0534
     14  CG       -18.8370  -19.0880  -40.3770 C.ar   73  PHE73      -0.0203
     15  CD1      -20.2150  -19.1140  -40.5040 C.ar   73  PHE73      -0.0042
     16  CD2      -18.1630  -17.9060  -40.6410 C.ar   73  PHE73      -0.0042
     17  CE1      -20.9150  -17.9740  -40.8810 C.ar   73  PHE73      -0.0003
     18  CE2      -18.8520  -16.7750  -41.0200 C.ar   73  PHE73      -0.0003
     19  CZ       -20.2310  -16.8080  -41.1390 C.ar   73  PHE73      -0.0000
     20  N        -18.0180  -22.8420  -45.3300 N.3    76  LEU76      -0.1231
     21  CA       -19.3880  -22.6270  -45.7650 C.3    76  LEU76       0.1693
     22  C        -19.5370  -21.2650  -46.4310 C.2    76  LEU76       0.2591
     23  O        -20.1180  -21.1540  -47.5170 O.2    76  LEU76      -0.2718
     24  CB       -20.3390  -22.7660  -44.5820 C.3    76  LEU76       0.0284
     25  CG       -21.8190  -22.5470  -44.9030 C.3    76  LEU76       0.0019
     26  CD1      -22.3010  -23.6350  -45.8370 C.3    76  LEU76       0.0001
     27  CD2      -22.6530  -22.5070  -43.6330 C.3    76  LEU76       0.0001
     28  N        -19.0050  -20.2150  -45.8070 N.am   77  ALA77      -0.1980
     29  CA       -19.1850  -18.8790  -46.3560 C.3    77  ALA77       0.1597
     30  C        -18.4880  -18.7480  -47.7010 C.2    77  ALA77       0.2287
     31  O        -19.0090  -18.1110  -48.6290 O.2    77  ALA77      -0.2864
     32  CB       -18.6640  -17.8270  -45.3810 C.3    77  ALA77       0.0319
     33  N        -20.6520  -20.5470  -50.3700 N.3    80  LEU80      -0.1245
     34  CA       -21.7790  -19.6800  -50.7040 C.3    80  LEU80       0.1561
     35  C        -21.3240  -18.4780  -51.5140 C.2    80  LEU80       0.2260
     36  O        -22.0020  -18.0690  -52.4670 O.2    80  LEU80      -0.2867
     37  CB       -22.4830  -19.2010  -49.4340 C.3    80  LEU80       0.0270
     38  CG       -23.0850  -20.2820  -48.5410 C.3    80  LEU80       0.0019
     39  CD1      -23.7320  -19.6360  -47.2940 C.3    80  LEU80       0.0001
     40  CD2      -24.0930  -21.1460  -49.2710 C.3    80  LEU80       0.0001
     41  N        -23.6730  -19.4300  -54.4790 N.3    84  SER84      -0.1217
     42  CA       -25.0490  -19.1290  -54.0950 C.3    84  SER84       0.1889
     43  C        -25.5360  -17.8440  -54.7520 C.2    84  SER84       0.2288
     44  O        -25.0720  -16.7500  -54.4200 O.2    84  SER84      -0.2866
     45  CB       -25.1920  -19.0070  -52.5860 C.3    84  SER84       0.2089
     46  OG       -26.5000  -18.5340  -52.3060 O.3    84  SER84      -0.2183
     47  N        -28.4530  -16.6900  -54.1540 N.3    86  VAL86      -0.1231
     48  CA       -29.1680  -15.9870  -53.0910 C.3    86  VAL86       0.1692
     49  C        -28.2000  -15.1100  -52.3070 C.2    86  VAL86       0.2591
     50  O        -28.4390  -13.9110  -52.1110 O.2    86  VAL86      -0.2718
     51  CB       -29.9050  -17.0030  -52.1990 C.3    86  VAL86       0.0266
     52  CG1      -30.5620  -16.3190  -51.0160 C.3    86  VAL86       0.0020
     53  CG2      -30.9310  -17.7540  -53.0570 C.3    86  VAL86       0.0020
     54  N        -27.0840  -15.6930  -51.8600 N.am   87  ALA87      -0.1980
     55  CA       -26.0990  -14.9190  -51.1110 C.3    87  ALA87       0.1597
     56  C        -25.6180  -13.7150  -51.8990 C.2    87  ALA87       0.2287
     57  O        -25.3620  -12.6580  -51.3160 O.2    87  ALA87      -0.2864
     58  CB       -24.9100  -15.8000  -50.7290 C.3    87  ALA87       0.0319
     59  N        -20.0800  -10.5160  -49.3340 N.3   102  ILE102     -0.1231
     60  CA       -21.2600  -11.1730  -48.7910 C.3   102  ILE102      0.1692
     61  C        -21.3290  -10.9860  -47.2760 C.2   102  ILE102      0.2591
     62  O        -22.4010  -10.7090  -46.7230 O.2   102  ILE102     -0.2718
     63  CB       -21.2660  -12.6540  -49.2140 C.3   102  ILE102      0.0266
     64  CG1      -21.9320  -12.8200  -50.5830 C.3   102  ILE102      0.0019
     65  CG2      -22.0290  -13.4940  -48.2710 C.3   102  ILE102      0.0020
     66  CD1      -21.2090  -12.2090  -51.7110 C.3   102  ILE102      0.0001
     67  N        -20.1960  -11.0920  -46.5780 N.am  103  LEU103     -0.1980
     68  CA       -20.2400  -10.8690  -45.1310 C.3   103  LEU103      0.1596
     69  C        -20.5610   -9.4090  -44.8120 C.2   103  LEU103      0.2287
     70  O        -21.3940   -9.1220  -43.9360 O.2   103  LEU103     -0.2864
     71  CB       -18.9140  -11.2940  -44.4850 C.3   103  LEU103      0.0297
     72  CG       -18.6300  -12.8010  -44.4960 C.3   103  LEU103      0.0022
     73  CD1      -17.2000  -13.0670  -44.0770 C.3   103  LEU103      0.0001
     74  CD2      -19.6020  -13.5630  -43.5920 C.3   103  LEU103      0.0001
     75  N        -24.4830   -9.0120  -45.5800 N.3   106  TRP106     -0.1227
     76  CA       -25.4880   -9.7790  -44.8520 C.3   106  TRP106      0.1737
     77  C        -25.3540   -9.6150  -43.3520 C.2   106  TRP106      0.2595
     78  O        -26.3530   -9.7010  -42.6230 O.2   106  TRP106     -0.2718
     79  CB       -25.3780  -11.2580  -45.2050 C.3   106  TRP106      0.0564
     80  CG       -26.0070  -11.6370  -46.5030 C.ar  106  TRP106      0.0003
     81  CD1      -25.4210  -11.6090  -47.7390 C.ar  106  TRP106      0.0946
     82  CD2      -27.3370  -12.1210  -46.7000 C.ar  106  TRP106      0.0152
     83  NE1      -26.3120  -12.0460  -48.6960 N.ar  106  TRP106     -0.2442
     84  CE2      -27.4940  -12.3640  -48.0840 C.ar  106  TRP106      0.0810
     85  CE3      -28.4150  -12.3750  -45.8440 C.ar  106  TRP106      0.0012
     86  CZ2      -28.6870  -12.8330  -48.6280 C.ar  106  TRP106      0.0191
     87  CZ3      -29.6000  -12.8510  -46.3870 C.ar  106  TRP106      0.0001
     88  CH2      -29.7260  -13.0690  -47.7700 C.ar  106  TRP106      0.0015
     89  N        -24.1440   -9.3600  -42.8800 N.am  107  LEU107     -0.1980
     90  CA       -23.8620   -9.2280  -41.4530 C.3   107  LEU107      0.1596
     91  C        -23.2170   -7.8730  -41.1910 C.2   107  LEU107      0.2287
     92  O        -22.0660   -7.7930  -40.7500 O.2   107  LEU107     -0.2864
     93  CB       -22.9780  -10.3800  -40.9920 C.3   107  LEU107      0.0297
     94  CG       -23.7260  -11.7200  -41.0880 C.3   107  LEU107      0.0022
     95  CD1      -22.7930  -12.8660  -40.9180 C.3   107  LEU107      0.0001
     96  CD2      -24.8560  -11.7960  -40.0320 C.3   107  LEU107      0.0001
     97  N        -19.4100  -23.3130  -33.9480 N.3   186  PHE186     -0.1241
     98  CA       -20.2700  -23.3930  -35.1260 C.3   186  PHE186      0.1605
     99  C        -20.0820  -24.7230  -35.8480 C.2   186  PHE186      0.2264
    100  O        -18.9540  -25.1450  -36.1060 O.2   186  PHE186     -0.2867
    101  CB       -19.9620  -22.2390  -36.0880 C.3   186  PHE186      0.0534
    102  CG       -20.7510  -22.2770  -37.3780 C.ar  186  PHE186     -0.0203
    103  CD1      -20.2950  -22.9940  -38.4730 C.ar  186  PHE186     -0.0042
    104  CD2      -21.9380  -21.5640  -37.5020 C.ar  186  PHE186     -0.0042
    105  CE1      -21.0290  -23.0100  -39.6600 C.ar  186  PHE186     -0.0003
    106  CE2      -22.6570  -21.5730  -38.6750 C.ar  186  PHE186     -0.0003
    107  CZ       -22.2010  -22.3000  -39.7540 C.ar  186  PHE186     -0.0000
    108  N        -24.2300  -27.0900  -41.4610 N.3   189  PRO189     -0.2102
    109  CA       -25.2480  -28.1150  -41.7540 C.3   189  PRO189      0.1504
    110  C        -24.7480  -29.1780  -42.7140 C.2   189  PRO189      0.2575
    111  O        -24.9220  -30.3770  -42.4600 O.2   189  PRO189     -0.2718
    112  CB       -26.3990  -27.3030  -42.3530 C.3   189  PRO189      0.0282
    113  CG       -26.1560  -25.9000  -41.9390 C.3   189  PRO189      0.0208
    114  CD       -24.6830  -25.7430  -41.8490 C.3   189  PRO189      0.0893
    115  N        -24.1290  -28.7620  -43.8160 N.am  190  LEU190     -0.1980
    116  CA       -23.5560  -29.6830  -44.7920 C.3   190  LEU190      0.1596
    117  C        -22.5090  -30.5920  -44.1570 C.2   190  LEU190      0.2287
    118  O        -21.8450  -31.3620  -44.8520 O.2   190  LEU190     -0.2864
    119  CB       -22.9290  -28.9050  -45.9520 C.3   190  LEU190      0.0297
    120  CG       -23.8670  -27.9920  -46.7310 C.3   190  LEU190      0.0022
    121  CD1      -23.1110  -27.1250  -47.7150 C.3   190  LEU190      0.0001
    122  CD2      -24.9410  -28.7760  -47.4630 C.3   190  LEU190      0.0001
@<TRIPOS>BOND
     1    43    44    2
     2    43    42    1
     3    41    42    1
     4    47    48    1
     5    42    45    1
     6    48    49    1
     7    48    51    1
     8    53    51    1
     9    45    46    1
    10    36    35    2
    11    49    50    2
    12    49    54   am
    13    51    52    1
    14    56    57    2
    15    56    55    1
    16    54    55    1
    17    66    64    1
    18    35    34    1
    19    55    58    1
    20    34    33    1
    21    34    37    1
    22    64    63    1
    23    37    38    1
    24    59    60    1
    25    40    38    1
    26    63    60    1
    27    63    65    1
    28    60    61    1
    29    83    84   ar
    30    83    81   ar
    31    31    30    2
    32    86    84   ar
    33    86    88   ar
    34    38    39    1
    35    84    82   ar
    36    88    87   ar
    37    81    80   ar
    38   121   120    1
    39    30    29    1
    40    23    22    2
    41   122   120    1
    42    61    62    2
    43    61    67   am
    44   120   119    1
    45    82    80   ar
    46    82    85   ar
    47    67    68    1
    48    80    79    1
    49    22    28   am
    50    22    21    1
    51    87    85   ar
    52    29    28    1
    53    29    32    1
    54   119   116    1
    55    26    25    1
    56    21    20    1
    57    21    24    1
    58    75    76    1
    59    79    76    1
    60    68    69    1
    61    68    71    1
    62    25    24    1
    63    25    27    1
    64   118   117    2
    65    76    77    1
    66    69    70    2
    67   116   117    1
    68   116   115    1
    69    72    71    1
    70    72    73    1
    71    72    74    1
    72   115   110   am
    73    77    89   am
    74    77    78    2
    75    12    11    2
    76    89    90    1
    77   110   111    2
    78   110   109    1
    79   112   113    1
    80   112   109    1
    81    11    10    1
    82   113   114    1
    83   114   108    1
    84   109   108    1
    85    90    91    1
    86    90    93    1
    87    91    92    2
    88    19    18   ar
    89    19    17   ar
    90    94    93    1
    91    94    95    1
    92    94    96    1
    93    10     9    1
    94    10    13    1
    95    18    16   ar
    96    17    15   ar
    97    16    14   ar
    98    15    14   ar
    99    14    13    1
   100   107   105   ar
   101   107   106   ar
   102   105   103   ar
   103   106   104   ar
   104   103   102   ar
   105     8     6    1
   106   104   102   ar
   107   102   101    1
   108     7     5    1
   109     6     5    1
   110     5     2    1
   111   100    99    2
   112   101    98    1
   113    99    98    1
   114    98    97    1
   115     2     3    1
   116     2     1    1
   117     3     4    2
