@<TRIPOS>MOLECULE
tmp/5uvsA00.pdb
 163 164 0 0 0
SMALL
GASTEIGER

@<TRIPOS>ATOM
      1  N         15.9690   -2.3770    3.3840 N.3    26  TRP26      -0.1228
      2  CA        17.1500   -3.2010    3.0770 C.3    26  TRP26       0.1722
      3  C         16.8340   -4.5640    2.4020 C.2    26  TRP26       0.2437
      4  O         17.5810   -4.8690    1.4700 O.2    26  TRP26      -0.2733
      5  CB        18.1260   -3.3530    4.2650 C.3    26  TRP26       0.0563
      6  CG        17.6620   -4.2520    5.3570 C.ar   26  TRP26       0.0003
      7  CD1       16.9040   -3.9060    6.4390 C.ar   26  TRP26       0.0946
      8  CD2       17.8710   -5.6650    5.4450 C.ar   26  TRP26       0.0152
      9  NE1       16.6090   -5.0180    7.1800 N.ar   26  TRP26      -0.2442
     10  CE2       17.2210   -6.1090    6.6150 C.ar   26  TRP26       0.0810
     11  CE3       18.5640   -6.6010    4.6530 C.ar   26  TRP26       0.0012
     12  CZ2       17.2500   -7.4440    7.0240 C.ar   26  TRP26       0.0191
     13  CZ3       18.5940   -7.9230    5.0590 C.ar   26  TRP26       0.0001
     14  CH2       17.9490   -8.3340    6.2340 C.ar   26  TRP26       0.0015
     15  N         15.7400   -5.3450    2.6600 N.am   27  PRO27      -0.2718
     16  CA        15.5380   -6.5710    1.8410 C.3    27  PRO27       0.1535
     17  C         15.1470   -6.3230    0.3820 C.2    27  PRO27       0.2599
     18  O         15.0060   -7.2750   -0.3910 O.2    27  PRO27      -0.2715
     19  CB        14.4290   -7.3450    2.5790 C.3    27  PRO27       0.0310
     20  CG        14.2600   -6.6550    3.9130 C.3    27  PRO27       0.0237
     21  CD        14.7110   -5.2280    3.7180 C.3    27  PRO27       0.0939
     22  N         14.9810   -5.0580   -0.0180 N.am   28  PHE28      -0.1960
     23  CA        14.5500   -4.7410   -1.3890 C.3    28  PHE28       0.1771
     24  C         15.6570   -4.0690   -2.1950 C.2    28  PHE28       0.2620
     25  O         15.4540   -3.7490   -3.3460 O.2    28  PHE28      -0.2715
     26  CB        13.2580   -3.8780   -1.3510 C.3    28  PHE28       0.0574
     27  CG        12.1710   -4.5110   -0.5160 C.ar   28  PHE28      -0.0200
     28  CD1       11.3120   -5.4580   -1.0640 C.ar   28  PHE28      -0.0042
     29  CD2       12.0020   -4.1560    0.8190 C.ar   28  PHE28      -0.0042
     30  CE1       10.3240   -6.0700   -0.2800 C.ar   28  PHE28      -0.0003
     31  CE2       11.0140   -4.7680    1.6010 C.ar   28  PHE28      -0.0003
     32  CZ        10.1970   -5.7360    1.0500 C.ar   28  PHE28      -0.0000
     33  N         16.8180   -3.8510   -1.5840 N.am   29  TYR29      -0.1960
     34  CA        17.9510   -3.1680   -2.2030 C.3    29  TYR29       0.1771
     35  C         18.5350   -3.9150   -3.3790 C.2    29  TYR29       0.2619
     36  O         18.9090   -3.2850   -4.3530 O.2    29  TYR29      -0.2715
     37  CB        19.0890   -2.9750   -1.1890 C.3    29  TYR29       0.0574
     38  CG        18.8860   -1.8940   -0.1600 C.ar   29  TYR29      -0.0198
     39  CD1       17.7600   -1.0700   -0.1880 C.ar   29  TYR29      -0.0009
     40  CD2       19.8050   -1.7050    0.8620 C.ar   29  TYR29      -0.0009
     41  CE1       17.5710   -0.0700    0.7710 C.ar   29  TYR29       0.0417
     42  CE2       19.6220   -0.7190    1.8280 C.ar   29  TYR29       0.0417
     43  CZ        18.5020    0.0890    1.7850 C.ar   29  TYR29       0.1957
     44  OH        18.3550    1.0500    2.7510 O.3    29  TYR29      -0.2866
     45  N         18.6710   -5.2380   -3.2570 N.am   30  LYS30      -0.1964
     46  CA        19.3260   -6.0730   -4.2570 C.3    30  LYS30       0.1713
     47  C         18.4070   -7.2020   -4.6300 C.2    30  LYS30       0.2458
     48  O         17.4510   -7.4360   -3.8910 O.2    30  LYS30      -0.2730
     49  CB        20.6550   -6.6230   -3.6810 C.3    30  LYS30       0.0311
     50  CG        21.7650   -5.5770   -3.5410 C.3    30  LYS30       0.0038
     51  CD        22.6100   -5.4010   -4.8110 C.3    30  LYS30       0.0206
     52  CE        23.7590   -6.3870   -4.9080 C.3    30  LYS30       0.1093
     53  NZ        24.5240   -6.2330   -6.1750 N.3    30  LYS30      -0.1314
     54  N         18.6250   -7.9140   -5.7710 N.am   31  PRO31      -0.2716
     55  CA        17.7100   -9.0280   -6.1120 C.3    31  PRO31       0.1536
     56  C         17.6820  -10.1150   -5.0360 C.2    31  PRO31       0.2598
     57  O         18.6650  -10.2910   -4.3000 O.2    31  PRO31      -0.2715
     58  CB        18.2690   -9.5700   -7.4380 C.3    31  PRO31       0.0310
     59  CG        19.1580   -8.4600   -7.9860 C.3    31  PRO31       0.0237
     60  CD        19.7020   -7.7600   -6.7780 C.3    31  PRO31       0.0939
     61  N         16.5440  -10.8250   -4.9230 N.am   32  VAL32      -0.1964
     62  CA        16.4080  -11.9030   -3.9450 C.3    32  VAL32       0.1727
     63  C         17.3890  -13.0340   -4.3270 C.2    32  VAL32       0.2616
     64  O         17.3300  -13.5350   -5.4470 O.2    32  VAL32      -0.2715
     65  CB        14.9510  -12.4270   -3.7580 C.3    32  VAL32       0.0290
     66  CG1       14.8850  -13.4730   -2.6480 C.3    32  VAL32       0.0023
     67  CG2       13.9760  -11.2930   -3.4600 C.3    32  VAL32       0.0023
     68  N         18.3170  -13.3710   -3.4030 N.am   33  ASP33      -0.1971
     69  CA        19.3130  -14.4490   -3.5510 C.3    33  ASP33       0.1709
     70  C         18.5890  -15.8110   -3.4680 C.2    33  ASP33       0.2293
     71  O         18.2990  -16.2890   -2.3730 O.2    33  ASP33      -0.2864
     72  CB        20.3990  -14.3290   -2.4480 C.3    33  ASP33       0.1436
     73  CG        21.7310  -15.0130   -2.7570 C.2    33  ASP33       0.3671
     74  OD1       21.7130  -16.1120   -3.3710 O.co2  33  ASP33      -0.2456
     75  OD2       22.7910  -14.4740   -2.3410 O.co2  33  ASP33      -0.2456
     76  N         13.6430  -20.2430   -0.0670 N.3    39  LEU39      -0.1245
     77  CA        13.6540  -19.6480   -1.4140 C.3    39  LEU39       0.1561
     78  C         14.0240  -20.6080   -2.5630 C.2    39  LEU39       0.2260
     79  O         14.3100  -20.1360   -3.6560 O.2    39  LEU39      -0.2867
     80  CB        14.5560  -18.3960   -1.4470 C.3    39  LEU39       0.0270
     81  CG        14.2890  -17.3410   -0.3750 C.3    39  LEU39       0.0019
     82  CD1       15.4700  -16.4600   -0.2040 C.3    39  LEU39       0.0001
     83  CD2       13.1050  -16.4820   -0.7230 C.3    39  LEU39       0.0001
     84  N         11.3530  -20.0900   -4.8880 N.3    42  TYR42      -0.1241
     85  CA        11.1690  -18.6830   -5.2470 C.3    42  TYR42       0.1605
     86  C         10.9950  -18.4760   -6.7450 C.2    42  TYR42       0.2264
     87  O         10.0560  -17.8000   -7.1390 O.2    42  TYR42      -0.2867
     88  CB        12.2680  -17.7670   -4.6730 C.3    42  TYR42       0.0534
     89  CG        11.9250  -16.2940   -4.7970 C.ar   42  TYR42      -0.0201
     90  CD1       11.0970  -15.6700   -3.8700 C.ar   42  TYR42      -0.0009
     91  CD2       12.4080  -15.5330   -5.8570 C.ar   42  TYR42      -0.0009
     92  CE1       10.7490  -14.3260   -3.9990 C.ar   42  TYR42       0.0417
     93  CE2       12.0650  -14.1900   -6.0000 C.ar   42  TYR42       0.0417
     94  CZ        11.2430  -13.5890   -5.0630 C.ar   42  TYR42       0.1957
     95  OH        10.9010  -12.2740   -5.2050 O.3    42  TYR42      -0.2866
     96  N          7.8180   -5.3020   -7.5520 N.3    77  MET77      -0.1245
     97  CA         8.6860   -5.6460   -6.4310 C.3    77  MET77       0.1570
     98  C          7.8610   -5.9520   -5.1520 C.2    77  MET77       0.2261
     99  O          8.1790   -6.9120   -4.4250 O.2    77  MET77      -0.2867
    100  CB         9.6780   -4.5130   -6.2020 C.3    77  MET77       0.0387
    101  CG        10.6190   -4.7550   -5.0150 C.3    77  MET77       0.0595
    102  SD        11.7300   -3.3750   -4.7910 S.3    77  MET77      -0.1393
    103  CE        10.6070   -2.1100   -4.1660 C.3    77  MET77       0.0692
    104  N          6.5930   -9.7580   -3.3760 N.3    81  CYS81      -0.1235
    105  CA         6.7350   -9.9800   -1.9590 C.3    81  CYS81       0.1677
    106  C          5.4200  -10.4500   -1.3540 C.2    81  CYS81       0.2270
    107  O          5.4420  -11.3440   -0.5160 O.2    81  CYS81      -0.2867
    108  CB         7.2560   -8.7260   -1.2600 C.3    81  CYS81       0.0956
    109  SG         7.6320   -8.9620    0.4950 S.3    81  CYS81      -0.0801
    110  N          4.6500  -14.2660   -2.7320 N.3    84  TYR84      -0.1227
    111  CA         5.5250  -15.3420   -2.3040 C.3    84  TYR84       0.1736
    112  C          5.4250  -15.7130   -0.8350 C.2    84  TYR84       0.2595
    113  O          5.3240  -16.8930   -0.5260 O.2    84  TYR84      -0.2718
    114  CB         6.9930  -15.0450   -2.6750 C.3    84  TYR84       0.0548
    115  CG         7.9350  -16.1190   -2.1690 C.ar   84  TYR84      -0.0200
    116  CD1        7.9760  -17.3770   -2.7690 C.ar   84  TYR84      -0.0009
    117  CD2        8.7590  -15.8900   -1.0700 C.ar   84  TYR84      -0.0009
    118  CE1        8.7990  -18.3890   -2.2730 C.ar   84  TYR84       0.0417
    119  CE2        9.5960  -16.8890   -0.5750 C.ar   84  TYR84       0.0417
    120  CZ         9.6080  -18.1400   -1.1770 C.ar   84  TYR84       0.1957
    121  OH        10.4300  -19.1280   -0.6990 O.3    84  TYR84      -0.2866
    122  N          5.5410  -14.7130    0.0610 N.am   85  ASN85      -0.1974
    123  CA         5.6230  -14.9000    1.4900 C.3    85  ASN85       0.1688
    124  C          4.2990  -15.0910    2.2040 C.2    85  ASN85       0.2292
    125  O          3.2690  -14.6790    1.6730 O.2    85  ASN85      -0.2864
    126  CB         6.3680  -13.7260    2.1150 C.3    85  ASN85       0.1181
    127  CG         7.6820  -13.4930    1.4820 C.2    85  ASN85       0.2629
    128  OD1        8.6790  -14.0930    1.8660 O.2    85  ASN85      -0.2716
    129  ND2        7.7320  -12.5500    0.5430 N.am   85  ASN85      -0.0877
    130  N          4.6190  -12.9240    7.6250 N.3    89  HIS89      -0.1226
    131  CA         6.0760  -12.8200    7.5170 C.3    89  HIS89       0.1752
    132  C          6.5580  -11.4070    7.7630 C.2    89  HIS89       0.2596
    133  O          5.9180  -10.4560    7.3110 O.2    89  HIS89      -0.2718
    134  CB         6.5380  -13.3120    6.1390 C.3    89  HIS89       0.0759
    135  CG         7.9780  -13.6990    6.0540 C.ar   89  HIS89       0.0818
    136  ND1        8.9870  -12.7560    6.1490 N.ar   89  HIS89      -0.2268
    137  CD2        8.5310  -14.9060    5.8000 C.ar   89  HIS89       0.1154
    138  CE1       10.1180  -13.4230    5.9880 C.ar   89  HIS89       0.1986
    139  NE2        9.8950  -14.7170    5.7690 N.ar   89  HIS89      -0.2212
    140  N          7.6950  -11.2740    8.4740 N.am   90  GLU90      -0.1965
    141  CA         8.3700  -10.0210    8.7960 C.3    90  GLU90       0.1733
    142  C          8.6090   -9.1270    7.5480 C.2    90  GLU90       0.2616
    143  O          8.4840   -7.9110    7.6450 O.2    90  GLU90      -0.2715
    144  CB         9.7230  -10.3290    9.4690 C.3    90  GLU90       0.0429
    145  CG        10.3460   -9.1460   10.1940 C.3    90  GLU90       0.1163
    146  CD        11.6840   -9.3860   10.8750 C.2    90  GLU90       0.3649
    147  OE1       12.0390  -10.5650   11.1150 O.co2  90  GLU90      -0.2457
    148  OE2       12.3720   -8.3850   11.1850 O.co2  90  GLU90      -0.2457
    149  N          8.9540   -9.7380    6.4000 N.am   91  VAL91      -0.1977
    150  CA         9.2710   -9.0350    5.1530 C.3    91  VAL91       0.1596
    151  C          8.0290   -8.3500    4.5330 C.2    91  VAL91       0.2287
    152  O          8.1910   -7.2870    3.9310 O.2    91  VAL91      -0.2864
    153  CB        10.0380   -9.9400    4.1480 C.3    91  VAL91       0.0276
    154  CG1        9.1070  -10.8460    3.3600 C.3    91  VAL91       0.0022
    155  CG2       10.9310   -9.1070    3.2340 C.3    91  VAL91       0.0022
    156  N          7.4960   -5.2020    6.2830 N.3    94  MET94      -0.1245
    157  CA         8.5060   -4.2550    5.7920 C.3    94  MET94       0.1570
    158  C          8.1230   -3.6800    4.4260 C.2    94  MET94       0.2261
    159  O          8.2790   -2.4880    4.2050 O.2    94  MET94      -0.2867
    160  CB         9.9010   -4.8910    5.7410 C.3    94  MET94       0.0387
    161  CG        10.4710   -5.1630    7.1190 C.3    94  MET94       0.0595
    162  SD        11.7910   -6.4140    7.0780 S.3    94  MET94      -0.1393
    163  CE        13.1960   -5.3710    7.1890 C.3    94  MET94       0.0692
@<TRIPOS>BOND
     1    59    58    1
     2    59    60    1
     3    96    97    1
     4    58    55    1
     5    87    86    2
     6    60    54    1
     7    86    85    1
     8    97   100    1
     9    97    98    1
    10   100   101    1
    11    53    52    1
    12    55    54    1
    13    55    56    1
    14    93    91   ar
    15    93    94   ar
    16    91    89   ar
    17    54    47   am
    18    64    63    2
    19    85    84    1
    20    85    88    1
    21    95    94    1
    22    98    99    2
    23    94    92   ar
    24    56    61   am
    25    56    57    2
    26   101   102    1
    27    61    62    1
    28    52    51    1
    29    51    50    1
    30    89    88    1
    31    89    90   ar
    32   102   103    1
    33    47    46    1
    34    47    48    2
    35    36    35    2
    36    63    62    1
    37    63    68   am
    38    46    49    1
    39    46    45    1
    40    92    90   ar
    41    62    65    1
    42    65    67    1
    43    65    66    1
    44    49    50    1
    45    79    78    2
    46    69    70    1
    47    69    68    1
    48    69    72    1
    49    70    71    2
    50    35    45   am
    51    35    34    1
    52   104   105    1
    53    74    73   ar
    54    25    24    2
    55   116   118   ar
    56   116   115   ar
    57    73    72    1
    58    73    75   ar
    59   110   111    1
    60   114   111    1
    61   114   115    1
    62    78    77    1
    63   111   112    1
    64   118   120   ar
    65    34    33    1
    66    34    37    1
    67    24    33   am
    68    24    23    1
    69   115   117   ar
    70   105   106    1
    71   105   108    1
    72    80    77    1
    73    80    81    1
    74    77    76    1
    75    23    26    1
    76    23    22    1
    77   106   107    2
    78    26    27    1
    79   108   109    1
    80    37    38    1
    81   120   121    1
    82   120   119   ar
    83   117   119   ar
    84    28    27   ar
    85    28    30   ar
    86   112   113    2
    87   112   122   am
    88    83    81    1
    89    27    29   ar
    90    18    17    2
    91    81    82    1
    92    30    32   ar
    93    39    38   ar
    94    39    41   ar
    95    38    40   ar
    96    22    17   am
    97   122   123    1
    98    17    16    1
    99   129   127   am
   100    41    43   ar
   101    29    31   ar
   102    40    42   ar
   103    32    31   ar
   104     4     3    2
   105   127   128    2
   106   127   126    1
   107   123   126    1
   108   123   124    1
   109   125   124    2
   110    43    42   ar
   111    43    44    1
   112    16    19    1
   113    16    15    1
   114     3    15   am
   115     3     2    1
   116    19    20    1
   117    15    21    1
   118     2     1    1
   119     2     5    1
   120   155   153    1
   121   154   153    1
   122    21    20    1
   123   152   151    2
   124   153   150    1
   125   159   158    2
   126     5     6    1
   127   158   157    1
   128   151   150    1
   129    11    13   ar
   130    11     8   ar
   131    13    14   ar
   132   150   149    1
   133     6     8   ar
   134     6     7   ar
   135     8    10   ar
   136   160   157    1
   137   160   161    1
   138   139   137   ar
   139   139   138   ar
   140   157   156    1
   141   137   135   ar
   142   138   136   ar
   143   135   134    1
   144   135   136   ar
   145   134   131    1
   146    14    12   ar
   147   149   142   am
   148     7     9   ar
   149    10    12   ar
   150    10     9   ar
   151   162   161    1
   152   162   163    1
   153   133   132    2
   154   131   130    1
   155   131   132    1
   156   142   143    2
   157   142   141    1
   158   132   140   am
   159   140   141    1
   160   141   144    1
   161   144   145    1
   162   145   146    1
   163   146   147   ar
   164   146   148   ar
