@<TRIPOS>MOLECULE
tmp/5uvuA00.pdb
 164 162 0 0 0
SMALL
GASTEIGER

@<TRIPOS>ATOM
      1  N         15.9300   -0.9880   22.4000 N.3    24  TRP24      -0.1228
      2  CA        14.5880   -0.4870   22.0890 C.3    24  TRP24       0.1722
      3  C         14.5370    0.9010   21.4000 C.2    24  TRP24       0.2437
      4  O         13.6770    1.0200   20.5180 O.2    24  TRP24      -0.2733
      5  CB        13.6260   -0.5500   23.2870 C.3    24  TRP24       0.0563
      6  CG        13.8880    0.4490   24.3600 C.ar   24  TRP24       0.0003
      7  CD1       14.6400    0.2720   25.4830 C.ar   24  TRP24       0.0946
      8  CD2       13.4080    1.8000   24.4000 C.ar   24  TRP24       0.0152
      9  NE1       14.6770    1.4400   26.2150 N.ar   24  TRP24      -0.2442
     10  CE2       13.9480    2.4010   25.5590 C.ar   24  TRP24       0.0810
     11  CE3       12.5750    2.5680   23.5600 C.ar   24  TRP24       0.0012
     12  CZ2       13.6680    3.7320   25.9140 C.ar   24  TRP24       0.0191
     13  CZ3       12.3120    3.8920   23.9060 C.ar   24  TRP24       0.0001
     14  CH2       12.8670    4.4610   25.0610 C.ar   24  TRP24       0.0015
     15  N         15.4330    1.8950   21.6680 N.am   25  PRO25      -0.2718
     16  CA        15.3390    3.1880   20.9510 C.3    25  PRO25       0.1535
     17  C         15.7410    3.0950   19.4730 C.2    25  PRO25       0.2598
     18  O         15.5730    4.0720   18.7370 O.2    25  PRO25      -0.2715
     19  CB        16.3420    4.0800   21.6930 C.3    25  PRO25       0.0310
     20  CG        16.5310    3.4260   23.0230 C.3    25  PRO25       0.0237
     21  CD        16.4850    1.9690   22.7110 C.3    25  PRO25       0.0939
     22  N         16.2610    1.9340   19.0430 N.am   26  PHE26      -0.1974
     23  CA        16.7440    1.6880   17.6690 C.3    26  PHE26       0.1639
     24  C         15.8200    0.7900   16.8560 C.2    26  PHE26       0.2290
     25  O         16.0840    0.5570   15.6730 O.2    26  PHE26      -0.2864
     26  CB        18.1890    1.1180   17.7170 C.3    26  PHE26       0.0560
     27  CG        19.0840    1.9820   18.5630 C.ar   26  PHE26      -0.0200
     28  CD1       19.6460    3.1510   18.0450 C.ar   26  PHE26      -0.0042
     29  CD2       19.3460    1.6530   19.8910 C.ar   26  PHE26      -0.0042
     30  CE1       20.4410    3.9830   18.8470 C.ar   26  PHE26      -0.0003
     31  CE2       20.1350    2.4920   20.6930 C.ar   26  PHE26      -0.0003
     32  CZ        20.6610    3.6580   20.1700 C.ar   26  PHE26      -0.0000
     33  N         12.6890    1.2530   15.7170 N.3    28  LYS28      -0.1231
     34  CA        11.9010    1.9210   14.6710 C.3    28  LYS28       0.1678
     35  C         12.4860    3.3060   14.3520 C.2    28  LYS28       0.2434
     36  O         13.2990    3.8170   15.1330 O.2    28  LYS28      -0.2733
     37  CB        10.4430    2.0660   15.1660 C.3    28  LYS28       0.0284
     38  CG         9.7240    0.7300   15.3710 C.3    28  LYS28       0.0035
     39  CD         8.3380    0.6930   14.7480 C.3    28  LYS28       0.0206
     40  CE         7.7340   -0.6990   14.7980 C.3    28  LYS28       0.1093
     41  NZ         8.4240   -1.6600   13.8850 N.3    28  LYS28      -0.1314
     42  N         12.1130    3.9340   13.2110 N.am   29  PRO29      -0.2718
     43  CA        12.6520    5.2680   12.9060 C.3    29  PRO29       0.1535
     44  C         12.4430    6.2690   14.0420 C.2    29  PRO29       0.2598
     45  O         11.4350    6.2020   14.7520 O.2    29  PRO29      -0.2715
     46  CB        11.8460    5.7090   11.6750 C.3    29  PRO29       0.0310
     47  CG        11.3670    4.4590   11.0470 C.3    29  PRO29       0.0237
     48  CD        11.1740    3.4720   12.1610 C.3    29  PRO29       0.0939
     49  N         13.4110    7.1870   14.2260 N.am   30  VAL30      -0.1964
     50  CA        13.2980    8.2520   15.2330 C.3    30  VAL30       0.1727
     51  C         12.0410    9.0760   14.8820 C.2    30  VAL30       0.2616
     52  O         11.9170    9.5520   13.7480 O.2    30  VAL30      -0.2715
     53  CB        14.5770    9.1280   15.2670 C.3    30  VAL30       0.0290
     54  CG1       14.3860   10.3490   16.1800 C.3    30  VAL30       0.0023
     55  CG2       15.7870    8.3020   15.7020 C.3    30  VAL30       0.0023
     56  N         11.0950    9.1650   15.8280 N.am   31  ASP31      -0.1971
     57  CA         9.8280    9.8850   15.6160 C.3    31  ASP31       0.1709
     58  C         10.0590   11.3350   16.0400 C.2    31  ASP31       0.2293
     59  O          9.8310   11.6920   17.1880 O.2    31  ASP31      -0.2864
     60  CB         8.6950    9.2090   16.4100 C.3    31  ASP31       0.1436
     61  CG         7.2890    9.7100   16.0970 C.2    31  ASP31       0.3671
     62  OD1        7.1590   10.8340   15.5360 O.co2  31  ASP31      -0.2456
     63  OD2        6.3170    9.0040   16.4510 O.co2  31  ASP31      -0.2456
     64  N          6.9240   13.2070   17.6890 N.3    34  ALA34      -0.1231
     65  CA         6.5810   12.7960   19.0530 C.3    34  ALA34       0.1694
     66  C          7.6670   13.1170   20.0790 C.2    34  ALA34       0.2591
     67  O          7.3580   13.3060   21.2590 O.2    34  ALA34      -0.2718
     68  CB         6.2510   11.3130   19.0940 C.3    34  ALA34       0.0304
     69  N          8.9370   13.1660   19.6380 N.am   35  LEU35      -0.1980
     70  CA        10.0850   13.4040   20.5250 C.3    35  LEU35       0.1596
     71  C         10.5030   14.8640   20.6310 C.2    35  LEU35       0.2287
     72  O         11.3170   15.2040   21.5060 O.2    35  LEU35      -0.2864
     73  CB        11.2920   12.5530   20.0960 C.3    35  LEU35       0.0297
     74  CG        11.1060   11.0150   20.1980 C.3    35  LEU35       0.0022
     75  CD1       12.2730   10.2940   19.5520 C.3    35  LEU35       0.0001
     76  CD2       10.9130   10.5640   21.6410 C.3    35  LEU35       0.0001
     77  N         12.2880   16.4740   18.3930 N.3    37  LEU37      -0.1245
     78  CA        13.6560   16.6120   17.8680 C.3    37  LEU37       0.1561
     79  C         13.5920   17.3130   16.5170 C.2    37  LEU37       0.2260
     80  O         14.0090   16.7660   15.4990 O.2    37  LEU37      -0.2867
     81  CB        14.3270   15.2160   17.7560 C.3    37  LEU37       0.0270
     82  CG        14.4070   14.3700   19.0300 C.3    37  LEU37       0.0019
     83  CD1       15.2070   13.1000   18.7760 C.3    37  LEU37       0.0001
     84  CD2       14.9920   15.1680   20.2160 C.3    37  LEU37       0.0001
     85  N         16.6170   17.3660   14.1840 N.3    40  TYR40      -0.1241
     86  CA        17.1840   16.0660   13.7780 C.3    40  TYR40       0.1605
     87  C         17.5450   15.9870   12.2970 C.2    40  TYR40       0.2264
     88  O         18.6740   15.6130   11.9700 O.2    40  TYR40      -0.2867
     89  CB        16.2680   14.9080   14.1870 C.3    40  TYR40       0.0534
     90  CG        16.9250   13.5450   14.1090 C.ar   40  TYR40      -0.0201
     91  CD1       17.7460   13.0850   15.1370 C.ar   40  TYR40      -0.0009
     92  CD2       16.7410   12.7230   13.0020 C.ar   40  TYR40      -0.0009
     93  CE1       18.3480   11.8270   15.0760 C.ar   40  TYR40       0.0417
     94  CE2       17.3330   11.4610   12.9310 C.ar   40  TYR40       0.0417
     95  CZ        18.1530   11.0280   13.9630 C.ar   40  TYR40       0.1957
     96  OH        18.7510    9.7960   13.8970 O.3    40  TYR40      -0.2866
     97  N         23.2490    3.6570   11.4520 N.3    75  MET75      -0.1245
     98  CA        22.3020    3.8330   12.5720 C.3    75  MET75       0.1570
     99  C         23.0630    4.2740   13.8360 C.2    75  MET75       0.2261
    100  O         22.6540    5.2400   14.4880 O.2    75  MET75      -0.2867
    101  CB        21.5630    2.5080   12.8300 C.3    75  MET75       0.0387
    102  CG        20.5570    2.5610   13.9690 C.3    75  MET75       0.0595
    103  SD        19.8270    0.9250   14.1860 S.3    75  MET75      -0.1393
    104  CE        21.1630    0.0500   14.9810 C.3    75  MET75       0.0692
    105  N         23.3370    8.2570   15.8130 N.3    79  CYS79      -0.1235
    106  CA        23.1830    8.4530   17.2430 C.3    79  CYS79       0.1677
    107  C         24.3790    9.2130   17.8510 C.2    79  CYS79       0.2270
    108  O         24.1900   10.1480   18.6480 O.2    79  CYS79      -0.2867
    109  CB        22.9870    7.1000   17.9120 C.3    79  CYS79       0.0956
    110  SG        22.5070    7.2010   19.6490 S.3    79  CYS79      -0.0801
    111  N         24.2990   13.0430   16.4200 N.3    82  TYR82      -0.1227
    112  CA        23.2250   13.9270   16.8740 C.3    82  TYR82       0.1736
    113  C         23.2420   14.2710   18.3710 C.2    82  TYR82       0.2595
    114  O         22.9730   15.4220   18.7370 O.2    82  TYR82      -0.2718
    115  CB        21.8460   13.3620   16.4600 C.3    82  TYR82       0.0548
    116  CG        20.6880   14.1990   16.9690 C.ar   82  TYR82      -0.0200
    117  CD1       20.3420   15.4010   16.3480 C.ar   82  TYR82      -0.0009
    118  CD2       19.9820   13.8250   18.1110 C.ar   82  TYR82      -0.0009
    119  CE1       19.3190   16.2090   16.8540 C.ar   82  TYR82       0.0417
    120  CE2       18.9600   14.6260   18.6260 C.ar   82  TYR82       0.0417
    121  CZ        18.6190   15.8050   17.9800 C.ar   82  TYR82       0.1957
    122  OH        17.6180   16.5890   18.4980 O.3    82  TYR82      -0.2866
    123  N         23.4440   13.2740   19.2270 N.am   83  ASN83      -0.1974
    124  CA        23.3130   13.4450   20.6680 C.3    83  ASN83       0.1688
    125  C         24.5570   13.9220   21.3850 C.2    83  ASN83       0.2292
    126  O         25.6440   13.5370   20.9650 O.2    83  ASN83      -0.2864
    127  CB        22.8670   12.1140   21.2670 C.3    83  ASN83       0.1181
    128  CG        21.5500   11.6870   20.7020 C.2    83  ASN83       0.2629
    129  OD1       20.4830   12.2450   21.0420 O.2    83  ASN83      -0.2716
    130  ND2       21.6060   10.7500   19.7510 N.am   83  ASN83      -0.0877
    131  N         24.7610   11.5540   26.7360 N.3    87  HIS87      -0.1226
    132  CA        23.3610   11.1620   26.6590 C.3    87  HIS87       0.1752
    133  C         23.2050    9.6520   26.8790 C.2    87  HIS87       0.2596
    134  O         24.0280    8.8730   26.3900 O.2    87  HIS87      -0.2718
    135  CB        22.7330   11.5940   25.3190 C.3    87  HIS87       0.0759
    136  CG        21.2270   11.6340   25.3140 C.ar   87  HIS87       0.0818
    137  ND1       20.4650   10.4800   25.4390 N.ar   87  HIS87      -0.2268
    138  CD2       20.3920   12.6860   25.1380 C.ar   87  HIS87       0.1154
    139  CE1       19.2030   10.8680   25.3670 C.ar   87  HIS87       0.1986
    140  NE2       19.1080   12.1900   25.2010 N.ar   87  HIS87      -0.2212
    141  N         22.1500    9.2610   27.6290 N.am   88  GLU88      -0.1965
    142  CA        21.7640    7.8840   27.9330 C.3    88  GLU88       0.1733
    143  C         21.6710    7.0680   26.6260 C.2    88  GLU88       0.2616
    144  O         22.1020    5.9020   26.6010 O.2    88  GLU88      -0.2715
    145  CB        20.3770    7.9010   28.6420 C.3    88  GLU88       0.0429
    146  CG        19.9300    6.6080   29.3070 C.3    88  GLU88       0.1163
    147  CD        18.4300    6.4020   29.4710 C.2    88  GLU88       0.3649
    148  OE1       17.6810    7.4020   29.5800 O.co2  88  GLU88      -0.2457
    149  OE2       18.0060    5.2240   29.5120 O.co2  88  GLU88      -0.2457
    150  N         21.1330    7.6770   25.5430 N.am   89  VAL89      -0.1977
    151  CA        20.9380    6.9300   24.2830 C.3    89  VAL89       0.1596
    152  C         22.2760    6.5630   23.6000 C.2    89  VAL89       0.2287
    153  O         22.3350    5.5360   22.9010 O.2    89  VAL89      -0.2864
    154  CB        19.9440    7.6210   23.3150 C.3    89  VAL89       0.0276
    155  CG1       20.6020    8.7570   22.5230 C.3    89  VAL89       0.0022
    156  CG2       19.2730    6.6030   22.3860 C.3    89  VAL89       0.0022
    157  N         23.5380    3.4460   25.2890 N.3    92  MET92      -0.1245
    158  CA        22.7110    2.3540   24.7800 C.3    92  MET92       0.1570
    159  C         23.1910    1.9350   23.3970 C.2    92  MET92       0.2261
    160  O         23.3220    0.7260   23.1520 O.2    92  MET92      -0.2867
    161  CB        21.2250    2.7550   24.7610 C.3    92  MET92       0.0387
    162  CG        20.6780    2.9570   26.1610 C.3    92  MET92       0.0595
    163  SD        19.1050    3.8380   26.1940 S.3    92  MET92      -0.1393
    164  CE        18.0550    2.5770   26.0520 C.3    92  MET92       0.0692
@<TRIPOS>BOND
     1    47    46    1
     2    47    48    1
     3    97    98    1
     4    46    43    1
     5    88    87    2
     6    48    42    1
     7    87    86    1
     8    98   101    1
     9    98    99    1
    10   101   102    1
    11    43    42    1
    12    43    44    1
    13    94    92   ar
    14    94    95   ar
    15    92    90   ar
    16    42    35   am
    17    52    51    2
    18    86    85    1
    19    86    89    1
    20    99   100    2
    21    41    40    1
    22    96    95    1
    23    95    93   ar
    24   102   103    1
    25    44    49   am
    26    44    45    2
    27    90    89    1
    28    90    91   ar
    29   103   104    1
    30    49    50    1
    31    35    34    1
    32    35    36    2
    33    34    37    1
    34    34    33    1
    35    39    40    1
    36    39    38    1
    37    51    50    1
    38    51    56   am
    39    93    91   ar
    40    37    38    1
    41    50    53    1
    42    53    55    1
    43    53    54    1
    44    80    79    2
    45    62    61   ar
    46    57    56    1
    47    57    58    1
    48    57    60    1
    49    25    24    2
    50   105   106    1
    51    58    59    2
    52    61    60    1
    53    61    63   ar
    54   117   119   ar
    55   117   116   ar
    56   111   112    1
    57   115   112    1
    58   115   116    1
    59    79    78    1
    60   119   121   ar
    61    24    23    1
    62   112   113    1
    63   116   118   ar
    64   106   107    1
    65   106   109    1
    66    23    26    1
    67    23    22    1
    68    64    65    1
    69    26    27    1
    70    81    78    1
    71    81    82    1
    72   107   108    2
    73    78    77    1
    74   109   110    1
    75   121   122    1
    76   121   120   ar
    77    28    27   ar
    78    28    30   ar
    79   118   120   ar
    80   113   114    2
    81   113   123   am
    82    27    29   ar
    83    18    17    2
    84    83    82    1
    85    30    32   ar
    86    82    84    1
    87    22    17   am
    88    65    68    1
    89    65    66    1
    90   123   124    1
    91    17    16    1
    92    75    74    1
    93    69    66   am
    94    69    70    1
    95   130   128   am
    96    29    31   ar
    97    66    67    2
    98    73    74    1
    99    73    70    1
   100    32    31   ar
   101    74    76    1
   102     4     3    2
   103    70    71    1
   104    71    72    2
   105   124   127    1
   106   124   125    1
   107   128   129    2
   108   128   127    1
   109    16    15    1
   110    16    19    1
   111   126   125    2
   112     3    15   am
   113     3     2    1
   114    15    21    1
   115    19    20    1
   116     2     1    1
   117     2     5    1
   118   156   154    1
   119   155   154    1
   120    21    20    1
   121   153   152    2
   122   160   159    2
   123     5     6    1
   124   154   151    1
   125   159   158    1
   126    11    13   ar
   127    11     8   ar
   128   152   151    1
   129    13    14   ar
   130   151   150    1
   131     6     8   ar
   132     6     7   ar
   133     8    10   ar
   134   161   158    1
   135   161   162    1
   136   158   157    1
   137    14    12   ar
   138   138   140   ar
   139   138   136   ar
   140   140   139   ar
   141   136   135    1
   142   136   137   ar
   143   135   132    1
   144   139   137   ar
   145     7     9   ar
   146   150   143   am
   147    10    12   ar
   148    10     9   ar
   149   164   163    1
   150   162   163    1
   151   134   133    2
   152   144   143    2
   153   143   142    1
   154   132   131    1
   155   132   133    1
   156   133   141   am
   157   141   142    1
   158   142   145    1
   159   145   146    1
   160   146   147    1
   161   147   149   ar
   162   147   148   ar
