@<TRIPOS>MOLECULE
tmp/5uvvA00.pdb
 171 171 0 0 0
SMALL
GASTEIGER

@<TRIPOS>ATOM
      1  N         14.9890    4.6680    3.4360 N.3    26  TRP26      -0.1228
      2  CA        14.6680    6.0630    3.1090 C.3    26  TRP26       0.1722
      3  C         13.9920    6.2690    1.7310 C.2    26  TRP26       0.2437
      4  O         13.1020    7.1150    1.6890 O.2    26  TRP26      -0.2733
      5  CB        15.8730    7.0200    3.2850 C.3    26  TRP26       0.0563
      6  CG        16.9720    6.8800    2.2740 C.ar   26  TRP26       0.0003
      7  CD1       18.1150    6.1490    2.4050 C.ar   26  TRP26       0.0946
      8  CD2       17.0430    7.5080    0.9860 C.ar   26  TRP26       0.0152
      9  NE1       18.8820    6.2600    1.2700 N.ar   26  TRP26      -0.2442
     10  CE2       18.2420    7.0780    0.3760 C.ar   26  TRP26       0.0810
     11  CE3       16.1830    8.3550    0.2630 C.ar   26  TRP26       0.0012
     12  CZ2       18.6150    7.4830   -0.9100 C.ar   26  TRP26       0.0191
     13  CZ3       16.5510    8.7500   -1.0140 C.ar   26  TRP26       0.0001
     14  CH2       17.7580    8.3220   -1.5830 C.ar   26  TRP26       0.0015
     15  N         14.3070    5.5550    0.6110 N.am   27  PRO27      -0.2718
     16  CA        13.5870    5.8430   -0.6470 C.3    27  PRO27       0.1535
     17  C         12.1100    5.4310   -0.6460 C.2    27  PRO27       0.2599
     18  O         11.4030    5.7320   -1.6060 O.2    27  PRO27      -0.2715
     19  CB        14.3820    5.0600   -1.7040 C.3    27  PRO27       0.0310
     20  CG        15.6640    4.7020   -1.0530 C.3    27  PRO27       0.0237
     21  CD        15.3280    4.5150    0.3870 C.3    27  PRO27       0.0939
     22  N         11.6440    4.7750    0.4390 N.am   28  PHE28      -0.1960
     23  CA        10.2710    4.2770    0.5940 C.3    28  PHE28       0.1771
     24  C          9.4450    5.0560    1.6150 C.2    28  PHE28       0.2620
     25  O          8.2400    4.8230    1.7190 O.2    28  PHE28      -0.2715
     26  CB        10.2940    2.7670    0.9270 C.3    28  PHE28       0.0574
     27  CG        11.1710    2.0000   -0.0300 C.ar   28  PHE28      -0.0200
     28  CD1       10.7260    1.6960   -1.3130 C.ar   28  PHE28      -0.0042
     29  CD2       12.4760    1.6650    0.3140 C.ar   28  PHE28      -0.0042
     30  CE1       11.5590    1.0460   -2.2210 C.ar   28  PHE28      -0.0003
     31  CE2       13.3100    1.0170   -0.5980 C.ar   28  PHE28      -0.0003
     32  CZ        12.8480    0.7200   -1.8620 C.ar   28  PHE28      -0.0000
     33  N         10.0870    5.9950    2.3450 N.am   29  TYR29      -0.1960
     34  CA         9.4840    6.8270    3.3900 C.3    29  TYR29       0.1771
     35  C          8.2790    7.6400    2.9210 C.2    29  TYR29       0.2619
     36  O          7.3250    7.7950    3.6780 O.2    29  TYR29      -0.2715
     37  CB        10.5260    7.8100    3.9640 C.3    29  TYR29       0.0574
     38  CG        11.5090    7.2640    4.9820 C.ar   29  TYR29      -0.0198
     39  CD1       11.4540    5.9350    5.3960 C.ar   29  TYR29      -0.0009
     40  CD2       12.4790    8.0860    5.5490 C.ar   29  TYR29      -0.0009
     41  CE1       12.3520    5.4350    6.3380 C.ar   29  TYR29       0.0417
     42  CE2       13.3770    7.5980    6.4960 C.ar   29  TYR29       0.0417
     43  CZ        13.3150    6.2700    6.8830 C.ar   29  TYR29       0.1957
     44  OH        14.1990    5.7930    7.8180 O.3    29  TYR29      -0.2866
     45  N          8.3470    8.1900    1.6950 N.am   30  LYS30      -0.1964
     46  CA         7.3440    9.0920    1.1220 C.3    30  LYS30       0.1713
     47  C          7.0550    8.7440   -0.3510 C.2    30  LYS30       0.2458
     48  O          7.8470    8.0070   -0.9390 O.2    30  LYS30      -0.2730
     49  CB         7.8750   10.5430    1.2160 C.3    30  LYS30       0.0311
     50  CG         8.0040   11.0960    2.6340 C.3    30  LYS30       0.0038
     51  CD         8.8960   12.3280    2.6600 C.3    30  LYS30       0.0206
     52  CE         9.2990   12.7210    4.0590 C.3    30  LYS30       0.1093
     53  NZ        10.2400   13.8740    4.0540 N.3    30  LYS30      -0.1314
     54  N          5.9660    9.2730   -0.9900 N.am   31  PRO31      -0.2716
     55  CA         5.7200    8.9440   -2.4100 C.3    31  PRO31       0.1536
     56  C          6.8650    9.3470   -3.3340 C.2    31  PRO31       0.2598
     57  O          7.5680   10.3250   -3.0600 O.2    31  PRO31      -0.2715
     58  CB         4.4410    9.7230   -2.7480 C.3    31  PRO31       0.0310
     59  CG         3.8030   10.0180   -1.4530 C.3    31  PRO31       0.0237
     60  CD         4.9130   10.1690   -0.4640 C.3    31  PRO31       0.0939
     61  N          7.0620    8.5770   -4.4190 N.am   32  VAL32      -0.1964
     62  CA         8.1170    8.8320   -5.4050 C.3    32  VAL32       0.1727
     63  C          7.8360   10.1560   -6.1190 C.2    32  VAL32       0.2616
     64  O          6.7450   10.3340   -6.6690 O.2    32  VAL32      -0.2715
     65  CB         8.3000    7.6660   -6.4150 C.3    32  VAL32       0.0290
     66  CG1        9.5230    7.8870   -7.3030 C.3    32  VAL32       0.0023
     67  CG2        8.3980    6.3200   -5.7070 C.3    32  VAL32       0.0023
     68  N          8.8100   11.0890   -6.0760 N.am   33  ASP33      -0.1971
     69  CA         8.7060   12.3940   -6.7290 C.3    33  ASP33       0.1709
     70  C          9.1060   12.2030   -8.1940 C.2    33  ASP33       0.2293
     71  O         10.2880   12.2810   -8.5390 O.2    33  ASP33      -0.2864
     72  CB         9.5940   13.4350   -6.0180 C.3    33  ASP33       0.1436
     73  CG         9.0410   14.8480   -6.0420 C.2    33  ASP33       0.3671
     74  OD1        8.6830   15.3300   -7.1420 O.co2  33  ASP33      -0.2456
     75  OD2        9.0000   15.4860   -4.9680 O.co2  33  ASP33      -0.2456
     76  N         12.7520   13.6200   -9.9480 N.3    37  LEU37      -0.1245
     77  CA        13.7370   12.5720  -10.2360 C.3    37  LEU37       0.1561
     78  C         13.8650   12.2600  -11.7340 C.2    37  LEU37       0.2260
     79  O         14.7590   11.5100  -12.1300 O.2    37  LEU37      -0.2867
     80  CB        13.4310   11.2890   -9.4400 C.3    37  LEU37       0.0270
     81  CG        13.4750   11.3800   -7.9130 C.3    37  LEU37       0.0019
     82  CD1       12.6910   10.2510   -7.2950 C.3    37  LEU37       0.0001
     83  CD2       14.9070   11.3740   -7.3900 C.3    37  LEU37       0.0001
     84  N         11.3490   10.8350  -13.8270 N.3    39  LEU39      -0.1245
     85  CA        10.7470    9.5300  -14.1190 C.3    39  LEU39       0.1561
     86  C          9.3370    9.7380  -14.6920 C.2    39  LEU39       0.2260
     87  O          8.3410    9.6210  -13.9720 O.2    39  LEU39      -0.2867
     88  CB        10.7150    8.6160  -12.8640 C.3    39  LEU39       0.0270
     89  CG        11.9810    8.5160  -11.9930 C.3    39  LEU39       0.0019
     90  CD1       11.6470    7.9950  -10.6120 C.3    39  LEU39       0.0001
     91  CD2       13.0510    7.6430  -12.6400 C.3    39  LEU39       0.0001
     92  N          7.1180    6.4020  -15.1190 N.3    42  TYR42      -0.1241
     93  CA         6.6600    5.8130  -13.8520 C.3    42  TYR42       0.1605
     94  C          5.1390    5.7290  -13.7310 C.2    42  TYR42       0.2264
     95  O          4.6340    4.6950  -13.3030 O.2    42  TYR42      -0.2867
     96  CB         7.2760    6.5370  -12.6390 C.3    42  TYR42       0.0534
     97  CG         7.0840    5.8130  -11.3210 C.ar   42  TYR42      -0.0201
     98  CD1        8.0030    4.8630  -10.8830 C.ar   42  TYR42      -0.0009
     99  CD2        5.9930    6.0910  -10.5020 C.ar   42  TYR42      -0.0009
    100  CE1        7.8330    4.1970   -9.6690 C.ar   42  TYR42       0.0417
    101  CE2        5.8110    5.4300   -9.2880 C.ar   42  TYR42       0.0417
    102  CZ         6.7340    4.4840   -8.8750 C.ar   42  TYR42       0.1957
    103  OH         6.5580    3.8320   -7.6790 O.3    42  TYR42      -0.2866
    104  N          4.1900   -1.8460   -2.4390 N.3    77  MET77      -0.1245
    105  CA         5.2750   -0.8650   -2.4090 C.3    77  MET77       0.1570
    106  C          6.5550   -1.5140   -2.9330 C.2    77  MET77       0.2261
    107  O          7.2360   -0.9150   -3.7610 O.2    77  MET77      -0.2867
    108  CB         5.4590   -0.3490   -0.9730 C.3    77  MET77       0.0387
    109  CG         6.5470    0.7000   -0.8140 C.3    77  MET77       0.0595
    110  SD         6.7310    1.1690    0.9200 S.3    77  MET77      -0.1393
    111  CE         7.7250   -0.1660    1.5220 C.3    77  MET77       0.0692
    112  N          8.5570   -1.2780   -6.9930 N.3    81  CYS81      -0.1235
    113  CA         9.9990   -1.0620   -7.1020 C.3    81  CYS81       0.1677
    114  C         10.6490   -2.1200   -7.9990 C.2    81  CYS81       0.2270
    115  O         11.5050   -1.7770   -8.8150 O.2    81  CYS81      -0.2867
    116  CB        10.6420   -1.0260   -5.7170 C.3    81  CYS81       0.0956
    117  SG        12.4150   -0.6600   -5.7300 S.3    81  CYS81      -0.0801
    118  N          9.1580   -1.5190  -12.0550 N.3    84  TYR84      -0.1227
    119  CA         9.6820   -0.3400  -12.7490 C.3    84  TYR84       0.1736
    120  C         11.2000   -0.3360  -12.9590 C.2    84  TYR84       0.2595
    121  O         11.6540   -0.0230  -14.0620 O.2    84  TYR84      -0.2718
    122  CB         9.2290    0.9540  -12.0440 C.3    84  TYR84       0.0548
    123  CG         9.7300    2.2160  -12.7150 C.ar   84  TYR84      -0.0200
    124  CD1        9.1520    2.6810  -13.8930 C.ar   84  TYR84      -0.0009
    125  CD2       10.7980    2.9340  -12.1830 C.ar   84  TYR84      -0.0009
    126  CE1        9.6350    3.8190  -14.5350 C.ar   84  TYR84       0.0417
    127  CE2       11.2840    4.0780  -12.8120 C.ar   84  TYR84       0.0417
    128  CZ        10.6960    4.5200  -13.9870 C.ar   84  TYR84       0.1957
    129  OH        11.1640    5.6510  -14.6120 O.3    84  TYR84      -0.2866
    130  N         11.9720   -0.6370  -11.9080 N.am   85  ASN85      -0.1974
    131  CA        13.4330   -0.5980  -11.9480 C.3    85  ASN85       0.1688
    132  C         14.0810   -1.8910  -12.4520 C.2    85  ASN85       0.2292
    133  O         13.5570   -2.9710  -12.1730 O.2    85  ASN85      -0.2864
    134  CB        13.9850   -0.2370  -10.5670 C.3    85  ASN85       0.1181
    135  CG        13.3910    1.0200   -9.9920 C.2    85  ASN85       0.2629
    136  OD1       13.8310    2.1340  -10.2880 O.2    85  ASN85      -0.2716
    137  ND2       12.3840    0.8710   -9.1480 N.am   85  ASN85      -0.0877
    138  N         19.6070   -2.3970  -10.4120 N.3    89  HIS89      -0.1226
    139  CA        19.4570   -1.0970   -9.7450 C.3    89  HIS89       0.1752
    140  C         19.6510   -1.1460   -8.2270 C.2    89  HIS89       0.2596
    141  O         19.3110   -2.1450   -7.5890 O.2    89  HIS89      -0.2718
    142  CB        18.1090   -0.4500  -10.1000 C.3    89  HIS89       0.0759
    143  CG        18.1100    1.0450  -10.0090 C.ar   89  HIS89       0.0818
    144  ND1       18.1180    1.6940   -8.7890 N.ar   89  HIS89      -0.2268
    145  CD2       18.0780    1.9710  -10.9960 C.ar   89  HIS89       0.1154
    146  CE1       18.0970    2.9870   -9.0690 C.ar   89  HIS89       0.1986
    147  NE2       18.0740    3.2020  -10.3840 N.ar   89  HIS89      -0.2212
    148  N         20.1990   -0.0510   -7.6580 N.am   90  GLU90      -0.1965
    149  CA        20.4810    0.0910   -6.2250 C.3    90  GLU90       0.1733
    150  C         19.2190    0.1290   -5.3660 C.2    90  GLU90       0.2616
    151  O         19.2390   -0.4020   -4.2570 O.2    90  GLU90      -0.2715
    152  CB        21.3540    1.3310   -5.9570 C.3    90  GLU90       0.0429
    153  CG        22.1550    1.2510   -4.6670 C.3    90  GLU90       0.1163
    154  CD        23.0100    2.4700   -4.3770 C.2    90  GLU90       0.3649
    155  OE1       24.1290    2.5610   -4.9320 O.co2  90  GLU90      -0.2457
    156  OE2       22.5610    3.3330   -3.5890 O.co2  90  GLU90      -0.2457
    157  N         18.1290    0.7480   -5.8680 N.am   91  VAL91      -0.1977
    158  CA        16.8620    0.8610   -5.1360 C.3    91  VAL91       0.1596
    159  C         16.1770   -0.5260   -4.9650 C.2    91  VAL91       0.2287
    160  O         15.4460   -0.7200   -3.9920 O.2    91  VAL91      -0.2864
    161  CB        15.9240    1.9570   -5.7200 C.3    91  VAL91       0.0276
    162  CG1       15.2100    1.4980   -6.9900 C.3    91  VAL91       0.0022
    163  CG2       14.9260    2.4560   -4.6780 C.3    91  VAL91       0.0022
    164  N         17.9670   -2.1600   -2.0620 N.3    94  MET94      -0.1245
    165  CA        17.4700   -1.4380   -0.8860 C.3    94  MET94       0.1570
    166  C         16.0790   -1.9690   -0.5050 C.2    94  MET94       0.2261
    167  O         15.8260   -2.2120    0.6730 O.2    94  MET94      -0.2867
    168  CB        17.4240    0.0700   -1.1580 C.3    94  MET94       0.0387
    169  CG        18.7950    0.7060   -1.2200 C.3    94  MET94       0.0595
    170  SD        18.7430    2.3680   -1.9060 S.3    94  MET94      -0.1393
    171  CE        19.1000    3.2980   -0.4590 C.3    94  MET94       0.0692
@<TRIPOS>BOND
     1    92    93    1
     2    86    85    1
     3    86    87    2
     4   129   128    1
     5   126   128   ar
     6   126   124   ar
     7    85    84    1
     8    85    88    1
     9   121   120    2
    10   128   127   ar
    11   124   123   ar
    12    93    94    1
    13    93    96    1
    14    94    95    2
    15   120   119    1
    16   120   130   am
    17    88    89    1
    18   127   125   ar
    19   119   118    1
    20   119   122    1
    21   123   125   ar
    22   123   122    1
    23    91    89    1
    24    96    97    1
    25   132   133    2
    26   132   131    1
    27    79    78    2
    28    89    90    1
    29   131   130    1
    30   131   134    1
    31    78    77    1
    32    97    98   ar
    33    97    99   ar
    34   145   147   ar
    35   145   143   ar
    36    98   100   ar
    37   134   135    1
    38    99   101   ar
    39   138   139    1
    40   147   146   ar
    41   136   135    2
    42    77    76    1
    43    77    80    1
    44   142   143    1
    45   142   139    1
    46   143   144   ar
    47   135   137   am
    48   139   140    1
    49   100   102   ar
    50    80    81    1
    51   101   102   ar
    52   146   144   ar
    53   102   103    1
    54   115   114    2
    55    71    70    2
    56   140   148   am
    57   140   141    2
    58    70    69    1
    59   114   113    1
    60    81    83    1
    61    81    82    1
    62   148   149    1
    63    66    65    1
    64    74    73   ar
    65   113   112    1
    66   113   116    1
    67   162   161    1
    68    69    68    1
    69    69    72    1
    70    64    63    2
    71    65    67    1
    72    65    62    1
    73   149   152    1
    74   149   150    1
    75    63    68   am
    76    63    62    1
    77    73    72    1
    78    73    75   ar
    79   152   153    1
    80   157   150   am
    81   157   158    1
    82   117   116    1
    83   161   158    1
    84   161   163    1
    85    62    61    1
    86   150   151    2
    87   158   159    1
    88   159   160    2
    89   155   154   ar
    90   153   154    1
    91    61    56   am
    92   154   156   ar
    93   107   106    2
    94    56    57    2
    95    56    55    1
    96   106   105    1
    97    58    55    1
    98    58    59    1
    99   104   105    1
   100    55    54    1
   101   105   108    1
   102    30    32   ar
   103    30    28   ar
   104   164   165    1
   105   170   169    1
   106   170   171    1
   107    32    31   ar
   108    19    20    1
   109    19    16    1
   110    18    17    2
   111    14    13   ar
   112    14    12   ar
   113    59    60    1
   114    28    27   ar
   115   169   168    1
   116   168   165    1
   117    20    21    1
   118    13    11   ar
   119    54    60    1
   120    54    47   am
   121   108   109    1
   122    48    47    2
   123    12    10   ar
   124   165   166    1
   125   109   110    1
   126    16    17    1
   127    16    15    1
   128    17    22   am
   129    31    29   ar
   130   166   167    2
   131    47    46    1
   132    27    29   ar
   133    27    26    1
   134    11     8   ar
   135    10     8   ar
   136    10     9   ar
   137    21    15    1
   138    22    23    1
   139    23    26    1
   140    23    24    1
   141    15     3   am
   142   110   111    1
   143     8     6   ar
   144    46    49    1
   145    46    45    1
   146    49    50    1
   147     9     7   ar
   148    24    25    2
   149    24    33   am
   150     4     3    2
   151    45    35   am
   152     3     2    1
   153     6     7   ar
   154     6     5    1
   155    33    34    1
   156    50    51    1
   157    51    52    1
   158    35    34    1
   159    35    36    2
   160     2     5    1
   161     2     1    1
   162    34    37    1
   163    37    38    1
   164    53    52    1
   165    38    39   ar
   166    38    40   ar
   167    39    41   ar
   168    40    42   ar
   169    41    43   ar
   170    42    43   ar
   171    43    44    1
