@<TRIPOS>MOLECULE
tmp/5uvwA00.pdb
 166 162 0 0 0
SMALL
GASTEIGER

@<TRIPOS>ATOM
      1  N         63.6650  -20.1200    0.4220 N.3    25  TRP25      -0.1228
      2  CA        62.4340  -20.8970    0.6050 C.3    25  TRP25       0.1722
      3  C         61.3520  -20.2190    1.5030 C.2    25  TRP25       0.2437
      4  O         60.1860  -20.2970    1.0970 O.2    25  TRP25      -0.2733
      5  CB        62.7120  -22.3750    1.0280 C.3    25  TRP25       0.0563
      6  CG        63.3770  -22.5530    2.3550 C.ar   25  TRP25       0.0003
      7  CD1       64.7160  -22.5380    2.6160 C.ar   25  TRP25       0.0946
      8  CD2       62.7210  -22.7140    3.6160 C.ar   25  TRP25       0.0152
      9  NE1       64.9350  -22.6350    3.9740 N.ar   25  TRP25      -0.2442
     10  CE2       63.7260  -22.7460    4.6120 C.ar   25  TRP25       0.0810
     11  CE3       61.3690  -22.7490    4.0150 C.ar   25  TRP25       0.0012
     12  CZ2       63.4220  -22.8590    5.9800 C.ar   25  TRP25       0.0191
     13  CZ3       61.0760  -22.8860    5.3660 C.ar   25  TRP25       0.0001
     14  CH2       62.0930  -22.9470    6.3290 C.ar   25  TRP25       0.0015
     15  N         61.6070  -19.5320    2.6410 N.am   26  PRO26      -0.2718
     16  CA        60.4810  -18.9030    3.3630 C.3    26  PRO26       0.1535
     17  C         59.8650  -17.6910    2.6320 C.2    26  PRO26       0.2598
     18  O         58.8280  -17.2000    3.0570 O.2    26  PRO26      -0.2715
     19  CB        61.1140  -18.4420    4.6820 C.3    26  PRO26       0.0310
     20  CG        62.4340  -19.1410    4.7680 C.3    26  PRO26       0.0237
     21  CD        62.8780  -19.2820    3.3540 C.3    26  PRO26       0.0939
     22  N         60.4850  -17.2470    1.5170 N.am   27  PHE27      -0.1974
     23  CA        60.0920  -16.0500    0.7460 C.3    27  PHE27       0.1639
     24  C         59.5280  -16.3660   -0.6330 C.2    27  PHE27       0.2290
     25  O         59.2230  -15.4420   -1.3820 O.2    27  PHE27      -0.2864
     26  CB        61.3100  -15.0950    0.6160 C.3    27  PHE27       0.0560
     27  CG        61.9310  -14.7090    1.9430 C.ar   27  PHE27      -0.0200
     28  CD1       61.4490  -13.6180    2.6650 C.ar   27  PHE27      -0.0042
     29  CD2       62.9950  -15.4450    2.4770 C.ar   27  PHE27      -0.0042
     30  CE1       62.0070  -13.2820    3.9090 C.ar   27  PHE27      -0.0003
     31  CE2       63.5510  -15.1090    3.7150 C.ar   27  PHE27      -0.0003
     32  CZ        63.0570  -14.0290    4.4230 C.ar   27  PHE27      -0.0000
     33  N         56.6430  -17.8790   -1.3350 N.3    29  GLN29      -0.1231
     34  CA        55.1750  -17.8290   -1.3230 C.3    29  GLN29       0.1683
     35  C         54.7450  -16.8210   -0.2660 C.2    29  GLN29       0.2434
     36  O         55.5470  -16.5610    0.6370 O.2    29  GLN29      -0.2733
     37  CB        54.5850  -19.2080   -0.8960 C.3    29  GLN29       0.0380
     38  CG        54.7160  -20.3190   -1.9230 C.3    29  GLN29       0.0905
     39  CD        54.7950  -21.6660   -1.2400 C.2    29  GLN29       0.2608
     40  OE1       53.8320  -22.1290   -0.6000 O.2    29  GLN29      -0.2717
     41  NE2       55.9630  -22.3080   -1.3410 N.am   29  GLN29      -0.0878
     42  N         53.4850  -16.3030   -0.2900 N.am   30  PRO30      -0.2718
     43  CA        53.0460  -15.4050    0.7850 C.3    30  PRO30       0.1535
     44  C         53.1470  -16.0550    2.1630 C.2    30  PRO30       0.2598
     45  O         53.0310  -17.2800    2.2870 O.2    30  PRO30      -0.2715
     46  CB        51.5640  -15.1270    0.4350 C.3    30  PRO30       0.0310
     47  CG        51.4680  -15.3560   -1.0300 C.3    30  PRO30       0.0237
     48  CD        52.4070  -16.5010   -1.2910 C.3    30  PRO30       0.0939
     49  N         53.3730  -15.2280    3.2000 N.am   31  VAL31      -0.1964
     50  CA        53.4470  -15.6850    4.5910 C.3    31  VAL31       0.1727
     51  C         52.0810  -16.3170    4.9550 C.2    31  VAL31       0.2616
     52  O         51.0370  -15.7090    4.6960 O.2    31  VAL31      -0.2715
     53  CB        53.8230  -14.5180    5.5480 C.3    31  VAL31       0.0290
     54  CG1       53.7140  -14.9290    7.0150 C.3    31  VAL31       0.0023
     55  CG2       55.2170  -13.9870    5.2500 C.3    31  VAL31       0.0023
     56  N         52.0930  -17.5560    5.4940 N.am   32  ASP32      -0.1971
     57  CA        50.8610  -18.2190    5.9280 C.3    32  ASP32       0.1709
     58  C         50.8550  -18.0520    7.4460 C.2    32  ASP32       0.2293
     59  O         51.4030  -18.8870    8.1700 O.2    32  ASP32      -0.2864
     60  CB        50.8500  -19.7110    5.5210 C.3    32  ASP32       0.1436
     61  CG        49.5300  -20.4320    5.7610 C.2    32  ASP32       0.3671
     62  OD1       48.7920  -20.0360    6.6950 O.co2  32  ASP32      -0.2456
     63  OD2       49.2560  -21.4150    5.0410 O.co2  32  ASP32      -0.2456
     64  N         49.1850  -21.1500    9.7040 N.3    35  LYS35      -0.1231
     65  CA        50.0410  -22.3300    9.9210 C.3    35  LYS35       0.1693
     66  C         51.2870  -22.0010   10.7700 C.2    35  LYS35       0.2591
     67  O         51.7630  -22.8510   11.5370 O.2    35  LYS35      -0.2718
     68  CB        50.3940  -23.0280    8.5900 C.3    35  LYS35       0.0285
     69  CG        51.7030  -22.5880    7.9350 C.3    35  LYS35       0.0035
     70  CD        51.9080  -23.2720    6.5960 C.3    35  LYS35       0.0206
     71  CE        53.2660  -22.9430    6.0370 C.3    35  LYS35       0.1093
     72  NZ        53.4030  -23.4350    4.6290 N.3    35  LYS35      -0.1314
     73  N         51.7710  -20.7440   10.6710 N.am   36  LEU36      -0.1980
     74  CA        52.9420  -20.2970   11.4040 C.3    36  LEU36       0.1596
     75  C         52.6240  -19.6760   12.7640 C.2    36  LEU36       0.2287
     76  O         53.5500  -19.3540   13.4960 O.2    36  LEU36      -0.2864
     77  CB        53.7650  -19.3310   10.5490 C.3    36  LEU36       0.0297
     78  CG        54.4140  -19.8880    9.2800 C.3    36  LEU36       0.0022
     79  CD1       55.0010  -18.7370    8.4630 C.3    36  LEU36       0.0001
     80  CD2       55.4950  -20.9640    9.6090 C.3    36  LEU36       0.0001
     81  N         51.3500  -16.6800   13.5390 N.3    38  LEU38      -0.1245
     82  CA        51.9760  -15.3470   13.5900 C.3    38  LEU38       0.1561
     83  C         50.8990  -14.3750   14.0090 C.2    38  LEU38       0.2260
     84  O         50.0150  -14.0490   13.1960 O.2    38  LEU38      -0.2867
     85  CB        52.6440  -14.9610   12.2610 C.3    38  LEU38       0.0270
     86  CG        53.7970  -15.8440   11.8030 C.3    38  LEU38       0.0019
     87  CD1       54.3910  -15.3160   10.5260 C.3    38  LEU38       0.0001
     88  CD2       54.8920  -15.9950   12.9080 C.3    38  LEU38       0.0001
     89  N         49.9500  -10.6800   12.2400 N.3    41  TYR41      -0.1241
     90  CA        50.7560  -10.4460   11.0430 C.3    41  TYR41       0.1605
     91  C         50.0180   -9.5490   10.0460 C.2    41  TYR41       0.2264
     92  O         50.5670   -8.5410    9.6200 O.2    41  TYR41      -0.2867
     93  CB        51.2090  -11.7480   10.3470 C.3    41  TYR41       0.0534
     94  CG        52.1910  -11.4820    9.2120 C.ar   41  TYR41      -0.0201
     95  CD1       53.5590  -11.4090    9.4500 C.ar   41  TYR41      -0.0009
     96  CD2       51.7450  -11.2830    7.9060 C.ar   41  TYR41      -0.0009
     97  CE1       54.4590  -11.1120    8.4250 C.ar   41  TYR41       0.0417
     98  CE2       52.6380  -11.0230    6.8680 C.ar   41  TYR41       0.0417
     99  CZ        53.9910  -10.9140    7.1370 C.ar   41  TYR41       0.1957
    100  OH        54.8770  -10.6220    6.1250 O.3    41  TYR41      -0.2866
    101  N         54.2550   -9.1260    0.7470 N.3    49  MET49      -0.1245
    102  CA        54.9430   -9.3410   -0.5320 C.3    49  MET49       0.1570
    103  C         55.8790  -10.5390   -0.3910 C.2    49  MET49       0.2261
    104  O         56.4080  -10.7800    0.6900 O.2    49  MET49      -0.2867
    105  CB        55.7240   -8.0790   -0.9690 C.3    49  MET49       0.0387
    106  CG        56.2300   -8.1100   -2.4160 C.3    49  MET49       0.0595
    107  SD        55.0890   -8.6390   -3.7120 S.3    49  MET49      -0.1393
    108  CE        53.7330   -7.4070   -3.5180 C.3    49  MET49       0.0692
    109  N         59.0830   -6.6150    0.5510 N.3    76  MET76      -0.1245
    110  CA        59.2690   -7.9840    1.0740 C.3    76  MET76       0.1570
    111  C         60.2970   -8.0130    2.2270 C.2    76  MET76       0.2261
    112  O         60.0150   -8.5710    3.2910 O.2    76  MET76      -0.2867
    113  CB        59.6860   -8.9440   -0.0500 C.3    76  MET76       0.0387
    114  CG        60.0030  -10.3730    0.4630 C.3    76  MET76       0.0595
    115  SD        60.5240  -11.4420   -0.8750 S.3    76  MET76      -0.1393
    116  CE        62.1770  -10.8630   -1.1320 C.3    76  MET76       0.0692
    117  N         59.4990   -8.1150    6.6570 N.3    80  CYS80      -0.1235
    118  CA        60.1960   -9.0820    7.5080 C.3    80  CYS80       0.1677
    119  C         60.8360   -8.3880    8.7200 C.2    80  CYS80       0.2270
    120  O         60.6940   -8.8660    9.8410 O.2    80  CYS80      -0.2867
    121  CB        61.2260   -9.8650    6.6900 C.3    80  CYS80       0.0956
    122  SG        61.9280  -11.2900    7.5580 S.3    80  CYS80      -0.0801
    123  N         57.8450   -6.9780   11.1070 N.3    83  TYR83      -0.1227
    124  CA        57.1400   -7.9790   11.8890 C.3    83  TYR83       0.1736
    125  C         58.0090   -8.7090   12.9180 C.2    83  TYR83       0.2595
    126  O         57.5990   -8.8670   14.0620 O.2    83  TYR83      -0.2718
    127  CB        56.3990   -8.9980   10.9960 C.3    83  TYR83       0.0548
    128  CG        55.5430   -9.9200   11.8430 C.ar   83  TYR83      -0.0200
    129  CD1       54.3210   -9.4890   12.3570 C.ar   83  TYR83      -0.0009
    130  CD2       56.0190  -11.1730   12.2470 C.ar   83  TYR83      -0.0009
    131  CE1       53.5920  -10.2780   13.2430 C.ar   83  TYR83       0.0417
    132  CE2       55.2880  -11.9770   13.1200 C.ar   83  TYR83       0.0417
    133  CZ        54.0700  -11.5310   13.6030 C.ar   83  TYR83       0.1957
    134  OH        53.3560  -12.3140   14.4690 O.3    83  TYR83      -0.2866
    135  N         59.1490   -9.2130   12.4840 N.am   84  ASN84      -0.1974
    136  CA        59.9950  -10.0790   13.2950 C.3    84  ASN84       0.1688
    137  C         60.9680   -9.3460   14.1710 C.2    84  ASN84       0.2292
    138  O         61.3280   -8.2110   13.8850 O.2    84  ASN84      -0.2864
    139  CB        60.7130  -11.0830   12.3860 C.3    84  ASN84       0.1181
    140  CG        59.7510  -11.8290   11.5050 C.2    84  ASN84       0.2629
    141  OD1       59.0000  -12.7030   11.9590 O.2    84  ASN84      -0.2716
    142  ND2       59.6970  -11.4590   10.2340 N.am   84  ASN84      -0.0877
    143  N         66.1270  -15.8330   13.1550 N.3    89  ASP89      -0.1225
    144  CA        66.6760  -16.5290   11.9890 C.3    89  ASP89       0.1805
    145  C         66.1110  -16.0040   10.6660 C.2    89  ASP89       0.2597
    146  O         66.8740  -15.7880    9.7260 O.2    89  ASP89      -0.2718
    147  CB        66.4490  -18.0500   12.0980 C.3    89  ASP89       0.1424
    148  CG        67.2010  -18.7320   13.2340 C.2    89  ASP89       0.3668
    149  OD1       68.2240  -18.1690   13.6990 O.co2  89  ASP89      -0.2456
    150  OD2       66.7810  -19.8380   13.6400 O.co2  89  ASP89      -0.2456
    151  N         64.7840  -15.7750   10.6030 N.am   90  ILE90      -0.1980
    152  CA        64.1130  -15.2550    9.3960 C.3    90  ILE90       0.1595
    153  C         64.6780  -13.8630    8.9840 C.2    90  ILE90       0.2287
    154  O         64.8760  -13.6150    7.7940 O.2    90  ILE90      -0.2864
    155  CB        62.5520  -15.2880    9.5290 C.3    90  ILE90       0.0276
    156  CG1       61.8570  -15.0430    8.1740 C.3    90  ILE90       0.0022
    157  CG2       62.0190  -14.3540   10.6250 C.3    90  ILE90       0.0022
    158  CD1       62.0920  -16.1490    7.1590 C.3    90  ILE90       0.0001
    159  N         68.0850  -14.4090    7.5010 N.3    93  MET93      -0.1245
    160  CA        67.8480  -14.9470    6.1580 C.3    93  MET93       0.1570
    161  C         67.4940  -13.8260    5.1800 C.2    93  MET93       0.2261
    162  O         68.0830  -13.7640    4.1040 O.2    93  MET93      -0.2867
    163  CB        66.7530  -16.0230    6.1950 C.3    93  MET93       0.0387
    164  CG        67.1930  -17.2960    6.9290 C.3    93  MET93       0.0595
    165  SD        65.8400  -18.4530    7.1750 S.3    93  MET93      -0.1393
    166  CE        65.9270  -19.3450    5.6530 C.3    93  MET93       0.0692
@<TRIPOS>BOND
     1   107   108    1
     2   107   106    1
     3   106   105    1
     4    38    39    1
     5    38    37    1
     6    25    24    2
     7    41    39   am
     8    33    34    1
     9    34    37    1
    10    34    35    1
    11    48    47    1
    12    48    42    1
    13    39    40    2
    14   116   115    1
    15    47    46    1
    16   105   102    1
    17   115   114    1
    18    24    23    1
    19   102   103    1
    20   102   101    1
    21   103   104    2
    22    42    35   am
    23    42    43    1
    24    35    36    2
    25   113   114    1
    26   113   110    1
    27     1     2    1
    28    46    43    1
    29   109   110    1
    30     2     5    1
    31     2     3    1
    32    26    23    1
    33    26    27    1
    34    23    22    1
    35    43    44    1
    36     5     6    1
    37   110   111    1
    38     4     3    2
    39     3    15   am
    40    22    17   am
    41    27    29   ar
    42    27    28   ar
    43    44    45    2
    44    44    49   am
    45   111   112    2
    46     6     7   ar
    47     6     8   ar
    48    29    31   ar
    49     7     9   ar
    50    17    18    2
    51    17    16    1
    52    15    21    1
    53    15    16    1
    54    28    30   ar
    55    49    50    1
    56    21    20    1
    57    16    19    1
    58     8    11   ar
    59     8    10   ar
    60    31    32   ar
    61    30    32   ar
    62     9    10   ar
    63    11    13   ar
    64   162   161    2
    65    50    51    1
    66    50    53    1
    67    10    12   ar
    68    72    71    1
    69    19    20    1
    70    52    51    2
    71    51    56   am
    72    63    61   ar
    73   161   160    1
    74    55    53    1
    75    13    14   ar
    76    56    57    1
    77    60    61    1
    78    60    57    1
    79    53    54    1
    80   166   165    1
    81    61    62   ar
    82    57    58    1
    83    12    14   ar
    84    71    70    1
    85   100    99    1
    86   160   163    1
    87   160   159    1
    88   163   164    1
    89    70    69    1
    90   117   118    1
    91   121   118    1
    92   121   122    1
    93    98    99   ar
    94    98    96   ar
    95   164   165    1
    96    99    97   ar
    97   158   156    1
    98    58    59    2
    99   118   119    1
   100   154   153    2
   101    96    94   ar
   102    69    68    1
   103   156   155    1
   104    97    95   ar
   105    79    78    1
   106    68    65    1
   107   119   120    2
   108   153   152    1
   109    94    95   ar
   110    94    93    1
   111    78    80    1
   112    78    77    1
   113   152   155    1
   114   152   151    1
   115   155   157    1
   116    92    91    2
   117    64    65    1
   118   146   145    2
   119    65    66    1
   120    91    90    1
   121   142   140   am
   122    93    90    1
   123    87    86    1
   124    77    74    1
   125   151   145   am
   126   145   144    1
   127    73    66   am
   128    73    74    1
   129    66    67    2
   130   127   128    1
   131   127   124    1
   132    90    89    1
   133   123   124    1
   134    74    75    1
   135   140   141    2
   136   140   139    1
   137    86    85    1
   138    86    88    1
   139   128   130   ar
   140   128   129   ar
   141   124   125    1
   142   144   147    1
   143   144   143    1
   144   147   148    1
   145   130   132   ar
   146    85    82    1
   147   129   131   ar
   148   139   136    1
   149   135   125   am
   150   135   136    1
   151    75    76    2
   152   125   126    2
   153   132   133   ar
   154    84    83    2
   155   148   150   ar
   156   148   149   ar
   157   131   133   ar
   158   136   137    1
   159    81    82    1
   160    82    83    1
   161   133   134    1
   162   138   137    2
