@<TRIPOS>MOLECULE
tmp/5uvxB00.pdb
 159 157 0 0 0
SMALL
GASTEIGER

@<TRIPOS>ATOM
      1  N         -1.6390   41.3500    4.9370 N.3    22  TRP22      -0.1228
      2  CA        -1.3010   42.7300    4.6460 C.3    22  TRP22       0.1722
      3  C          0.0300   43.2370    5.2550 C.2    22  TRP22       0.2437
      4  O          0.7120   43.9910    4.5610 O.2    22  TRP22      -0.2733
      5  CB        -2.4940   43.6770    4.9690 C.3    22  TRP22       0.0563
      6  CG        -2.7600   43.8750    6.4280 C.ar   22  TRP22       0.0003
      7  CD1       -3.6510   43.1980    7.2120 C.ar   22  TRP22       0.0946
      8  CD2       -2.1150   44.8310    7.2710 C.ar   22  TRP22       0.0152
      9  NE1       -3.6020   43.6840    8.5060 N.ar   22  TRP22      -0.2442
     10  CE2       -2.6470   44.6690    8.5720 C.ar   22  TRP22       0.0810
     11  CE3       -1.1080   45.7900    7.0600 C.ar   22  TRP22       0.0012
     12  CZ2       -2.2180   45.4560    9.6480 C.ar   22  TRP22       0.0191
     13  CZ3       -0.6870   46.5750    8.1220 C.ar   22  TRP22       0.0001
     14  CH2       -1.2220   46.3910    9.4040 C.ar   22  TRP22       0.0015
     15  N          0.5060   42.8380    6.4660 N.am   23  PRO23      -0.2718
     16  CA         1.7830   43.3970    6.9500 C.3    23  PRO23       0.1535
     17  C          3.0070   42.9540    6.1490 C.2    23  PRO23       0.2598
     18  O          4.0910   43.4840    6.3730 O.2    23  PRO23      -0.2715
     19  CB         1.8870   42.8800    8.3880 C.3    23  PRO23       0.0310
     20  CG         0.4850   42.5320    8.7650 C.3    23  PRO23       0.0237
     21  CD        -0.1150   41.9830    7.5020 C.3    23  PRO23       0.0939
     22  N          2.8200   41.9650    5.2580 N.am   24  PHE24      -0.1974
     23  CA         3.9110   41.3870    4.4470 C.3    24  PHE24       0.1639
     24  C          3.8990   41.8710    3.0010 C.2    24  PHE24       0.2290
     25  O          4.7560   41.4720    2.2080 O.2    24  PHE24      -0.2864
     26  CB         3.8260   39.8350    4.5130 C.3    24  PHE24       0.0560
     27  CG         3.7910   39.3650    5.9470 C.ar   24  PHE24      -0.0200
     28  CD1        4.9600   39.2830    6.6930 C.ar   24  PHE24      -0.0042
     29  CD2        2.5770   39.0890    6.5720 C.ar   24  PHE24      -0.0042
     30  CE1        4.9160   38.9370    8.0470 C.ar   24  PHE24      -0.0003
     31  CE2        2.5300   38.7460    7.9230 C.ar   24  PHE24      -0.0003
     32  CZ         3.6920   38.6990    8.6530 C.ar   24  PHE24      -0.0000
     33  N          4.5760   44.7510    1.6470 N.3    26  LYS26      -0.1231
     34  CA         5.6630   45.6430    1.2840 C.3    26  LYS26       0.1678
     35  C          6.7430   45.6750    2.3460 C.2    26  LYS26       0.2434
     36  O          6.5350   45.1110    3.4390 O.2    26  LYS26      -0.2733
     37  CB         5.1080   47.0370    0.9150 C.3    26  LYS26       0.0284
     38  CG         4.4540   47.7530    2.0640 C.3    26  LYS26       0.0035
     39  CD         3.8310   49.0790    1.5790 C.3    26  LYS26       0.0206
     40  CE         3.0090   49.7090    2.6780 C.3    26  LYS26       0.1093
     41  NZ         2.5750   51.0910    2.3360 N.3    26  LYS26      -0.1314
     42  N          7.9440   46.2350    2.0610 N.am   27  PRO27      -0.2718
     43  CA         9.0280   46.1990    3.0470 C.3    27  PRO27       0.1535
     44  C          8.6390   46.7820    4.3980 C.2    27  PRO27       0.2598
     45  O          7.8540   47.7330    4.4570 O.2    27  PRO27      -0.2715
     46  CB        10.1380   47.0480    2.3990 C.3    27  PRO27       0.0310
     47  CG         9.8770   46.9670    0.9510 C.3    27  PRO27       0.0237
     48  CD         8.3890   46.8880    0.8010 C.3    27  PRO27       0.0939
     49  N          9.1910   46.2030    5.4730 N.am   28  VAL28      -0.1964
     50  CA         8.9850   46.7150    6.8280 C.3    28  VAL28       0.1727
     51  C          9.5110   48.1620    6.8400 C.2    28  VAL28       0.2616
     52  O         10.6730   48.3900    6.5120 O.2    28  VAL28      -0.2715
     53  CB         9.7150   45.8430    7.8750 C.3    28  VAL28       0.0290
     54  CG1        9.6780   46.5000    9.2550 C.3    28  VAL28       0.0023
     55  CG2        9.1030   44.4340    7.9290 C.3    28  VAL28       0.0023
     56  N          8.6380   49.1200    7.1740 N.am   29  ASP29      -0.1971
     57  CA         8.9900   50.5460    7.2160 C.3    29  ASP29       0.1709
     58  C          9.5380   50.8450    8.5940 C.2    29  ASP29       0.2293
     59  O          8.7950   51.2560    9.4910 O.2    29  ASP29      -0.2864
     60  CB         7.7480   51.3840    6.8840 C.3    29  ASP29       0.1436
     61  CG         8.0440   52.8490    6.5810 C.2    29  ASP29       0.3671
     62  OD1        9.1120   53.3460    7.0180 O.co2  29  ASP29      -0.2456
     63  OD2        7.1850   53.5040    5.9550 O.co2  29  ASP29      -0.2456
     64  N          7.5950   52.8100   11.7660 N.3    33  LEU33      -0.1245
     65  CA         7.2360   51.9470   12.8930 C.3    33  LEU33       0.1561
     66  C          8.0910   52.1680   14.1320 C.2    33  LEU33       0.2260
     67  O          7.7250   51.7020   15.2130 O.2    33  LEU33      -0.2867
     68  CB         7.2800   50.4530   12.4650 C.3    33  LEU33       0.0270
     69  CG         6.3050   50.0220   11.3660 C.3    33  LEU33       0.0019
     70  CD1        6.7230   48.6880   10.7520 C.3    33  LEU33       0.0001
     71  CD2        4.8680   49.9360   11.8880 C.3    33  LEU33       0.0001
     72  N         11.2640   50.9310   14.6230 N.3    35  LEU35      -0.1245
     73  CA        12.0240   49.7170   14.9660 C.3    35  LEU35       0.1561
     74  C         13.5150   50.0430   14.7610 C.2    35  LEU35       0.2260
     75  O         14.1150   49.6380   13.7630 O.2    35  LEU35      -0.2867
     76  CB        11.5810   48.5240   14.0880 C.3    35  LEU35       0.0270
     77  CG        10.0700   48.2960   13.9420 C.3    35  LEU35       0.0019
     78  CD1        9.7670   47.2440   12.8840 C.3    35  LEU35       0.0001
     79  CD2        9.4290   47.8960   15.2870 C.3    35  LEU35       0.0001
     80  N         15.9290   47.0370   14.0090 N.3    38  TYR38      -0.1241
     81  CA        15.5170   46.0750   12.9610 C.3    38  TYR38       0.1605
     82  C         16.6540   45.7210   11.9930 C.2    38  TYR38       0.2264
     83  O         16.8670   44.5420   11.7200 O.2    38  TYR38      -0.2867
     84  CB        14.2830   46.5850   12.1920 C.3    38  TYR38       0.0534
     85  CG        13.6250   45.5210   11.3330 C.ar   38  TYR38      -0.0201
     86  CD1       12.6820   44.6510   11.8710 C.ar   38  TYR38      -0.0009
     87  CD2       13.9960   45.3420    9.9990 C.ar   38  TYR38      -0.0009
     88  CE1       12.1080   43.6390   11.1030 C.ar   38  TYR38       0.0417
     89  CE2       13.4130   44.3430    9.2130 C.ar   38  TYR38       0.0417
     90  CZ        12.4900   43.4790    9.7780 C.ar   38  TYR38       0.1957
     91  OH        11.9210   42.4980    9.0080 O.3    38  TYR38      -0.2866
     92  N         11.2770   35.8470    4.4290 N.3    73  MET73      -0.1245
     93  CA        10.2930   36.8570    4.8590 C.3    73  MET73       0.1570
     94  C          9.6480   36.4250    6.2000 C.2    73  MET73       0.2261
     95  O          9.6080   37.2270    7.1520 O.2    73  MET73      -0.2867
     96  CB         9.2260   37.0250    3.7800 C.3    73  MET73       0.0387
     97  CG         8.0670   37.8940    4.2270 C.3    73  MET73       0.0595
     98  SD         6.8610   38.0760    2.8910 S.3    73  MET73      -0.1393
     99  CE         6.0380   36.4920    2.9450 C.3    73  MET73       0.0692
    100  N         10.4130   37.7450   10.3940 N.3    77  CYS77      -0.1235
    101  CA         9.3050   38.0970   11.2970 C.3    77  CYS77       0.1677
    102  C          9.4180   37.3210   12.6230 C.2    77  CYS77       0.2270
    103  O          9.3070   37.9020   13.7030 O.2    77  CYS77      -0.2867
    104  CB         7.9760   37.8330   10.5990 C.3    77  CYS77       0.0956
    105  SG         6.5320   38.3580   11.5510 S.3    77  CYS77      -0.0801
    106  N         12.7890   38.6220   14.5300 N.3    80  TYR80      -0.1227
    107  CA        12.7630   39.9610   15.1330 C.3    80  TYR80       0.1736
    108  C         11.7760   40.1140   16.2890 C.2    80  TYR80       0.2595
    109  O         12.0910   40.7530   17.3070 O.2    80  TYR80      -0.2718
    110  CB        12.4800   41.0160   14.0440 C.3    80  TYR80       0.0548
    111  CG        12.4710   42.4110   14.6250 C.ar   80  TYR80      -0.0200
    112  CD1       13.6540   43.0370   14.9900 C.ar   80  TYR80      -0.0009
    113  CD2       11.2700   43.0760   14.8730 C.ar   80  TYR80      -0.0009
    114  CE1       13.6470   44.2910   15.6060 C.ar   80  TYR80       0.0417
    115  CE2       11.2510   44.3340   15.4790 C.ar   80  TYR80       0.0417
    116  CZ        12.4450   44.9420   15.8240 C.ar   80  TYR80       0.1957
    117  OH        12.4360   46.1730   16.4380 O.3    80  TYR80      -0.2866
    118  N         10.5590   39.6510   16.0820 N.am   81  ASN81      -0.1974
    119  CA         9.4730   39.8550   17.0310 C.3    81  ASN81       0.1688
    120  C          9.3980   38.8110   18.1430 C.2    81  ASN81       0.2292
    121  O          9.7520   37.6490   17.9200 O.2    81  ASN81      -0.2864
    122  CB         8.1470   39.8750   16.2680 C.3    81  ASN81       0.1181
    123  CG         8.0930   40.9260   15.1940 C.2    81  ASN81       0.2629
    124  OD1        8.0540   42.1380   15.4820 O.2    81  ASN81      -0.2716
    125  ND2        8.1700   40.5110   13.9220 N.am   81  ASN81      -0.0877
    126  N          3.7670   38.0800   19.6390 N.3    85  HIS85      -0.1226
    127  CA         3.3500   39.2360   18.8480 C.3    85  HIS85       0.1752
    128  C          2.2410   38.8420   17.8630 C.2    85  HIS85       0.2596
    129  O          2.2880   37.7600   17.2320 O.2    85  HIS85      -0.2718
    130  CB         4.5690   39.7900   18.0900 C.3    85  HIS85       0.0759
    131  CG         4.4440   41.2110   17.6700 C.ar   85  HIS85       0.0818
    132  ND1        3.4900   41.6090   16.7600 N.ar   85  HIS85      -0.2268
    133  CD2        5.2260   42.2740   17.9840 C.ar   85  HIS85       0.1154
    134  CE1        3.6870   42.9100   16.5800 C.ar   85  HIS85       0.1986
    135  NE2        4.7270   43.3480   17.2880 N.ar   85  HIS85      -0.2212
    136  N          1.2220   39.7160   17.7070 N.am   86  GLU86      -0.1965
    137  CA         0.1400   39.4640   16.7670 C.3    86  GLU86       0.1733
    138  C          0.6800   39.2940   15.3360 C.2    86  GLU86       0.2616
    139  O          0.1480   38.4600   14.5990 O.2    86  GLU86      -0.2715
    140  CB        -0.8880   40.6170   16.7970 C.3    86  GLU86       0.0429
    141  CG        -2.0910   40.4180   15.8770 C.3    86  GLU86       0.1163
    142  CD        -2.8650   39.1060   15.9860 C.2    86  GLU86       0.3649
    143  OE1       -2.8120   38.4590   17.0580 O.co2  86  GLU86      -0.2457
    144  OE2       -3.4830   38.6960   14.9780 O.co2  86  GLU86      -0.2457
    145  N          1.7410   40.0460   14.9520 N.am   87  VAL87      -0.1977
    146  CA         2.2560   39.9320   13.5800 C.3    87  VAL87       0.1596
    147  C          2.8350   38.5220   13.3290 C.2    87  VAL87       0.2287
    148  O          2.7700   38.0380   12.1950 O.2    87  VAL87      -0.2864
    149  CB         3.2240   41.0820   13.2040 C.3    87  VAL87       0.0276
    150  CG1        4.6330   40.8510   13.7510 C.3    87  VAL87       0.0022
    151  CG2        3.2270   41.3420   11.6980 C.3    87  VAL87       0.0022
    152  N         -0.0030   36.2740   12.5180 N.3    90  MET90      -0.1245
    153  CA        -0.3960   36.5730   11.1410 C.3    90  MET90       0.1570
    154  C          0.5630   35.9000   10.1590 C.2    90  MET90       0.2261
    155  O          0.1150   35.2800    9.1990 O.2    90  MET90      -0.2867
    156  CB        -0.4830   38.0940   10.9020 C.3    90  MET90       0.0387
    157  CG        -1.6240   38.7120   11.7030 C.3    90  MET90       0.0595
    158  SD        -1.4340   40.5350   11.7520 S.3    90  MET90      -0.1393
    159  CE        -2.1340   40.9400   10.3580 C.3    90  MET90       0.0692
@<TRIPOS>BOND
     1    48    47    1
     2    48    42    1
     3    37    34    1
     4    37    38    1
     5    47    46    1
     6    34    33    1
     7    34    35    1
     8    39    38    1
     9    39    40    1
    10    42    35   am
    11    42    43    1
    12    25    24    2
    13    41    40    1
    14    35    36    2
    15    46    43    1
    16    98    99    1
    17    98    97    1
    18    24    23    1
    19    43    44    1
    20    96    97    1
    21    96    93    1
    22    44    45    2
    23    44    49   am
    24    92    93    1
    25    23    26    1
    26    23    22    1
    27    26    27    1
    28     4     3    2
    29     2     1    1
    30     2     5    1
    31     2     3    1
    32    93    94    1
    33     5     6    1
    34     3    15   am
    35    22    17   am
    36    49    50    1
    37    27    29   ar
    38    27    28   ar
    39    63    61   ar
    40    17    18    2
    41    17    16    1
    42    94    95    2
    43     6     7   ar
    44     6     8   ar
    45    15    16    1
    46    15    21    1
    47    52    51    2
    48    29    31   ar
    49    61    60    1
    50    61    62   ar
    51    28    30   ar
    52    50    51    1
    53    50    53    1
    54    51    56   am
    55    60    57    1
    56    16    19    1
    57    11     8   ar
    58    11    13   ar
    59    56    57    1
    60     7     9   ar
    61    57    58    1
    62     8    10   ar
    63    21    20    1
    64    53    55    1
    65    53    54    1
    66    31    32   ar
    67    30    32   ar
    68    13    14   ar
    69    19    20    1
    70     9    10   ar
    71    10    12   ar
    72    58    59    2
    73    91    90    1
    74   155   154    2
    75    89    90   ar
    76    89    87   ar
    77    14    12   ar
    78    90    88   ar
    79    87    85   ar
    80   154   153    1
    81   159   158    1
    82   100   101    1
    83   104   101    1
    84   104   105    1
    85    70    69    1
    86   156   153    1
    87   156   157    1
    88    88    86   ar
    89   153   152    1
    90   101   102    1
    91    85    86   ar
    92    85    84    1
    93    69    71    1
    94    69    68    1
    95   151   149    1
    96   157   158    1
    97    83    82    2
    98    64    65    1
    99    82    81    1
   100    84    81    1
   101   148   147    2
   102    68    65    1
   103   102   103    2
   104    78    77    1
   105    65    66    1
   106    81    80    1
   107   149   146    1
   108   149   150    1
   109   147   146    1
   110   146   145    1
   111    75    74    2
   112   125   123   am
   113    77    76    1
   114    77    79    1
   115   110   111    1
   116   110   107    1
   117    76    73    1
   118    66    67    2
   119   106   107    1
   120   139   138    2
   121    72    73    1
   122   111   113   ar
   123   111   112   ar
   124    74    73    1
   125   113   115   ar
   126   145   138   am
   127   144   142   ar
   128   112   114   ar
   129   107   108    1
   130   123   124    2
   131   123   122    1
   132   138   137    1
   133   115   116   ar
   134   114   116   ar
   135   116   117    1
   136   141   142    1
   137   141   140    1
   138   142   143   ar
   139   118   108   am
   140   118   119    1
   141   122   119    1
   142   108   109    2
   143   134   132   ar
   144   134   135   ar
   145   132   131   ar
   146   137   140    1
   147   137   136    1
   148   119   120    1
   149   129   128    2
   150   135   133   ar
   151   131   133   ar
   152   131   130    1
   153   136   128   am
   154   128   127    1
   155   121   120    2
   156   130   127    1
   157   127   126    1
