@<TRIPOS>MOLECULE
tmp/5uvyA00.pdb
 135 133 0 0 0
SMALL
GASTEIGER

@<TRIPOS>ATOM
      1  N         13.2160    2.2080   19.9560 N.3    26  TRP26      -0.1228
      2  CA        12.0420    3.0340   19.6490 C.3    26  TRP26       0.1722
      3  C         12.3520    4.4000   18.9450 C.2    26  TRP26       0.2437
      4  O         11.5720    4.7280   18.0510 O.2    26  TRP26      -0.2733
      5  CB        11.1230    3.2280   20.8680 C.3    26  TRP26       0.0563
      6  CG        11.6890    4.0920   21.9500 C.ar   26  TRP26       0.0003
      7  CD1       12.4510    3.6920   23.0070 C.ar   26  TRP26       0.0946
      8  CD2       11.5440    5.5090   22.0720 C.ar   26  TRP26       0.0152
      9  NE1       12.7960    4.7740   23.7770 N.ar   26  TRP26      -0.2442
     10  CE2       12.2660    5.9070   23.2180 C.ar   26  TRP26       0.0810
     11  CE3       10.9020    6.4920   21.2990 C.ar   26  TRP26       0.0012
     12  CZ2       12.3510    7.2450   23.6230 C.ar   26  TRP26       0.0191
     13  CZ3       10.9790    7.8150   21.7060 C.ar   26  TRP26       0.0001
     14  CH2       11.7050    8.1830   22.8470 C.ar   26  TRP26       0.0015
     15  N         13.4460    5.1820   19.2000 N.am   27  PRO27      -0.2718
     16  CA        13.6220    6.4320   18.4250 C.3    27  PRO27       0.1535
     17  C         13.9570    6.2240   16.9420 C.2    27  PRO27       0.2598
     18  O         13.9390    7.1840   16.1790 O.2    27  PRO27      -0.2715
     19  CB        14.7670    7.1530   19.1480 C.3    27  PRO27       0.0310
     20  CG        14.9480    6.4380   20.4480 C.3    27  PRO27       0.0237
     21  CD        14.5230    5.0360   20.2030 C.3    27  PRO27       0.0939
     22  N         14.2470    4.9750   16.5340 N.am   28  PHE28      -0.1974
     23  CA        14.6200    4.6120   15.1620 C.3    28  PHE28       0.1639
     24  C         13.4920    3.9200   14.4010 C.2    28  PHE28       0.2290
     25  O         13.6440    3.6190   13.2190 O.2    28  PHE28      -0.2864
     26  CB        15.9150    3.7670   15.1640 C.3    28  PHE28       0.0560
     27  CG        16.9700    4.3700   16.0600 C.ar   28  PHE28      -0.0200
     28  CD1       17.7750    5.4130   15.6110 C.ar   28  PHE28      -0.0042
     29  CD2       17.0940    3.9650   17.3850 C.ar   28  PHE28      -0.0042
     30  CE1       18.7060    6.0130   16.4590 C.ar   28  PHE28      -0.0003
     31  CE2       18.0190    4.5760   18.2340 C.ar   28  PHE28      -0.0003
     32  CZ        18.8070    5.6040   17.7680 C.ar   28  PHE28      -0.0000
     33  N         12.4190   10.6490   11.5520 N.3    32  VAL32      -0.1231
     34  CA        12.6070   11.7320   12.5220 C.3    32  VAL32       0.1692
     35  C         11.5840   12.8270   12.1870 C.2    32  VAL32       0.2592
     36  O         11.4790   13.2330   11.0280 O.2    32  VAL32      -0.2718
     37  CB        14.0730   12.2680   12.5400 C.3    32  VAL32       0.0266
     38  CG1       14.2140   13.5150   13.4180 C.3    32  VAL32       0.0020
     39  CG2       15.0540   11.1890   12.9930 C.3    32  VAL32       0.0020
     40  N         10.7930   13.2390   13.1850 N.am   33  ASP33      -0.1974
     41  CA         9.7920   14.2950   13.0350 C.3    33  ASP33       0.1709
     42  C         10.5160   15.6490   13.0580 C.2    33  ASP33       0.2293
     43  O         10.8360   16.1710   14.1280 O.2    33  ASP33      -0.2864
     44  CB         8.7220   14.1960   14.1450 C.3    33  ASP33       0.1436
     45  CG         7.5640   15.1780   14.0220 C.2    33  ASP33       0.3671
     46  OD1        7.3770   15.7520   12.9170 O.co2  33  ASP33      -0.2456
     47  OD2        6.8330   15.3600   15.0210 O.co2  33  ASP33      -0.2456
     48  N         14.2770   20.1650   16.4920 N.3    39  LEU39      -0.1245
     49  CA        14.6160   19.4660   15.2480 C.3    39  LEU39       0.1561
     50  C         14.4880   20.3570   14.0010 C.2    39  LEU39       0.2260
     51  O         14.3960   19.8400   12.8850 O.2    39  LEU39      -0.2867
     52  CB        13.7300   18.1930   15.0980 C.3    39  LEU39       0.0270
     53  CG        14.0640   16.9050   15.8990 C.3    39  LEU39       0.0019
     54  CD1       15.4860   16.4230   15.6600 C.3    39  LEU39       0.0001
     55  CD2       13.7490   17.0330   17.3760 C.3    39  LEU39       0.0001
     56  N         17.4720   19.8300   11.6800 N.3    42  TYR42      -0.1241
     57  CA        17.6960   18.4400   11.2710 C.3    42  TYR42       0.1605
     58  C         17.9160   18.2740    9.7640 C.2    42  TYR42       0.2264
     59  O         18.8660   17.6000    9.3770 O.2    42  TYR42      -0.2867
     60  CB        16.5910   17.4970   11.7840 C.3    42  TYR42       0.0534
     61  CG        16.9570   16.0320   11.6440 C.ar   42  TYR42      -0.0201
     62  CD1       17.8070   15.4150   12.5590 C.ar   42  TYR42      -0.0009
     63  CD2       16.4770   15.2720   10.5830 C.ar   42  TYR42      -0.0009
     64  CE1       18.1730   14.0770   12.4180 C.ar   42  TYR42       0.0417
     65  CE2       16.8310   13.9320   10.4340 C.ar   42  TYR42       0.0417
     66  CZ        17.6800   13.3390   11.3540 C.ar   42  TYR42       0.1957
     67  OH        18.0300   12.0230   11.2010 O.3    42  TYR42      -0.2866
     68  N         21.2240    5.2350    9.0290 N.3    77  MET77      -0.1245
     69  CA        20.3570    5.5510   10.1630 C.3    77  MET77       0.1570
     70  C         21.1950    5.8330   11.4230 C.2    77  MET77       0.2261
     71  O         20.9430    6.8210   12.1130 O.2    77  MET77      -0.2867
     72  CB        19.3860    4.3890   10.3910 C.3    77  MET77       0.0387
     73  CG        18.4350    4.5800   11.5550 C.3    77  MET77       0.0595
     74  SD        17.3910    3.1220   11.7330 S.3    77  MET77      -0.1393
     75  CE        18.5690    1.9450   12.4420 C.3    77  MET77       0.0692
     76  N         22.3590    9.7010   13.2350 N.3    81  CYS81      -0.1235
     77  CA        22.1860    9.9380   14.6550 C.3    81  CYS81       0.1677
     78  C         23.4730   10.4420   15.2820 C.2    81  CYS81       0.2270
     79  O         23.4180   11.4010   16.0420 O.2    81  CYS81      -0.2867
     80  CB        21.6570    8.6940   15.3620 C.3    81  CYS81       0.0956
     81  SG        21.3980    8.9140   17.1380 S.3    81  CYS81      -0.0801
     82  N         24.1430   14.2090   13.7730 N.3    84  TYR84      -0.1227
     83  CA        23.2490   15.2660   14.2360 C.3    84  TYR84       0.1736
     84  C         23.3520   15.5890   15.7280 C.2    84  TYR84       0.2595
     85  O         23.4180   16.7600   16.0930 O.2    84  TYR84      -0.2718
     86  CB        21.7850   14.9610   13.8460 C.3    84  TYR84       0.0548
     87  CG        20.8140   16.0090   14.3460 C.ar   84  TYR84      -0.0200
     88  CD1       20.7780   17.2810   13.7800 C.ar   84  TYR84      -0.0009
     89  CD2       19.9790   15.7520   15.4280 C.ar   84  TYR84      -0.0009
     90  CE1       19.9260   18.2690   14.2730 C.ar   84  TYR84       0.0417
     91  CE2       19.1220   16.7300   15.9270 C.ar   84  TYR84       0.0417
     92  CZ        19.0960   17.9870   15.3460 C.ar   84  TYR84       0.1957
     93  OH        18.2540   18.9550   15.8390 O.3    84  TYR84      -0.2866
     94  N         23.3150   14.5680   16.5830 N.am   85  ASN85      -0.1974
     95  CA        23.2780   14.7340   18.0310 C.3    85  ASN85       0.1688
     96  C         24.6240   14.9380   18.7190 C.2    85  ASN85       0.2292
     97  O         25.6290   14.4170   18.2330 O.2    85  ASN85      -0.2864
     98  CB        22.5620   13.5500   18.6530 C.3    85  ASN85       0.1181
     99  CG        21.1760   13.3670   18.1250 C.2    85  ASN85       0.2629
    100  OD1       20.2440   14.0670   18.5150 O.2    85  ASN85      -0.2716
    101  ND2       21.0160   12.4230   17.2170 N.am   85  ASN85      -0.0877
    102  N         24.3740   12.9260   24.1520 N.3    89  HIS89      -0.1226
    103  CA        22.9190   12.7700   24.0390 C.3    89  HIS89       0.1752
    104  C         22.4760   11.3360   24.3230 C.2    89  HIS89       0.2599
    105  O         23.1840   10.3920   23.9730 O.2    89  HIS89      -0.2717
    106  CB        22.4280   13.2110   22.6550 C.3    89  HIS89       0.0759
    107  CG        21.0070   13.6840   22.6380 C.ar   89  HIS89       0.0818
    108  ND1       19.9460   12.8040   22.8010 N.ar   89  HIS89      -0.2268
    109  CD2       20.5160   14.9310   22.4540 C.ar   89  HIS89       0.1154
    110  CE1       18.8510   13.5430   22.7150 C.ar   89  HIS89       0.1986
    111  NE2       19.1440   14.8290   22.5040 N.ar   89  HIS89      -0.2212
    112  N         21.3130   11.1870   24.9840 N.am   90  GLU90      -0.1920
    113  CA        20.6920    9.9130   25.3680 C.3    90  GLU90       0.1949
    114  C         20.4580    9.0020   24.1480 C.2    90  GLU90       0.2658
    115  O         20.6640    7.7920   24.2480 O.2    90  GLU90      -0.2711
    116  CB        19.3540   10.1970   26.0750 C.2    90  GLU90       0.0111
    117  CG        18.7070    9.0070   26.7690 C.2    90  GLU90       0.0838
    118  CD        17.3370    9.2640   27.3760 C.2    90  GLU90       0.3877
    119  OE1       16.9990   10.4420   27.6360 O.co2  90  GLU90      -0.2406
    120  OE2       16.6060    8.2750   27.6110 O.co2  90  GLU90      -0.2406
    121  N         20.0320    9.5910   23.0100 N.am   91  VAL91      -0.1974
    122  CA        19.7190    8.8840   21.7620 C.3    91  VAL91       0.1596
    123  C         20.9900    8.2640   21.1220 C.2    91  VAL91       0.2287
    124  O         20.8900    7.2100   20.4930 O.2    91  VAL91      -0.2864
    125  CB        18.8880    9.7710   20.7880 C.3    91  VAL91       0.0276
    126  CG1       19.7560   10.7660   20.0240 C.3    91  VAL91       0.0022
    127  CG2       18.0490    8.9250   19.8340 C.3    91  VAL91       0.0022
    128  N         21.6120    5.0110   22.8730 N.3    94  MET94      -0.1245
    129  CA        20.5920    4.0900   22.3830 C.3    94  MET94       0.1570
    130  C         20.9620    3.5860   20.9810 C.2    94  MET94       0.2261
    131  O         20.8060    2.3980   20.7060 O.2    94  MET94      -0.2867
    132  CB        19.2140    4.7690   22.3870 C.3    94  MET94       0.0387
    133  CG        18.7130    5.0680   23.7780 C.3    94  MET94       0.0595
    134  SD        17.4190    6.3190   23.7740 S.3    94  MET94      -0.1393
    135  CE        16.0230    5.3220   23.8720 C.3    94  MET94       0.0692
@<TRIPOS>BOND
     1    68    69    1
     2    59    58    2
     3    58    57    1
     4    69    72    1
     5    69    70    1
     6    72    73    1
     7    65    63   ar
     8    65    66   ar
     9    63    61   ar
    10    36    35    2
    11    67    66    1
    12    57    56    1
    13    57    60    1
    14    66    64   ar
    15    70    71    2
    16    33    34    1
    17    73    74    1
    18    61    60    1
    19    61    62   ar
    20    74    75    1
    21    35    34    1
    22    35    40   am
    23    64    62   ar
    24    34    37    1
    25    37    39    1
    26    37    38    1
    27    51    50    2
    28    46    45   ar
    29    41    42    1
    30    41    40    1
    31    41    44    1
    32    42    43    2
    33    25    24    2
    34    76    77    1
    35    82    83    1
    36    88    90   ar
    37    88    87   ar
    38    86    83    1
    39    86    87    1
    40    50    49    1
    41    45    44    1
    42    45    47   ar
    43    83    84    1
    44    90    92   ar
    45    87    89   ar
    46    24    23    1
    47    77    78    1
    48    77    80    1
    49    52    49    1
    50    52    53    1
    51    23    26    1
    52    23    22    1
    53    26    27    1
    54    49    48    1
    55    78    79    2
    56    92    93    1
    57    92    91   ar
    58    80    81    1
    59    89    91   ar
    60    28    27   ar
    61    28    30   ar
    62    54    53    1
    63    84    85    2
    64    84    94   am
    65    53    55    1
    66    27    29   ar
    67    18    17    2
    68    30    32   ar
    69    22    17   am
    70    94    95    1
    71    17    16    1
    72   101    99   am
    73    29    31   ar
    74    32    31   ar
    75    95    98    1
    76    95    96    1
    77     4     3    2
    78    99   100    2
    79    99    98    1
    80    97    96    2
    81    16    19    1
    82    16    15    1
    83     3    15   am
    84     3     2    1
    85    19    20    1
    86    15    21    1
    87     2     1    1
    88     2     5    1
    89   127   125    1
    90   126   125    1
    91    21    20    1
    92   124   123    2
    93   131   130    2
    94   125   122    1
    95     5     6    1
    96   130   129    1
    97   123   122    1
    98    11    13   ar
    99    11     8   ar
   100    13    14   ar
   101   122   121    1
   102     6     8   ar
   103     6     7   ar
   104     8    10   ar
   105   129   132    1
   106   129   128    1
   107   132   133    1
   108   109   111   ar
   109   109   107   ar
   110   111   110   ar
   111   107   106    1
   112   107   108   ar
   113   106   103    1
   114   110   108   ar
   115    14    12   ar
   116     7     9   ar
   117   121   114   am
   118    10    12   ar
   119    10     9   ar
   120   134   133    1
   121   134   135    1
   122   105   104    2
   123   103   102    1
   124   103   104    1
   125   114   115    2
   126   114   113    1
   127   104   112   am
   128   112   113    1
   129   113   116    1
   130   116   117    2
   131   117   118    1
   132   118   120   ar
   133   118   119   ar
