@<TRIPOS>MOLECULE
tmp/5uvzA00.pdb
 151 150 0 0 0
SMALL
GASTEIGER

@<TRIPOS>ATOM
      1  N         15.7740   -2.2300    3.4020 N.3    26  TRP26      -0.1228
      2  CA        16.9450   -3.0250    3.0190 C.3    26  TRP26       0.1722
      3  C         16.6480   -4.3680    2.2970 C.2    26  TRP26       0.2437
      4  O         17.4530   -4.7120    1.4250 O.2    26  TRP26      -0.2733
      5  CB        17.9080   -3.2390    4.2020 C.3    26  TRP26       0.0563
      6  CG        17.3740   -4.1170    5.2820 C.ar   26  TRP26       0.0003
      7  CD1       16.7030   -3.7230    6.4020 C.ar   26  TRP26       0.0946
      8  CD2       17.4310   -5.5470    5.3300 C.ar   26  TRP26       0.0152
      9  NE1       16.3450   -4.8150    7.1470 N.ar   26  TRP26      -0.2442
     10  CE2       16.7660   -5.9510    6.5070 C.ar   26  TRP26       0.0810
     11  CE3       17.9630   -6.5320    4.4750 C.ar   26  TRP26       0.0012
     12  CZ2       16.6420   -7.2980    6.8710 C.ar   26  TRP26       0.0191
     13  CZ3       17.8210   -7.8650    4.8280 C.ar   26  TRP26       0.0001
     14  CH2       17.1750   -8.2370    6.0130 C.ar   26  TRP26       0.0015
     15  N         15.5640   -5.1510    2.5780 N.am   27  PRO27      -0.2718
     16  CA        15.3550   -6.4090    1.8290 C.3    27  PRO27       0.1535
     17  C         15.0920   -6.2000    0.3370 C.2    27  PRO27       0.2598
     18  O         15.1930   -7.1520   -0.4400 O.2    27  PRO27      -0.2715
     19  CB        14.1070   -7.0020    2.4810 C.3    27  PRO27       0.0310
     20  CG        14.0570   -6.3700    3.8730 C.3    27  PRO27       0.0237
     21  CD        14.5160   -4.9750    3.6090 C.3    27  PRO27       0.0939
     22  N         14.7680   -4.9550   -0.0510 N.am   28  PHE28      -0.1974
     23  CA        14.4100   -4.6000   -1.4270 C.3    28  PHE28       0.1639
     24  C         15.5680   -3.9810   -2.2180 C.2    28  PHE28       0.2290
     25  O         15.3990   -3.6910   -3.3980 O.2    28  PHE28      -0.2864
     26  CB        13.1720   -3.6570   -1.4120 C.3    28  PHE28       0.0560
     27  CG        12.0540   -4.2640   -0.5820 C.ar   28  PHE28      -0.0200
     28  CD1       11.2750   -5.2970   -1.0880 C.ar   28  PHE28      -0.0042
     29  CD2       11.8720   -3.8920    0.7430 C.ar   28  PHE28      -0.0042
     30  CE1       10.3190   -5.9380   -0.2750 C.ar   28  PHE28      -0.0003
     31  CE2       10.9170   -4.5250    1.5460 C.ar   28  PHE28      -0.0003
     32  CZ        10.1840   -5.5750    1.0470 C.ar   28  PHE28      -0.0000
     33  N         18.5650   -5.1480   -3.3020 N.3    30  LYS30      -0.1231
     34  CA        19.2020   -5.9970   -4.3050 C.3    30  LYS30       0.1678
     35  C         18.2930   -7.1360   -4.7270 C.2    30  LYS30       0.2434
     36  O         17.3390   -7.4580   -4.0050 O.2    30  LYS30      -0.2733
     37  CB        20.5080   -6.5930   -3.7150 C.3    30  LYS30       0.0284
     38  CG        21.5780   -5.5750   -3.2760 C.3    30  LYS30       0.0035
     39  CD        22.1010   -4.6700   -4.4040 C.3    30  LYS30       0.0206
     40  CE        23.1700   -5.3020   -5.2680 C.3    30  LYS30       0.1093
     41  NZ        23.6020   -4.3880   -6.3610 N.3    30  LYS30      -0.1314
     42  N         18.5650   -7.8240   -5.8660 N.am   31  PRO31      -0.2718
     43  CA        17.7110   -8.9570   -6.2400 C.3    31  PRO31       0.1535
     44  C         17.6730  -10.0190   -5.1500 C.2    31  PRO31       0.2598
     45  O         18.6530  -10.1980   -4.4070 O.2    31  PRO31      -0.2715
     46  CB        18.4060   -9.5370   -7.4910 C.3    31  PRO31       0.0310
     47  CG        19.2330   -8.4610   -8.0060 C.3    31  PRO31       0.0237
     48  CD        19.6390   -7.5920   -6.8660 C.3    31  PRO31       0.0939
     49  N         16.5350  -10.7070   -5.0400 N.am   32  VAL32      -0.1964
     50  CA        16.3600  -11.8040   -4.0720 C.3    32  VAL32       0.1727
     51  C         17.4150  -12.8650   -4.4500 C.2    32  VAL32       0.2616
     52  O         17.5300  -13.2100   -5.6290 O.2    32  VAL32      -0.2715
     53  CB        14.9140  -12.3750   -4.1390 C.3    32  VAL32       0.0290
     54  CG1       14.7890  -13.7160   -3.3920 C.3    32  VAL32       0.0023
     55  CG2       13.8770  -11.3580   -3.6250 C.3    32  VAL32       0.0023
     56  N         18.1750  -13.3490   -3.4440 N.am   33  ASP33      -0.1971
     57  CA        19.1860  -14.3950   -3.6170 C.3    33  ASP33       0.1709
     58  C         18.4640  -15.7440   -3.6820 C.2    33  ASP33       0.2293
     59  O         18.1920  -16.3470   -2.6490 O.2    33  ASP33      -0.2864
     60  CB        20.1810  -14.3500   -2.4400 C.3    33  ASP33       0.1436
     61  CG        21.3240  -15.3470   -2.5740 C.2    33  ASP33       0.3671
     62  OD1       21.4310  -15.9910   -3.6420 O.co2  33  ASP33      -0.2456
     63  OD2       22.1020  -15.4860   -1.6090 O.co2  33  ASP33      -0.2456
     64  N         14.6960  -20.3500   -0.2030 N.3    39  LEU39      -0.1245
     65  CA        14.2500  -19.7370   -1.4540 C.3    39  LEU39       0.1561
     66  C         14.3480  -20.6460   -2.6740 C.2    39  LEU39       0.2260
     67  O         14.3260  -20.1510   -3.7950 O.2    39  LEU39      -0.2867
     68  CB        15.0060  -18.4140   -1.6810 C.3    39  LEU39       0.0270
     69  CG        14.6050  -17.2910   -0.7240 C.3    39  LEU39       0.0019
     70  CD1       15.7230  -16.3050   -0.5280 C.3    39  LEU39       0.0001
     71  CD2       13.3840  -16.5570   -1.2490 C.3    39  LEU39       0.0001
     72  N         11.5590  -19.9700   -5.1830 N.3    42  TYR42      -0.1241
     73  CA        11.2800  -18.5750   -5.5570 C.3    42  TYR42       0.1605
     74  C         11.0070  -18.3790   -7.0490 C.2    42  TYR42       0.2264
     75  O         10.0070  -17.7570   -7.4060 O.2    42  TYR42      -0.2867
     76  CB        12.3900  -17.6340   -5.0740 C.3    42  TYR42       0.0534
     77  CG        11.9790  -16.1820   -5.1720 C.ar   42  TYR42      -0.0201
     78  CD1       11.2140  -15.5910   -4.1750 C.ar   42  TYR42      -0.0009
     79  CD2       12.4410  -15.3780   -6.2090 C.ar   42  TYR42      -0.0009
     80  CE1       10.8280  -14.2540   -4.2630 C.ar   42  TYR42       0.0417
     81  CE2       12.0830  -14.0300   -6.2950 C.ar   42  TYR42       0.0417
     82  CZ        11.2770  -13.4810   -5.3190 C.ar   42  TYR42       0.1957
     83  OH        10.8800  -12.1760   -5.4320 O.3    42  TYR42      -0.2866
     84  N          7.8430   -5.1960   -7.7730 N.3    77  MET77      -0.1245
     85  CA         8.7020   -5.5290   -6.6500 C.3    77  MET77       0.1570
     86  C          7.8780   -5.8320   -5.3710 C.2    77  MET77       0.2261
     87  O          8.0550   -6.8830   -4.7320 O.2    77  MET77      -0.2867
     88  CB         9.6740   -4.3820   -6.4390 C.3    77  MET77       0.0387
     89  CG        10.5130   -4.5530   -5.2040 C.3    77  MET77       0.0595
     90  SD        11.6620   -3.2020   -5.0200 S.3    77  MET77      -0.1393
     91  CE        10.5600   -1.8950   -4.3220 C.3    77  MET77       0.0692
     92  N          6.7710   -9.6960   -3.4810 N.3    81  CYS81      -0.1235
     93  CA         6.9080   -9.9300   -2.0550 C.3    81  CYS81       0.1677
     94  C          5.5810  -10.4620   -1.4490 C.2    81  CYS81       0.2270
     95  O          5.5870  -11.4390   -0.6880 O.2    81  CYS81      -0.2867
     96  CB         7.3630   -8.6550   -1.3700 C.3    81  CYS81       0.0956
     97  SG         7.6970   -8.8870    0.3860 S.3    81  CYS81      -0.0801
     98  N          4.8340  -14.1550   -2.8460 N.3    84  TYR84      -0.1227
     99  CA         5.6950  -15.2470   -2.3830 C.3    84  TYR84       0.1736
    100  C          5.5930  -15.5620   -0.8970 C.2    84  TYR84       0.2595
    101  O          5.5960  -16.7410   -0.5280 O.2    84  TYR84      -0.2718
    102  CB         7.1590  -14.9530   -2.7810 C.3    84  TYR84       0.0548
    103  CG         8.1030  -16.0370   -2.3110 C.ar   84  TYR84      -0.0200
    104  CD1        8.1220  -17.2870   -2.9260 C.ar   84  TYR84      -0.0009
    105  CD2        8.9500  -15.8260   -1.2290 C.ar   84  TYR84      -0.0009
    106  CE1        8.9540  -18.3040   -2.4630 C.ar   84  TYR84       0.0417
    107  CE2        9.7930  -16.8340   -0.7640 C.ar   84  TYR84       0.0417
    108  CZ         9.7870  -18.0710   -1.3860 C.ar   84  TYR84       0.1957
    109  OH        10.6110  -19.0790   -0.9360 O.3    84  TYR84      -0.2866
    110  N          5.5470  -14.5430   -0.0440 N.am   85  ASN85      -0.1974
    111  CA         5.5910  -14.7100    1.3970 C.3    85  ASN85       0.1688
    112  C          4.2520  -14.9280    2.0840 C.2    85  ASN85       0.2292
    113  O          3.2440  -14.4460    1.5830 O.2    85  ASN85      -0.2864
    114  CB         6.3060  -13.5100    2.0010 C.3    85  ASN85       0.1181
    115  CG         7.7140  -13.4540    1.5320 C.2    85  ASN85       0.2629
    116  OD1        8.5210  -14.3000    1.8930 O.2    85  ASN85      -0.2716
    117  ND2        8.0150  -12.5280    0.6270 N.am   85  ASN85      -0.0877
    118  N          4.4120  -12.6780    7.4770 N.3    89  HIS89      -0.1226
    119  CA         5.8670  -12.6220    7.4070 C.3    89  HIS89       0.1752
    120  C          6.3820  -11.2040    7.6810 C.2    89  HIS89       0.2599
    121  O          5.7630  -10.2300    7.2530 O.2    89  HIS89      -0.2717
    122  CB         6.3500  -13.1380    6.0380 C.3    89  HIS89       0.0759
    123  CG         7.7740  -13.5860    6.0110 C.ar   89  HIS89       0.0818
    124  ND1        8.8170  -12.6960    6.2130 N.ar   89  HIS89      -0.2268
    125  CD2        8.2860  -14.8140    5.7630 C.ar   89  HIS89       0.1154
    126  CE1        9.9250  -13.4120    6.0940 C.ar   89  HIS89       0.1986
    127  NE2        9.6550  -14.6910    5.8160 N.ar   89  HIS89      -0.2212
    128  N          7.4850  -11.1000    8.4500 N.am   90  GLU90      -0.1920
    129  CA         8.1770   -9.8540    8.7880 C.3    90  GLU90       0.1949
    130  C          8.4210   -9.0000    7.5260 C.2    90  GLU90       0.2658
    131  O          8.2680   -7.7860    7.5830 O.2    90  GLU90      -0.2711
    132  CB         9.5380  -10.1930    9.4230 C.2    90  GLU90       0.0111
    133  CG        10.3350   -9.0170    9.9500 C.2    90  GLU90       0.0838
    134  CD        11.6370   -9.3520   10.6580 C.2    90  GLU90       0.3877
    135  OE1       11.8410  -10.5320   11.0280 O.co2  90  GLU90      -0.2406
    136  OE2       12.4460   -8.4170   10.8650 O.co2  90  GLU90      -0.2406
    137  N          8.8190   -9.6440    6.4090 N.am   91  VAL91      -0.1974
    138  CA         9.1910   -8.9280    5.1740 C.3    91  VAL91       0.1596
    139  C          7.9660   -8.2870    4.5120 C.2    91  VAL91       0.2287
    140  O          8.1110   -7.2460    3.8680 O.2    91  VAL91      -0.2864
    141  CB        10.0660   -9.7630    4.1800 C.3    91  VAL91       0.0276
    142  CG1        9.2320  -10.7520    3.3680 C.3    91  VAL91       0.0022
    143  CG2       10.8690   -8.8410    3.2550 C.3    91  VAL91       0.0022
    144  N          7.4590   -5.0110    6.2350 N.3    94  MET94      -0.1245
    145  CA         8.4890   -4.0800    5.7480 C.3    94  MET94       0.1570
    146  C          8.0980   -3.5610    4.3540 C.2    94  MET94       0.2261
    147  O          8.2270   -2.3620    4.1060 O.2    94  MET94      -0.2867
    148  CB         9.8570   -4.7600    5.7160 C.3    94  MET94       0.0387
    149  CG        10.3290   -5.0990    7.1130 C.3    94  MET94       0.0595
    150  SD        11.6960   -6.2650    7.1170 S.3    94  MET94      -0.1393
    151  CE        12.9470   -5.2260    7.0050 C.3    94  MET94       0.0692
@<TRIPOS>BOND
     1    47    46    1
     2    47    48    1
     3    84    85    1
     4    46    43    1
     5    75    74    2
     6    74    73    1
     7    48    42    1
     8    85    88    1
     9    85    86    1
    10    88    89    1
    11    41    40    1
    12    81    79   ar
    13    81    82   ar
    14    43    42    1
    15    43    44    1
    16    79    77   ar
    17    42    35   am
    18    52    51    2
    19    73    72    1
    20    73    76    1
    21    83    82    1
    22    86    87    2
    23    82    80   ar
    24    40    39    1
    25    89    90    1
    26    77    76    1
    27    77    78   ar
    28    44    49   am
    29    44    45    2
    30    49    50    1
    31    90    91    1
    32    35    34    1
    33    35    36    2
    34    51    50    1
    35    51    56   am
    36    39    38    1
    37    34    37    1
    38    34    33    1
    39    80    78   ar
    40    53    50    1
    41    53    55    1
    42    53    54    1
    43    67    66    2
    44    37    38    1
    45    58    57    1
    46    58    59    2
    47    62    61   ar
    48    57    56    1
    49    57    60    1
    50    92    93    1
    51    25    24    2
    52   104   106   ar
    53   104   103   ar
    54    98    99    1
    55   102    99    1
    56   102   103    1
    57    66    65    1
    58    61    60    1
    59    61    63   ar
    60   106   108   ar
    61    99   100    1
    62   103   105   ar
    63    24    23    1
    64    93    94    1
    65    93    96    1
    66    68    65    1
    67    68    69    1
    68    65    64    1
    69    94    95    2
    70    23    26    1
    71    23    22    1
    72    26    27    1
    73   108   109    1
    74   108   107   ar
    75    96    97    1
    76    71    69    1
    77   105   107   ar
    78    28    27   ar
    79    28    30   ar
    80   100   101    2
    81   100   110   am
    82    69    70    1
    83    27    29   ar
    84    18    17    2
    85    30    32   ar
    86    22    17   am
    87   110   111    1
    88    17    16    1
    89   117   115   am
    90    29    31   ar
    91    32    31   ar
    92   111   114    1
    93   111   112    1
    94     4     3    2
    95   115   116    2
    96   115   114    1
    97   113   112    2
    98    16    19    1
    99    16    15    1
   100     3    15   am
   101     3     2    1
   102    19    20    1
   103    15    21    1
   104     2     1    1
   105     2     5    1
   106   143   141    1
   107   142   141    1
   108    21    20    1
   109   140   139    2
   110   147   146    2
   111   141   138    1
   112     5     6    1
   113   146   145    1
   114    11    13   ar
   115    11     8   ar
   116   139   138    1
   117    13    14   ar
   118   138   137    1
   119     6     8   ar
   120     6     7   ar
   121     8    10   ar
   122   148   145    1
   123   148   149    1
   124   145   144    1
   125   125   127   ar
   126   125   123   ar
   127   127   126   ar
   128   123   122    1
   129   123   124   ar
   130    14    12   ar
   131   122   119    1
   132   126   124   ar
   133     7     9   ar
   134   137   130   am
   135    10    12   ar
   136    10     9   ar
   137   151   150    1
   138   149   150    1
   139   121   120    2
   140   119   118    1
   141   119   120    1
   142   130   131    2
   143   130   129    1
   144   120   128   am
   145   128   129    1
   146   129   132    1
   147   132   133    2
   148   133   134    1
   149   134   136   ar
   150   134   135   ar
