@<TRIPOS>MOLECULE
tmp/5uw0B00.pdb
 130 124 0 0 0
SMALL
GASTEIGER

@<TRIPOS>ATOM
      1  N         22.3660   88.3360   82.5590 N.3    22  GLY22      -0.1225
      2  CA        23.5120   87.9200   81.7670 C.3    22  GLY22       0.1811
      3  C         24.4420   89.0360   81.3490 C.2    22  GLY22       0.2280
      4  O         25.5970   88.7590   81.0370 O.2    22  GLY22      -0.2866
      5  N         10.2810   89.4950   73.7040 N.3   198  ARG198     -0.1245
      6  CA        10.0230   88.7940   74.9670 C.3   198  ARG198      0.1563
      7  C          8.5320   88.5600   75.1720 C.2   198  ARG198      0.2260
      8  O          8.1140   87.4390   75.4660 O.2   198  ARG198     -0.2867
      9  CB        10.5420   89.6060   76.1860 C.3   198  ARG198      0.0307
     10  CG        12.0560   89.7220   76.3880 C.3   198  ARG198      0.0489
     11  CD        12.6500   88.3760   76.7840 C.3   198  ARG198      0.2205
     12  NE        14.0990   88.4410   77.0390 N.pl3 198  ARG198     -0.0865
     13  CZ        14.9280   87.3830   77.0860 C.cat 198  ARG198      0.5346
     14  NH1       14.4900   86.1330   76.8740 N.pl3 198  ARG198      0.1354
     15  NH2       16.2190   87.5760   77.3450 N.pl3 198  ARG198      0.1354
     16  N         19.3820   72.5840   79.9550 N.3   317  ALA317     -0.1231
     17  CA        19.4500   73.3440   81.1660 C.3   317  ALA317      0.1694
     18  C         19.1470   74.7960   80.9170 C.2   317  ALA317      0.2593
     19  O         19.3370   75.2900   79.8030 O.2   317  ALA317     -0.2718
     20  CB        20.8350   73.2060   81.7710 C.3   317  ALA317      0.0304
     21  N         18.6820   75.4700   81.9660 N.am  318  GLY318     -0.1942
     22  CA        18.3190   76.8810   81.9180 C.3   318  GLY318      0.2014
     23  C         17.1200   77.1870   82.7880 C.2   318  GLY318      0.2638
     24  O         16.6450   76.3300   83.5110 O.2   318  GLY318     -0.2714
     25  N         16.6820   78.4430   82.7430 N.am  319  ARG319     -0.1977
     26  CA        15.3690   78.8970   83.2190 C.3   319  ARG319      0.1597
     27  C         14.2660   77.9830   82.7520 C.2   319  ARG319      0.2287
     28  O         14.2860   77.4950   81.6210 O.2   319  ARG319     -0.2864
     29  CB        15.0360   80.2810   82.6650 C.3   319  ARG319      0.0334
     30  CG        15.2840   81.4370   83.6130 C.3   319  ARG319      0.0492
     31  CD        14.7060   82.7750   83.0830 C.3   319  ARG319      0.2205
     32  NE        15.6280   83.4120   82.1260 N.pl3 319  ARG319     -0.0865
     33  CZ        15.6740   83.2080   80.8010 C.cat 319  ARG319      0.5346
     34  NH1       14.8160   82.3960   80.1870 N.pl3 319  ARG319      0.1354
     35  NH2       16.5920   83.8460   80.0700 N.pl3 319  ARG319      0.1354
     36  N         12.6970   77.6420   75.7550 N.3   325  LYS325     -0.1245
     37  CA        13.9490   76.8870   75.8680 C.3   325  LYS325      0.1561
     38  C         13.9160   75.5690   75.1040 C.2   325  LYS325      0.2260
     39  O         14.9560   74.9100   74.9710 O.2   325  LYS325     -0.2867
     40  CB        14.3420   76.6590   77.3290 C.3   325  LYS325      0.0271
     41  CG        14.8000   77.9370   78.0270 C.3   325  LYS325      0.0035
     42  CD        16.2340   78.2940   77.6530 C.3   325  LYS325      0.0206
     43  CE        16.5800   79.7710   77.8920 C.3   325  LYS325      0.1093
     44  NZ        17.3480   80.4040   76.7540 N.3   325  LYS325     -0.1314
     45  N         17.6910   70.0760   83.6260 N.3   355  VAL355     -0.1245
     46  CA        18.1320   70.8730   84.7670 C.3   355  VAL355      0.1561
     47  C         17.4840   72.2320   84.6140 C.2   355  VAL355      0.2260
     48  O         18.0230   73.1090   83.9400 O.2   355  VAL355     -0.2867
     49  CB        19.6530   70.9900   84.8170 C.3   355  VAL355      0.0252
     50  CG1       20.0650   71.8340   85.9960 C.3   355  VAL355      0.0019
     51  CG2       20.2860   69.6050   84.9230 C.3   355  VAL355      0.0019
     52  N         19.0230   73.9410   90.0950 N.3   479  PHE479     -0.1227
     53  CA        20.3410   74.1470   89.5620 C.3   479  PHE479      0.1736
     54  C         21.3020   73.2870   90.3400 C.2   479  PHE479      0.2595
     55  O         21.1130   73.0470   91.5120 O.2   479  PHE479     -0.2718
     56  CB        20.7700   75.6140   89.6150 C.3   479  PHE479      0.0547
     57  CG        20.1430   76.4850   88.5540 C.ar  479  PHE479     -0.0202
     58  CD1       19.7700   75.9880   87.3000 C.ar  479  PHE479     -0.0042
     59  CD2       19.9600   77.8200   88.7840 C.ar  479  PHE479     -0.0042
     60  CE1       19.2140   76.8050   86.3290 C.ar  479  PHE479     -0.0003
     61  CE2       19.3860   78.6370   87.8210 C.ar  479  PHE479     -0.0003
     62  CZ        19.0170   78.1300   86.5930 C.ar  479  PHE479     -0.0000
     63  N         22.3050   72.7890   89.6390 N.am  480  LEU480     -0.1980
     64  CA        23.2920   71.9050   90.2000 C.3   480  LEU480      0.1596
     65  C         24.2540   72.6990   91.0300 C.2   480  LEU480      0.2287
     66  O         24.4610   73.9000   90.8280 O.2   480  LEU480     -0.2864
     67  CB        24.0710   71.1890   89.0920 C.3   480  LEU480      0.0297
     68  CG        23.2160   70.3650   88.1510 C.3   480  LEU480      0.0022
     69  CD1       24.0380   69.7620   87.0550 C.3   480  LEU480      0.0001
     70  CD2       22.5070   69.2690   88.9180 C.3   480  LEU480      0.0001
     71  N         27.6220   72.9740   88.0750 N.3   491  TYR491     -0.1241
     72  CA        27.1030   72.9190   86.7240 C.3   491  TYR491      0.1605
     73  C         28.2030   72.7230   85.6930 C.2   491  TYR491      0.2264
     74  O         28.1270   71.8090   84.8800 O.2   491  TYR491     -0.2867
     75  CB        26.2790   74.1850   86.3960 C.3   491  TYR491      0.0534
     76  CG        25.7220   74.1860   84.9820 C.ar  491  TYR491     -0.0201
     77  CD1       24.8280   73.2030   84.5610 C.ar  491  TYR491     -0.0009
     78  CD2       26.1330   75.1270   84.0540 C.ar  491  TYR491     -0.0009
     79  CE1       24.3390   73.1950   83.2750 C.ar  491  TYR491      0.0417
     80  CE2       25.6520   75.1220   82.7820 C.ar  491  TYR491      0.0417
     81  CZ        24.7630   74.1530   82.3960 C.ar  491  TYR491      0.1957
     82  OH        24.3040   74.1540   81.1040 O.3   491  TYR491     -0.2866
     83  N         15.7030   83.2680   72.1770 N.3   508  GLU508     -0.1231
     84  CA        16.9840   83.2170   72.8490 C.3   508  GLU508      0.1684
     85  C         17.9290   84.1600   72.0890 C.2   508  GLU508      0.2434
     86  O         18.6380   83.7500   71.1580 O.2   508  GLU508     -0.2733
     87  CB        17.5130   81.7720   72.8770 C.3   508  GLU508      0.0402
     88  CG        18.8440   81.5900   73.5790 C.3   508  GLU508      0.1161
     89  CD        19.2720   80.1410   73.6560 C.2   508  GLU508      0.3649
     90  OE1       18.9500   79.5090   74.6960 O.co2 508  GLU508     -0.2457
     91  OE2       19.9370   79.6360   72.6960 O.co2 508  GLU508     -0.2457
     92  N         17.9240   85.4430   72.4520 N.am  509  PRO509     -0.2729
     93  CA        18.7760   86.4200   71.7750 C.3   509  PRO509      0.1401
     94  C         20.2680   86.1110   71.7670 C.2   509  PRO509      0.2269
     95  O         20.9170   86.4840   70.8130 O.2   509  PRO509     -0.2865
     96  CB        18.5280   87.6970   72.5510 C.3   509  PRO509      0.0296
     97  CG        17.1740   87.5360   73.1610 C.3   509  PRO509      0.0237
     98  CD        16.9320   86.0730   73.3330 C.3   509  PRO509      0.0939
     99  N         22.0060   82.9410   74.1730 N.3   511  GLY511     -0.1210
    100  CA        22.3050   81.4870   74.2980 C.3   511  GLY511      0.1956
    101  C         23.7310   81.2820   74.8110 C.2   511  GLY511      0.2612
    102  O         24.6440   80.8220   74.1320 O.2   511  GLY511     -0.2717
    103  N         23.8390   81.6180   76.0800 N.am  512  TYR512     -0.1962
    104  CA        25.0030   81.4700   76.8510 C.3   512  TYR512      0.1771
    105  C         25.2130   79.9860   77.0990 C.2   512  TYR512      0.2620
    106  O         26.3580   79.5300   77.2060 O.2   512  TYR512     -0.2715
    107  CB        24.7860   82.1880   78.1670 C.3   512  TYR512      0.0574
    108  CG        24.5590   83.6770   78.0680 C.ar  512  TYR512     -0.0198
    109  CD1       25.6260   84.5620   78.1360 C.ar  512  TYR512     -0.0009
    110  CD2       23.2670   84.2130   77.9810 C.ar  512  TYR512     -0.0009
    111  CE1       25.4320   85.9380   78.0980 C.ar  512  TYR512      0.0417
    112  CE2       23.0550   85.5840   77.9300 C.ar  512  TYR512      0.0417
    113  CZ        24.1360   86.4510   77.9950 C.ar  512  TYR512      0.1957
    114  OH        23.9190   87.8250   77.9510 O.3   512  TYR512     -0.2866
    115  N         24.1010   79.2570   77.1870 N.am  513  THR513     -0.1951
    116  CA        24.0970   77.8520   77.5060 C.3   513  THR513      0.1897
    117  C         24.8960   77.0560   76.4640 C.2   513  THR513      0.2313
    118  O         25.9250   76.5240   76.8030 O.2   513  THR513     -0.2863
    119  CB        22.6520   77.3250   77.7090 C.3   513  THR513      0.1794
    120  OG1       22.0090   78.0330   78.7750 O.3   513  THR513     -0.2208
    121  CG2       22.6280   75.8410   78.0210 C.3   513  THR513      0.0378
    122  N         28.7780   78.1030   76.5350 N.3   516  GLU516     -0.1245
    123  CA        29.5760   77.5440   77.6340 C.3   516  GLU516      0.1567
    124  C         29.8950   76.1110   77.3330 C.2   516  GLU516      0.2260
    125  O         31.0080   75.6480   77.4930 O.2   516  GLU516     -0.2867
    126  CB        28.8080   77.5110   78.9430 C.3   516  GLU516      0.0388
    127  CG        28.7560   78.7860   79.7420 C.3   516  GLU516      0.1160
    128  CD        27.8670   78.5880   80.9650 C.2   516  GLU516      0.3649
    129  OE1       26.6960   79.0670   80.9360 O.co2 516  GLU516     -0.2457
    130  OE2       28.3330   77.9000   81.9240 O.co2 516  GLU516     -0.2457
@<TRIPOS>BOND
     1    95    94    2
     2    86    85    2
     3    94    93    1
     4    93    92    1
     5    93    96    1
     6    85    92   am
     7    85    84    1
     8    83    84    1
     9    92    98    1
    10    96    97    1
    11    91    89   ar
    12    84    87    1
    13    87    88    1
    14    97    98    1
    15    88    89    1
    16    89    90   ar
    17     5     6    1
    18   102   101    2
    19    99   100    1
    20   100   101    1
    21   101   103   am
    22     6     7    1
    23     6     9    1
    24    39    38    2
    25    38    37    1
    26     7     8    2
    27    36    37    1
    28    37    40    1
    29   103   104    1
    30     9    10    1
    31    10    11    1
    32   117   118    2
    33   117   116    1
    34   122   123    1
    35    44    43    1
    36    11    12    1
    37   104   105    1
    38   104   107    1
    39    14    13    1
    40    12    13    2
    41    13    15    1
    42   105   115   am
    43   105   106    2
    44   115   116    1
    45    40    41    1
    46   124   125    2
    47   124   123    1
    48   116   119    1
    49   123   126    1
    50    42    43    1
    51    42    41    1
    52   119   121    1
    53   119   120    1
    54   112   110   ar
    55   112   113   ar
    56   114   113    1
    57   110   108   ar
    58   113   111   ar
    59   108   109   ar
    60   108   107    1
    61   111   109   ar
    62   126   127    1
    63   127   128    1
    64    19    18    2
    65    16    17    1
    66    35    33    1
    67    34    33    1
    68    33    32    2
    69    18    17    1
    70    18    21   am
    71   129   128   ar
    72   128   130   ar
    73     4     3    2
    74    82    81    1
    75    17    20    1
    76     3     2    1
    77    28    27    2
    78     2     1    1
    79    22    21    1
    80    22    23    1
    81    32    31    1
    82    81    80   ar
    83    81    79   ar
    84    29    26    1
    85    29    30    1
    86    25    23   am
    87    25    26    1
    88    27    26    1
    89    80    78   ar
    90    23    24    2
    91    31    30    1
    92    79    77   ar
    93    45    46    1
    94    48    47    2
    95    78    76   ar
    96    77    76   ar
    97    47    46    1
    98    46    49    1
    99    49    51    1
   100    49    50    1
   101    74    73    2
   102    76    75    1
   103    73    72    1
   104    60    62   ar
   105    60    58   ar
   106    75    72    1
   107    62    61   ar
   108    72    71    1
   109    69    68    1
   110    58    57   ar
   111    61    59   ar
   112    68    70    1
   113    68    67    1
   114    57    59   ar
   115    57    56    1
   116    67    64    1
   117    53    56    1
   118    53    52    1
   119    53    54    1
   120    63    64    1
   121    63    54   am
   122    64    65    1
   123    54    55    2
   124    66    65    2
