@<TRIPOS>MOLECULE
tmp/5uw1B00.pdb
 192 189 0 0 0
SMALL
GASTEIGER

@<TRIPOS>ATOM
      1  N        -75.5920  -17.1460  -90.5270 N.3    21  GLY21      -0.1210
      2  CA       -75.8290  -18.2520  -89.6000 C.3    21  GLY21       0.1956
      3  C        -74.6230  -19.1590  -89.4750 C.2    21  GLY21       0.2612
      4  O        -73.6790  -19.0480  -90.2520 O.2    21  GLY21      -0.2717
      5  N        -74.6830  -20.0820  -88.5150 N.am   22  GLY22      -0.1942
      6  CA       -73.5450  -20.9230  -88.1000 C.3    22  GLY22       0.2014
      7  C        -72.5570  -21.4210  -89.1400 C.2    22  GLY22       0.2638
      8  O        -71.4050  -21.6560  -88.8110 O.2    22  GLY22      -0.2714
      9  N        -73.0150  -21.6030  -90.3800 N.am   23  ILE23      -0.1977
     10  CA       -72.1650  -22.0280  -91.5110 C.3    23  ILE23       0.1596
     11  C        -71.0030  -21.0530  -91.7800 C.2    23  ILE23       0.2287
     12  O        -69.9200  -21.4780  -92.1990 O.2    23  ILE23      -0.2864
     13  CB       -73.0140  -22.2240  -92.7920 C.3    23  ILE23       0.0276
     14  CG1      -74.0080  -23.3810  -92.6000 C.3    23  ILE23       0.0022
     15  CG2      -72.1570  -22.4940  -94.0260 C.3    23  ILE23       0.0022
     16  CD1      -75.3060  -23.2120  -93.3700 C.3    23  ILE23       0.0001
     17  N        -76.5480  -28.9460  -93.6180 N.3   192  HIS192     -0.1226
     18  CA       -76.3610  -28.7580  -92.1630 C.3   192  HIS192      0.1752
     19  C        -77.6260  -28.8780  -91.3360 C.2   192  HIS192      0.2595
     20  O        -77.5720  -28.8020  -90.1170 O.2   192  HIS192     -0.2718
     21  CB       -75.6890  -27.4270  -91.8550 C.3   192  HIS192      0.0759
     22  CG       -74.3770  -27.2480  -92.5420 C.ar  192  HIS192      0.0818
     23  ND1      -73.1750  -27.2570  -91.8660 N.ar  192  HIS192     -0.2268
     24  CD2      -74.0780  -27.0570  -93.8460 C.ar  192  HIS192      0.1154
     25  CE1      -72.1910  -27.0700  -92.7270 C.ar  192  HIS192      0.1986
     26  NE2      -72.7150  -26.9400  -93.9330 N.ar  192  HIS192     -0.2212
     27  N        -78.7550  -29.0140  -92.0120 N.am  193  ALA193     -0.1980
     28  CA       -79.9680  -29.5700  -91.4260 C.3   193  ALA193      0.1597
     29  C        -80.7730  -30.1250  -92.5880 C.2   193  ALA193      0.2287
     30  O        -80.2160  -30.3580  -93.6600 O.2   193  ALA193     -0.2864
     31  CB       -80.7420  -28.4920  -90.6890 C.3   193  ALA193      0.0319
     32  N        -86.4890  -29.4180  -89.4960 N.3   198  ARG198     -0.1245
     33  CA       -86.6870  -28.2110  -88.7000 C.3   198  ARG198      0.1563
     34  C        -88.1890  -27.8640  -88.5670 C.2   198  ARG198      0.2260
     35  O        -88.6500  -27.6030  -87.4550 O.2   198  ARG198     -0.2867
     36  CB       -85.9290  -27.0340  -89.3170 C.3   198  ARG198      0.0307
     37  CG       -84.4250  -27.0980  -89.1710 C.3   198  ARG198      0.0489
     38  CD       -83.6810  -25.8910  -89.7860 C.3   198  ARG198      0.2205
     39  NE       -83.9720  -25.9280  -91.2300 N.pl3 198  ARG198     -0.0865
     40  CZ       -83.5370  -24.9550  -92.0670 C.cat 198  ARG198      0.5346
     41  NH1      -82.8520  -23.9270  -91.5290 N.pl3 198  ARG198      0.1354
     42  NH2      -83.8010  -25.0740  -93.3610 N.pl3 198  ARG198      0.1354
     43  N        -77.2930  -23.0640  -72.3850 N.3   317  ALA317     -0.1231
     44  CA       -77.2020  -21.8020  -73.1260 C.3   317  ALA317      0.1694
     45  C        -77.5470  -21.9390  -74.5940 C.2   317  ALA317      0.2593
     46  O        -77.3340  -22.9910  -75.1960 O.2   317  ALA317     -0.2718
     47  CB       -75.8110  -21.2190  -72.9820 C.3   317  ALA317      0.0304
     48  N        -78.0760  -20.8630  -75.1710 N.am  318  GLY318     -0.1942
     49  CA       -78.2800  -20.7840  -76.6250 C.3   318  GLY318      0.2014
     50  C        -79.5380  -20.0320  -76.9920 C.2   318  GLY318      0.2638
     51  O        -80.1640  -19.4220  -76.1170 O.2   318  GLY318     -0.2714
     52  N        -79.8880  -20.0770  -78.2910 N.am  319  ARG319     -0.1977
     53  CA       -81.2160  -19.6550  -78.8060 C.3   319  ARG319      0.1597
     54  C        -82.3400  -20.2570  -77.9300 C.2   319  ARG319      0.2287
     55  O        -82.2380  -21.4040  -77.4360 O.2   319  ARG319     -0.2864
     56  CB       -81.3920  -20.0790  -80.2660 C.3   319  ARG319      0.0334
     57  CG       -80.5340  -19.2610  -81.2510 C.3   319  ARG319      0.0492
     58  CD       -80.8000  -19.6770  -82.6880 C.3   319  ARG319      0.2205
     59  NE       -80.4650  -21.0850  -82.9080 N.pl3 319  ARG319     -0.0865
     60  CZ       -81.3280  -22.0480  -83.2260 C.cat 319  ARG319      0.5346
     61  NH1      -82.6110  -21.7730  -83.4380 N.pl3 319  ARG319      0.1354
     62  NH2      -80.8930  -23.2870  -83.3810 N.pl3 319  ARG319      0.1354
     63  N        -85.0580  -22.0070  -77.7320 N.3   321  GLU321     -0.1245
     64  CA       -85.9480  -23.0400  -78.2520 C.3   321  GLU321      0.1567
     65  C        -86.2510  -23.9460  -77.0920 C.2   321  GLU321      0.2260
     66  O        -85.5450  -24.9040  -76.8410 O.2   321  GLU321     -0.2867
     67  CB       -85.2970  -23.8100  -79.3850 C.3   321  GLU321      0.0388
     68  CG       -85.0660  -22.9410  -80.6040 C.3   321  GLU321      0.1160
     69  CD       -84.7230  -23.7300  -81.8570 C.2   321  GLU321      0.3649
     70  OE1      -83.9400  -24.7290  -81.7680 O.co2 321  GLU321     -0.2457
     71  OE2      -85.2450  -23.3280  -82.9330 O.co2 321  GLU321     -0.2457
     72  N        -83.9690  -27.3070  -77.6610 N.3   325  LYS325     -0.1245
     73  CA       -82.7350  -27.2490  -76.8810 C.3   325  LYS325      0.1561
     74  C        -82.8530  -28.0050  -75.5640 C.2   325  LYS325      0.2260
     75  O        -81.8420  -28.3080  -74.9230 O.2   325  LYS325     -0.2867
     76  CB       -82.3410  -25.8070  -76.6170 C.3   325  LYS325      0.0271
     77  CG       -82.0220  -25.0330  -77.8890 C.3   325  LYS325      0.0035
     78  CD       -80.5230  -24.9940  -78.1690 C.3   325  LYS325      0.0206
     79  CE       -80.2410  -24.7570  -79.6470 C.3   325  LYS325      0.1093
     80  NZ       -80.3310  -26.0250  -80.4360 N.3   325  LYS325     -0.1314
     81  N        -79.0630  -19.4240  -69.9560 N.3   355  VAL355     -0.1245
     82  CA       -78.6340  -18.2940  -70.7400 C.3   355  VAL355      0.1561
     83  C        -79.2640  -18.4500  -72.1080 C.2   355  VAL355      0.2260
     84  O        -78.6280  -18.9620  -73.0480 O.2   355  VAL355     -0.2867
     85  CB       -77.0990  -18.2230  -70.8210 C.3   355  VAL355      0.0252
     86  CG1      -76.6550  -16.9470  -71.5280 C.3   355  VAL355      0.0019
     87  CG2      -76.4910  -18.2770  -69.4280 C.3   355  VAL355      0.0019
     88  N        -77.9020  -12.8730  -73.9040 N.3   479  PHE479     -0.1227
     89  CA       -76.5600  -13.4790  -74.0950 C.3   479  PHE479      0.1736
     90  C        -75.5580  -12.8090  -73.1570 C.2   479  PHE479      0.2595
     91  O        -75.7410  -11.6500  -72.7620 O.2   479  PHE479     -0.2718
     92  CB       -76.0560  -13.4290  -75.5580 C.3   479  PHE479      0.0547
     93  CG       -76.6780  -14.4650  -76.4860 C.ar  479  PHE479     -0.0202
     94  CD1      -76.8500  -15.8040  -76.0920 C.ar  479  PHE479     -0.0042
     95  CD2      -77.0570  -14.1160  -77.7680 C.ar  479  PHE479     -0.0042
     96  CE1      -77.4020  -16.7570  -76.9420 C.ar  479  PHE479     -0.0003
     97  CE2      -77.6080  -15.0660  -78.6160 C.ar  479  PHE479     -0.0003
     98  CZ       -77.7840  -16.3860  -78.2050 C.ar  479  PHE479     -0.0000
     99  N        -74.5400  -13.5550  -72.7550 N.am  480  LEU480     -0.1980
    100  CA       -73.5500  -13.0090  -71.8360 C.3   480  LEU480      0.1596
    101  C        -72.6000  -12.1010  -72.5870 C.2   480  LEU480      0.2287
    102  O        -72.4350  -12.2120  -73.8160 O.2   480  LEU480     -0.2864
    103  CB       -72.7750  -14.1010  -71.1040 C.3   480  LEU480      0.0297
    104  CG       -73.6220  -14.9480  -70.1720 C.3   480  LEU480      0.0022
    105  CD1      -72.8490  -16.1330  -69.6580 C.3   480  LEU480      0.0001
    106  CD2      -74.0870  -14.1380  -68.9870 C.3   480  LEU480      0.0001
    107  N        -69.2770  -14.6640  -72.7990 N.3   491  TYR491     -0.1241
    108  CA       -69.7860  -16.0620  -72.6820 C.3   491  TYR491      0.1605
    109  C        -68.6610  -17.0490  -72.4680 C.2   491  TYR491      0.2264
    110  O        -68.7120  -17.8510  -71.5100 O.2   491  TYR491     -0.2867
    111  CB       -70.6250  -16.4840  -73.9090 C.3   491  TYR491      0.0534
    112  CG       -71.0440  -17.9480  -73.9390 C.ar  491  TYR491     -0.0201
    113  CD1      -71.8700  -18.4870  -72.9540 C.ar  491  TYR491     -0.0009
    114  CD2      -70.6400  -18.7810  -74.9680 C.ar  491  TYR491     -0.0009
    115  CE1      -72.2520  -19.8220  -72.9820 C.ar  491  TYR491      0.0417
    116  CE2      -71.0200  -20.1060  -75.0030 C.ar  491  TYR491      0.0417
    117  CZ       -71.8170  -20.6100  -74.0080 C.ar  491  TYR491      0.1957
    118  OH       -72.1470  -21.9160  -74.0610 O.3   491  TYR491     -0.2866
    119  N        -83.8890  -31.3900  -81.3200 N.3   507  TYR507     -0.1227
    120  CA       -83.4950  -31.1800  -82.7100 C.3   507  TYR507      0.1736
    121  C        -82.2480  -30.3000  -82.7990 C.2   507  TYR507      0.2595
    122  O        -82.3220  -29.1230  -82.5080 O.2   507  TYR507     -0.2718
    123  CB       -84.6380  -30.6220  -83.5670 C.3   507  TYR507      0.0548
    124  CG       -84.2730  -30.6910  -85.0370 C.ar  507  TYR507     -0.0200
    125  CD1      -84.3020  -31.8950  -85.7290 C.ar  507  TYR507     -0.0009
    126  CD2      -83.8150  -29.5880  -85.7030 C.ar  507  TYR507     -0.0009
    127  CE1      -83.9210  -31.9730  -87.0550 C.ar  507  TYR507      0.0417
    128  CE2      -83.4440  -29.6520  -87.0250 C.ar  507  TYR507      0.0417
    129  CZ       -83.4970  -30.8410  -87.6990 C.ar  507  TYR507      0.1957
    130  OH       -83.1120  -30.8750  -89.0180 O.3   507  TYR507     -0.2866
    131  N        -81.1200  -30.8760  -83.2250 N.am  508  GLU508     -0.1966
    132  CA       -79.8040  -30.1970  -83.1900 C.3   508  GLU508      0.1718
    133  C        -78.8000  -30.9420  -84.1180 C.2   508  GLU508      0.2458
    134  O        -78.0590  -31.8290  -83.7010 O.2   508  GLU508     -0.2730
    135  CB       -79.3170  -30.0810  -81.7280 C.3   508  GLU508      0.0428
    136  CG       -77.8770  -29.6580  -81.5210 C.3   508  GLU508      0.1163
    137  CD       -77.5780  -29.3440  -80.0700 C.2   508  GLU508      0.3649
    138  OE1      -77.9910  -28.2260  -79.6700 O.co2 508  GLU508     -0.2457
    139  OE2      -76.9270  -30.1830  -79.3490 O.co2 508  GLU508     -0.2457
    140  N        -78.8190  -30.6080  -85.4070 N.am  509  PRO509     -0.2716
    141  CA       -77.9810  -31.2470  -86.4080 C.3   509  PRO509      0.1536
    142  C        -76.5270  -31.3390  -86.0650 C.2   509  PRO509      0.2599
    143  O        -75.9080  -32.3230  -86.4230 O.2   509  PRO509     -0.2715
    144  CB       -78.1480  -30.3410  -87.6140 C.3   509  PRO509      0.0310
    145  CG       -79.5700  -29.9020  -87.5150 C.3   509  PRO509      0.0237
    146  CD       -79.8690  -29.7910  -86.0370 C.3   509  PRO509      0.0939
    147  N        -75.9750  -30.3060  -85.4280 N.am  510  TRP510     -0.1960
    148  CA       -74.6340  -30.3930  -84.9140 C.3   510  TRP510      0.1771
    149  C        -74.5760  -30.0350  -83.4450 C.2   510  TRP510      0.2620
    150  O        -74.4070  -30.9130  -82.5960 O.2   510  TRP510     -0.2715
    151  CB       -73.6650  -29.5660  -85.7250 C.3   510  TRP510      0.0590
    152  CG       -72.3280  -29.6360  -85.1510 C.ar  510  TRP510      0.0006
    153  CD1      -71.6240  -28.6150  -84.6640 C.ar  510  TRP510      0.0946
    154  CD2      -71.5470  -30.8240  -84.9100 C.ar  510  TRP510      0.0152
    155  NE1      -70.4330  -29.0600  -84.1540 N.ar  510  TRP510     -0.2442
    156  CE2      -70.3590  -30.4150  -84.2930 C.ar  510  TRP510      0.0810
    157  CE3      -71.7410  -32.1940  -85.1620 C.ar  510  TRP510      0.0012
    158  CZ2      -69.3540  -31.3100  -83.9230 C.ar  510  TRP510      0.0191
    159  CZ3      -70.7350  -33.0910  -84.7990 C.ar  510  TRP510      0.0001
    160  CH2      -69.5570  -32.6370  -84.1860 C.ar  510  TRP510      0.0015
    161  N        -74.7190  -28.7720  -83.1010 N.am  511  GLY511     -0.1940
    162  CA       -74.6080  -28.4180  -81.6820 C.3   511  GLY511      0.2014
    163  C        -73.1710  -28.1210  -81.3110 C.2   511  GLY511      0.2639
    164  O        -72.3830  -29.0080  -80.9790 O.2   511  GLY511     -0.2714
    165  N        -72.8720  -26.8320  -81.3540 N.am  512  TYR512     -0.1959
    166  CA       -71.5490  -26.3060  -81.1590 C.3   512  TYR512      0.1771
    167  C        -71.4050  -26.0290  -79.6930 C.2   512  TYR512      0.2620
    168  O        -70.3240  -26.0850  -79.1560 O.2   512  TYR512     -0.2715
    169  CB       -71.4050  -24.9940  -81.9020 C.3   512  TYR512      0.0574
    170  CG       -71.7690  -24.9800  -83.3930 C.ar  512  TYR512     -0.0198
    171  CD1      -73.1080  -25.0920  -83.8480 C.ar  512  TYR512     -0.0009
    172  CD2      -70.7620  -24.7700  -84.3600 C.ar  512  TYR512     -0.0009
    173  CE1      -73.4210  -25.0270  -85.2070 C.ar  512  TYR512      0.0417
    174  CE2      -71.0700  -24.6970  -85.7230 C.ar  512  TYR512      0.0417
    175  CZ       -72.4060  -24.8280  -86.1470 C.ar  512  TYR512      0.1957
    176  OH       -72.6800  -24.7620  -87.5010 O.3   512  TYR512     -0.2866
    177  N        -72.5140  -25.7010  -79.0550 N.am  513  THR513     -0.1951
    178  CA       -72.5400  -25.3860  -77.6520 C.3   513  THR513      0.1897
    179  C        -71.8170  -26.3940  -76.7610 C.2   513  THR513      0.2313
    180  O        -70.9880  -25.9840  -75.9570 O.2   513  THR513     -0.2863
    181  CB       -73.9830  -25.1580  -77.2020 C.3   513  THR513      0.1794
    182  OG1      -74.6100  -24.2960  -78.1520 O.3   513  THR513     -0.2208
    183  CG2      -74.0340  -24.5010  -75.8470 C.3   513  THR513      0.0378
    184  N        -67.9180  -26.4420  -78.0260 N.3   516  GLU516     -0.1245
    185  CA       -67.0950  -25.3540  -77.5010 C.3   516  GLU516      0.1567
    186  C        -66.8220  -25.6370  -76.0530 C.2   516  GLU516      0.2260
    187  O        -65.7680  -25.3090  -75.5180 O.2   516  GLU516     -0.2867
    188  CB       -67.8170  -24.0290  -77.4960 C.3   516  GLU516      0.0388
    189  CG       -68.2330  -23.4530  -78.8170 C.3   516  GLU516      0.1160
    190  CD       -69.2510  -22.3480  -78.5810 C.2   516  GLU516      0.3649
    191  OE1      -70.3790  -22.6290  -78.1080 O.co2 516  GLU516     -0.2457
    192  OE2      -68.9030  -21.1750  -78.8090 O.co2 516  GLU516     -0.2457
@<TRIPOS>BOND
     1    15    13    1
     2    26    24   ar
     3    26    25   ar
     4    24    22   ar
     5    30    29    2
     6    17    18    1
     7    16    14    1
     8    42    40    1
     9    13    14    1
    10    13    10    1
    11    25    23   ar
    12    29    28    1
    13    22    23   ar
    14    22    21    1
    15    12    11    2
    16    18    21    1
    17    18    19    1
    18    40    41    1
    19    40    39    2
    20    27    28    1
    21    27    19   am
    22    11    10    1
    23    10     9    1
    24    28    31    1
    25    19    20    2
    26    39    38    1
    27     1     2    1
    28     9     7   am
    29     4     3    2
    30    38    37    1
    31     2     3    1
    32    32    33    1
    33     3     5   am
    34    36    37    1
    35    36    33    1
    36     7     8    2
    37     7     6    1
    38   130   129    1
    39    33    34    1
    40    34    35    2
    41     5     6    1
    42   129   127   ar
    43   129   128   ar
    44   144   145    1
    45   144   141    1
    46   145   146    1
    47   176   175    1
    48   127   125   ar
    49   128   126   ar
    50   143   142    2
    51   141   142    1
    52   141   140    1
    53   175   174   ar
    54   175   173   ar
    55   142   147   am
    56   146   140    1
    57   125   124   ar
    58   151   152    1
    59   151   148    1
    60   174   172   ar
    61   126   124   ar
    62   147   148    1
    63   140   133   am
    64   173   171   ar
    65   157   154   ar
    66   157   159   ar
    67   152   154   ar
    68   152   153   ar
    69   124   123    1
    70   148   149    1
    71   154   156   ar
    72   159   160   ar
    73   153   155   ar
    74   172   170   ar
    75   156   155   ar
    76   156   158   ar
    77   160   158   ar
    78   133   134    2
    79   133   132    1
    80   171   170   ar
    81   123   120    1
    82   149   161   am
    83   149   150    2
    84    61    60    1
    85   170   169    1
    86    62    60    1
    87    60    59    2
    88   131   132    1
    89   131   121   am
    90   132   135    1
    91   161   162    1
    92    71    69   ar
    93    59    58    1
    94   121   120    1
    95   121   122    2
    96   120   119    1
    97    58    57    1
    98   169   166    1
    99    69    70   ar
   100    69    68    1
   101   135   136    1
   102   162   163    1
   103   136   137    1
   104   165   163   am
   105   165   166    1
   106   163   164    2
   107    57    56    1
   108   166   167    1
   109    68    67    1
   110    80    79    1
   111    56    53    1
   112   137   138   ar
   113   137   139   ar
   114   167   168    2
   115   167   177   am
   116    79    78    1
   117    67    64    1
   118   177   178    1
   119   189   190    1
   120   189   188    1
   121   192   190   ar
   122    53    52    1
   123    53    54    1
   124    97    98   ar
   125    97    95   ar
   126   190   191   ar
   127    52    50   am
   128    64    63    1
   129    64    65    1
   130    98    96   ar
   131    78    77    1
   132   182   181    1
   133   184   185    1
   134    54    55    2
   135    77    76    1
   136    95    93   ar
   137    72    73    1
   138   178   181    1
   139   178   179    1
   140   185   188    1
   141   185   186    1
   142   181   183    1
   143    65    66    2
   144    50    49    1
   145    50    51    2
   146    96    94   ar
   147    73    76    1
   148    73    74    1
   149   179   180    2
   150    49    48    1
   151    93    94   ar
   152    93    92    1
   153   186   187    2
   154    74    75    2
   155    92    89    1
   156    46    45    2
   157    48    45   am
   158   116   114   ar
   159   116   117   ar
   160   114   112   ar
   161    45    44    1
   162    89    88    1
   163    89    90    1
   164   118   117    1
   165   117   115   ar
   166   112   111    1
   167   112   113   ar
   168   111   108    1
   169   102   101    2
   170    90    91    2
   171    90    99   am
   172    44    47    1
   173    44    43    1
   174    84    83    2
   175   115   113   ar
   176   107   108    1
   177    99   100    1
   178   108   109    1
   179   101   100    1
   180   109   110    2
   181    83    82    1
   182   100   103    1
   183    86    85    1
   184   103   104    1
   185    85    82    1
   186    85    87    1
   187    82    81    1
   188   104   105    1
   189   104   106    1
