@<TRIPOS>MOLECULE
tmp/5uw4A00.pdb
 135 130 0 0 0
SMALL
GASTEIGER

@<TRIPOS>ATOM
      1  N        -68.9300  -44.3210  -33.1830 N.3    22  GLY22      -0.1210
      2  CA       -67.8630  -44.6670  -34.1240 C.3    22  GLY22       0.1956
      3  C        -67.2970  -43.5350  -34.9760 C.2    22  GLY22       0.2611
      4  O        -66.1610  -43.6320  -35.4160 O.2    22  GLY22      -0.2717
      5  N        -68.0510  -42.4560  -35.2060 N.am   23  ILE23      -0.1979
      6  CA       -67.5370  -41.3070  -35.9960 C.3    23  ILE23       0.1595
      7  C        -66.3450  -40.6520  -35.2660 C.2    23  ILE23       0.2287
      8  O        -65.3870  -40.2040  -35.9000 O.2    23  ILE23      -0.2864
      9  CB       -68.6410  -40.2430  -36.3420 C.3    23  ILE23       0.0276
     10  CG1      -69.7080  -40.8010  -37.3180 C.3    23  ILE23       0.0022
     11  CG2      -68.0360  -38.9490  -36.9020 C.3    23  ILE23       0.0022
     12  CD1      -71.0140  -41.2420  -36.6700 C.3    23  ILE23       0.0001
     13  N        -63.3540  -42.8240  -36.1810 N.3    26  VAL26      -0.1245
     14  CA       -62.7050  -42.6240  -37.4950 C.3    26  VAL26       0.1561
     15  C        -61.8020  -41.3800  -37.4240 C.2    26  VAL26       0.2260
     16  O        -60.6110  -41.4530  -37.7020 O.2    26  VAL26      -0.2867
     17  CB       -63.6450  -42.5900  -38.7530 C.3    26  VAL26       0.0252
     18  CG1      -64.6870  -43.7060  -38.7560 C.3    26  VAL26       0.0019
     19  CG2      -64.2970  -41.2350  -38.9490 C.3    26  VAL26       0.0019
     20  N        -71.6430  -37.0770  -41.5880 N.3   168  GLN168     -0.1245
     21  CA       -72.9780  -37.2460  -41.0070 C.3   168  GLN168      0.1566
     22  C        -73.9640  -36.1610  -41.3680 C.2   168  GLN168      0.2260
     23  O        -73.6190  -35.0620  -41.7650 O.2   168  GLN168     -0.2867
     24  CB       -73.0160  -37.6100  -39.5280 C.3   168  GLN168      0.0367
     25  CG       -73.1840  -39.0920  -39.2570 C.3   168  GLN168      0.0905
     26  CD       -73.9560  -39.8160  -40.3250 C.2   168  GLN168      0.2608
     27  OE1      -73.6790  -40.9670  -40.6370 O.2   168  GLN168     -0.2717
     28  NE2      -74.9310  -39.1460  -40.8900 N.am  168  GLN168     -0.0878
     29  N        -72.3110  -42.1580  -42.4180 N.3   192  HIS192     -0.1226
     30  CA       -71.8860  -43.3400  -41.6870 C.3   192  HIS192      0.1752
     31  C        -73.0570  -44.2620  -41.4010 C.2   192  HIS192      0.2595
     32  O        -72.8400  -45.4280  -41.1010 O.2   192  HIS192     -0.2718
     33  CB       -71.0780  -42.9520  -40.4390 C.3   192  HIS192      0.0759
     34  CG       -69.8510  -42.1440  -40.7560 C.ar  192  HIS192      0.0818
     35  ND1      -68.6030  -42.7120  -40.9080 N.ar  192  HIS192     -0.2268
     36  CD2      -69.6920  -40.8150  -40.9920 C.ar  192  HIS192      0.1154
     37  CE1      -67.7270  -41.7610  -41.1990 C.ar  192  HIS192      0.1986
     38  NE2      -68.3600  -40.6020  -41.2530 N.ar  192  HIS192     -0.2212
     39  N        -74.2810  -43.7430  -41.5080 N.am  193  ALA193     -0.1980
     40  CA       -75.4710  -44.5850  -41.6450 C.3   193  ALA193      0.1597
     41  C        -76.5340  -43.8270  -42.4530 C.2   193  ALA193      0.2287
     42  O        -76.1980  -42.8920  -43.1900 O.2   193  ALA193     -0.2864
     43  CB       -75.9840  -44.9720  -40.2730 C.3   193  ALA193      0.0319
     44  N        -81.7610  -46.7590  -39.7220 N.3   198  ARG198     -0.1245
     45  CA       -81.7710  -47.0130  -38.2730 C.3   198  ARG198      0.1563
     46  C        -83.1910  -47.2220  -37.7880 C.2   198  ARG198      0.2260
     47  O        -83.5280  -48.2950  -37.2620 O.2   198  ARG198     -0.2867
     48  CB       -81.1330  -45.8750  -37.4600 C.3   198  ARG198      0.0307
     49  CG       -79.6520  -46.0750  -37.2370 C.3   198  ARG198      0.0489
     50  CD       -79.1060  -45.4610  -35.9670 C.3   198  ARG198      0.2205
     51  NE       -77.7150  -45.0610  -36.1830 N.pl3 198  ARG198     -0.0865
     52  CZ       -76.6440  -45.8640  -36.1840 C.cat 198  ARG198      0.5346
     53  NH1      -76.7110  -47.1920  -35.9460 N.pl3 198  ARG198      0.1354
     54  NH2      -75.4690  -45.2980  -36.4210 N.pl3 198  ARG198      0.1354
     55  N        -69.6150  -45.9270  -45.9450 N.3   246  VAL246     -0.1245
     56  CA       -68.5230  -46.6840  -45.3230 C.3   246  VAL246      0.1561
     57  C        -68.5500  -48.1780  -45.5830 C.2   246  VAL246      0.2260
     58  O        -67.6110  -48.8510  -45.2110 O.2   246  VAL246     -0.2867
     59  CB       -68.4690  -46.4440  -43.8080 C.3   246  VAL246      0.0252
     60  CG1      -68.4430  -44.9460  -43.5160 C.3   246  VAL246      0.0019
     61  CG2      -69.6440  -47.1290  -43.0980 C.3   246  VAL246      0.0019
     62  N        -63.6720  -48.4300  -42.8230 N.3   268  ASN268     -0.1240
     63  CA       -63.0810  -47.7950  -41.6450 C.3   268  ASN268      0.1653
     64  C        -61.8460  -48.5140  -41.1100 C.2   268  ASN268      0.2266
     65  O        -61.8930  -49.7020  -40.7300 O.2   268  ASN268     -0.2867
     66  CB       -64.1210  -47.6600  -40.5450 C.3   268  ASN268      0.1155
     67  CG       -65.0150  -46.4620  -40.7270 C.2   268  ASN268      0.2627
     68  OD1      -64.6630  -45.4560  -41.3940 O.2   268  ASN268     -0.2716
     69  ND2      -66.1930  -46.5520  -40.1180 N.am  268  ASN268     -0.0877
     70  N        -73.2150  -48.2720  -27.8170 N.3   319  ARG319     -0.1245
     71  CA       -74.3470  -47.4300  -27.3580 C.3   319  ARG319      0.1563
     72  C        -75.6480  -48.2530  -27.1530 C.2   319  ARG319      0.2260
     73  O        -75.8000  -49.3340  -27.7390 O.2   319  ARG319     -0.2867
     74  CB       -74.5900  -46.3020  -28.3700 C.3   319  ARG319      0.0307
     75  CG       -73.4330  -45.3040  -28.5860 C.3   319  ARG319      0.0489
     76  CD       -73.3400  -44.7770  -30.0350 C.3   319  ARG319      0.2205
     77  NE       -74.6820  -44.5870  -30.5880 N.pl3 319  ARG319     -0.0865
     78  CZ       -75.2500  -45.2580  -31.5960 C.cat 319  ARG319      0.5346
     79  NH1      -74.6210  -46.1750  -32.3080 N.pl3 319  ARG319      0.1354
     80  NH2      -76.4960  -44.9790  -31.9120 N.pl3 319  ARG319      0.1354
     81  N        -77.9800  -53.0220  -31.9620 N.3   325  LYS325     -0.1245
     82  CA       -76.6420  -53.5220  -31.5640 C.3   325  LYS325      0.1561
     83  C        -76.5640  -55.0030  -31.1800 C.2   325  LYS325      0.2260
     84  O        -75.4570  -55.5530  -31.1010 O.2   325  LYS325     -0.2867
     85  CB       -76.0590  -52.6820  -30.4290 C.3   325  LYS325      0.0271
     86  CG       -75.8570  -51.2280  -30.7870 C.3   325  LYS325      0.0035
     87  CD       -74.8320  -51.0400  -31.8960 C.3   325  LYS325      0.0206
     88  CE       -74.5870  -49.5620  -32.1930 C.3   325  LYS325      0.1093
     89  NZ       -73.5990  -49.3820  -33.2990 N.3   325  LYS325     -0.1314
     90  N        -75.5980  -52.2590  -38.5670 N.3   508  GLU508     -0.1231
     91  CA       -74.1970  -51.8680  -38.3790 C.3   508  GLU508      0.1684
     92  C        -73.5180  -51.5060  -39.7170 C.2   508  GLU508      0.2434
     93  O        -73.0010  -52.3820  -40.4290 O.2   508  GLU508     -0.2733
     94  CB       -73.4440  -53.0020  -37.6680 C.3   508  GLU508      0.0402
     95  CG       -72.2740  -52.5400  -36.8170 C.3   508  GLU508      0.1161
     96  CD       -72.7150  -51.8690  -35.5340 C.2   508  GLU508      0.3649
     97  OE1      -72.7370  -50.6170  -35.5090 O.co2 508  GLU508     -0.2457
     98  OE2      -73.0660  -52.5920  -34.5750 O.co2 508  GLU508     -0.2457
     99  N        -73.5350  -50.2110  -40.0750 N.am  509  PRO509     -0.2718
    100  CA       -72.8820  -49.7360  -41.2920 C.3   509  PRO509      0.1535
    101  C        -71.4540  -50.1990  -41.4770 C.2   509  PRO509      0.2599
    102  O        -71.1040  -50.6300  -42.5640 O.2   509  PRO509     -0.2715
    103  CB       -72.9440  -48.2330  -41.1460 C.3   509  PRO509      0.0310
    104  CG       -74.2730  -48.0420  -40.4910 C.3   509  PRO509      0.0237
    105  CD       -74.4620  -49.2000  -39.5490 C.3   509  PRO509      0.0939
    106  N        -70.6430  -50.0800  -40.4300 N.am  510  TRP510     -0.1960
    107  CA       -69.3280  -50.7240  -40.3700 C.3   510  TRP510      0.1771
    108  C        -69.2730  -51.5440  -39.0920 C.2   510  TRP510      0.2620
    109  O        -69.3800  -52.7700  -39.1520 O.2   510  TRP510     -0.2715
    110  CB       -68.1810  -49.7030  -40.4700 C.3   510  TRP510      0.0590
    111  CG       -66.8180  -50.3170  -40.3540 C.ar  510  TRP510      0.0006
    112  CD1      -65.9840  -50.2610  -39.2850 C.ar  510  TRP510      0.0946
    113  CD2      -66.1470  -51.0900  -41.3420 C.ar  510  TRP510      0.0152
    114  NE1      -64.8270  -50.9470  -39.5460 N.ar  510  TRP510     -0.2442
    115  CE2      -64.9050  -51.4680  -40.8050 C.ar  510  TRP510      0.0810
    116  CE3      -66.4680  -51.4880  -42.6380 C.ar  510  TRP510      0.0012
    117  CZ2      -63.9860  -52.2250  -41.5150 C.ar  510  TRP510      0.0191
    118  CZ3      -65.5480  -52.2370  -43.3520 C.ar  510  TRP510      0.0001
    119  CH2      -64.3250  -52.6010  -42.7850 C.ar  510  TRP510      0.0015
    120  N        -69.1530  -50.8670  -37.9480 N.am  511  GLY511     -0.1940
    121  CA       -69.0450  -51.5240  -36.6310 C.3   511  GLY511      0.2014
    122  C        -67.6050  -51.6970  -36.1740 C.2   511  GLY511      0.2638
    123  O        -67.0210  -52.7820  -36.2830 O.2   511  GLY511     -0.2714
    124  N        -67.0700  -50.6660  -35.5610 N.am  512  TYR512     -0.1973
    125  CA       -65.7000  -50.6060  -35.0970 C.3   512  TYR512      0.1639
    126  C        -65.4150  -51.4570  -33.8880 C.2   512  TYR512      0.2290
    127  O        -64.2900  -51.6200  -33.4710 O.2   512  TYR512     -0.2864
    128  CB       -65.4130  -49.1700  -34.7030 C.3   512  TYR512      0.0560
    129  CG       -64.4810  -48.4140  -35.6020 C.ar  512  TYR512     -0.0198
    130  CD1      -63.3810  -49.0100  -36.1370 C.ar  512  TYR512     -0.0009
    131  CD2      -64.6940  -47.0880  -35.8830 C.ar  512  TYR512     -0.0009
    132  CE1      -62.5240  -48.3130  -36.9420 C.ar  512  TYR512      0.0417
    133  CE2      -63.8350  -46.3830  -36.6830 C.ar  512  TYR512      0.0417
    134  CZ       -62.7520  -47.0060  -37.2060 C.ar  512  TYR512      0.1957
    135  OH       -61.8860  -46.3230  -38.0030 O.3   512  TYR512     -0.2866
@<TRIPOS>BOND
     1    55    56    1
     2    57    56    1
     3    57    58    2
     4    56    59    1
     5    59    60    1
     6    59    61    1
     7   118   119   ar
     8   118   116   ar
     9    42    41    2
    10    62    63    1
    11   119   117   ar
    12   116   113   ar
    13   102   101    2
    14    41    40    1
    15    29    30    1
    16    23    22    2
    17    30    31    1
    18    30    33    1
    19    40    39    1
    20    40    43    1
    21    63    64    1
    22    63    66    1
    23    20    21    1
    24   117   115   ar
    25    39    31   am
    26   101   100    1
    27   101   106   am
    28    31    32    2
    29    68    67    2
    30    22    21    1
    31   113   115   ar
    32   113   111   ar
    33   100   103    1
    34   100    99    1
    35    38    37   ar
    36    38    36   ar
    37    37    35   ar
    38   103   104    1
    39    64    65    2
    40    21    24    1
    41    36    34   ar
    42    35    34   ar
    43    28    26   am
    44   115   114   ar
    45    34    33    1
    46    67    66    1
    47    67    69   am
    48    27    26    2
    49   104   105    1
    50   110   107    1
    51   110   111    1
    52   106   107    1
    53    93    92    2
    54   107   108    1
    55   111   112   ar
    56    26    25    1
    57    99    92   am
    58    99   105    1
    59    44    45    1
    60    92    91    1
    61   114   112   ar
    62    24    25    1
    63   109   108    2
    64   108   120   am
    65    19    17    1
    66    18    17    1
    67    17    14    1
    68    90    91    1
    69    91    94    1
    70    45    46    1
    71    45    48    1
    72   135   134    1
    73   120   121    1
    74    46    47    2
    75    16    15    2
    76    94    95    1
    77    14    15    1
    78    14    13    1
    79    48    49    1
    80    10    12    1
    81    10     9    1
    82    49    50    1
    83   134   132   ar
    84   134   133   ar
    85   132   130   ar
    86    11     9    1
    87    95    96    1
    88   133   131   ar
    89   121   122    1
    90    54    52    1
    91     9     6    1
    92   123   122    2
    93    52    51    2
    94    52    53    1
    95    51    50    1
    96   122   124   am
    97   130   129   ar
    98     6     7    1
    99     6     5    1
   100     8     7    2
   101   131   129   ar
   102   129   128    1
   103   124   125    1
   104    96    97   ar
   105    96    98   ar
   106     4     3    2
   107     5     3   am
   108   125   128    1
   109   125   126    1
   110     3     2    1
   111     2     1    1
   112   126   127    2
   113    89    88    1
   114    79    78    1
   115    88    87    1
   116    81    82    1
   117    80    78    1
   118    87    86    1
   119    78    77    2
   120    82    83    1
   121    82    85    1
   122    83    84    2
   123    86    85    1
   124    77    76    1
   125    76    75    1
   126    75    74    1
   127    74    71    1
   128    70    71    1
   129    73    72    2
   130    71    72    1
