@<TRIPOS>MOLECULE
tmp/5uwbA00.pdb
 206 193 0 0 0
SMALL
GASTEIGER

@<TRIPOS>ATOM
      1  N         17.5240  -11.1970    8.8940 N.3    34  TYR34      -0.1241
      2  CA        17.2320   -9.7790    9.0510 C.3    34  TYR34       0.1605
      3  C         18.0090   -9.1620   10.2110 C.2    34  TYR34       0.2264
      4  O         18.5480   -8.0610   10.0920 O.2    34  TYR34      -0.2867
      5  CB        15.7300   -9.5800    9.2580 C.3    34  TYR34       0.0534
      6  CG        15.2850   -8.1370    9.2540 C.ar   34  TYR34      -0.0201
      7  CD1       15.3100   -7.3870    8.0860 C.ar   34  TYR34      -0.0009
      8  CD2       14.8230   -7.5290   10.4130 C.ar   34  TYR34      -0.0009
      9  CE1       14.9010   -6.0680    8.0740 C.ar   34  TYR34       0.0417
     10  CE2       14.4070   -6.2110   10.4100 C.ar   34  TYR34       0.0417
     11  CZ        14.4460   -5.4870    9.2370 C.ar   34  TYR34       0.1957
     12  OH        14.0360   -4.1760    9.2260 O.3    34  TYR34      -0.2866
     13  N         21.7580   -8.8250    9.3410 N.3    37  LEU37      -0.1231
     14  CA        21.9330   -7.7490    8.3740 C.3    37  LEU37       0.1693
     15  C         21.8750   -6.3800    9.0520 C.2    37  LEU37       0.2592
     16  O         22.6970   -5.5090    8.7730 O.2    37  LEU37      -0.2718
     17  CB        20.8700   -7.8480    7.2800 C.3    37  LEU37       0.0284
     18  CG        21.0250   -9.0420    6.3340 C.3    37  LEU37       0.0019
     19  CD1       19.7330   -9.2950    5.5650 C.3    37  LEU37       0.0001
     20  CD2       22.1960   -8.8290    5.3830 C.3    37  LEU37       0.0001
     21  N         20.9020   -6.1930    9.9390 N.am   38  ASN38      -0.1974
     22  CA        20.7760   -4.9430   10.6850 C.3    38  ASN38       0.1688
     23  C         21.9290   -4.7540   11.6610 C.2    38  ASN38       0.2292
     24  O         22.4430   -3.6490   11.8310 O.2    38  ASN38      -0.2864
     25  CB        19.4470   -4.9000   11.4410 C.3    38  ASN38       0.1181
     26  CG        18.2890   -4.4940   10.5560 C.2    38  ASN38       0.2629
     27  OD1       18.0110   -3.3070   10.3830 O.2    38  ASN38      -0.2716
     28  ND2       17.6070   -5.4790    9.9860 N.am   38  ASN38      -0.0877
     29  N         25.2140   -4.1520    9.2080 N.3    41  LEU41      -0.1231
     30  CA        25.1740   -3.0090    8.3000 C.3    41  LEU41       0.1693
     31  C         24.6450   -1.7410    8.9650 C.2    41  LEU41       0.2592
     32  O         24.9590   -0.6320    8.5310 O.2    41  LEU41      -0.2718
     33  CB        24.3110   -3.3380    7.0810 C.3    41  LEU41       0.0284
     34  CG        24.7950   -4.4870    6.1980 C.3    41  LEU41       0.0019
     35  CD1       23.7150   -4.8710    5.2000 C.3    41  LEU41       0.0001
     36  CD2       26.0820   -4.1070    5.4780 C.3    41  LEU41       0.0001
     37  N         23.8410   -1.9080   10.0100 N.am   42  GLY42      -0.1957
     38  CA        23.1860   -0.7880   10.6660 C.3    42  GLY42       0.1869
     39  C         24.1240    0.3120   11.1200 C.2    42  GLY42       0.2309
     40  O         23.9250    1.4780   10.7780 O.2    42  GLY42      -0.2863
     41  N         25.4730    2.4570    8.0930 N.3    45  VAL45      -0.1245
     42  CA        24.5490    2.9260    7.0650 C.3    45  VAL45       0.1561
     43  C         23.6430    4.0130    7.6300 C.2    45  VAL45       0.2260
     44  O         23.0050    3.8280    8.6660 O.2    45  VAL45      -0.2867
     45  CB        23.6930    1.7650    6.4990 C.3    45  VAL45       0.0252
     46  CG1       22.5520    2.2910    5.6380 C.3    45  VAL45       0.0019
     47  CG2       24.5540    0.8150    5.6890 C.3    45  VAL45       0.0019
     48  N         20.5550    5.2640    7.5060 N.3    47  ALA47      -0.1245
     49  CA        19.2160    4.9050    7.0520 C.3    47  ALA47       0.1562
     50  C         18.3140    6.1290    6.9290 C.2    47  ALA47       0.2260
     51  O         17.4920    6.2130    6.0170 O.2    47  ALA47      -0.2867
     52  CB        18.5970    3.8920    7.9980 C.3    47  ALA47       0.0290
     53  N         19.2470    8.1690    3.8550 N.3    50  ILE50      -0.1231
     54  CA        18.8270    7.3910    2.6970 C.3    50  ILE50       0.1692
     55  C         17.3240    7.5290    2.4820 C.2    50  ILE50       0.2592
     56  O         16.8630    7.7220    1.3580 O.2    50  ILE50      -0.2718
     57  CB        19.2040    5.9010    2.8630 C.3    50  ILE50       0.0266
     58  CG1       20.7210    5.7340    2.7750 C.3    50  ILE50       0.0019
     59  CG2       18.5210    5.0330    1.8030 C.3    50  ILE50       0.0020
     60  CD1       21.2400    4.4500    3.3940 C.3    50  ILE50       0.0001
     61  N         16.5680    7.4390    3.5700 N.am   51  SER51      -0.1952
     62  CA        15.1170    7.5510    3.5070 C.3    51  SER51       0.1924
     63  C         14.6850    8.9440    3.0640 C.2    51  SER51       0.2314
     64  O         13.8140    9.0830    2.2070 O.2    51  SER51      -0.2863
     65  CB        14.5010    7.2170    4.8630 C.3    51  SER51       0.2116
     66  OG        14.8300    5.8950    5.2510 O.3    51  SER51      -0.2180
     67  N         11.1300    2.5180    6.8080 N.3    70  GLN70      -0.1245
     68  CA        12.4480    1.8960    6.8750 C.3    70  GLN70       0.1566
     69  C         12.3230    0.3950    7.0910 C.2    70  GLN70       0.2260
     70  O         13.0390   -0.3900    6.4700 O.2    70  GLN70      -0.2867
     71  CB        13.2890    2.5240    7.9840 C.3    70  GLN70       0.0367
     72  CG        13.5870    3.9980    7.7570 C.3    70  GLN70       0.0905
     73  CD        14.5860    4.5590    8.7510 C.2    70  GLN70       0.2608
     74  OE1       15.2490    3.8150    9.4740 O.2    70  GLN70      -0.2717
     75  NE2       14.6940    5.8820    8.7960 N.am   70  GLN70      -0.0878
     76  N         11.0500   -1.0480    3.7190 N.3    73  PHE73      -0.1227
     77  CA        12.1100   -0.9890    2.7170 C.3    73  PHE73       0.1736
     78  C         13.1510   -2.0890    2.9130 C.2    73  PHE73       0.2595
     79  O         13.3870   -2.8940    2.0120 O.2    73  PHE73      -0.2718
     80  CB        12.7900    0.3830    2.7550 C.3    73  PHE73       0.0547
     81  CG        13.7420    0.6350    1.6110 C.ar   73  PHE73      -0.0202
     82  CD1       13.7200   -0.1480    0.4670 C.ar   73  PHE73      -0.0042
     83  CD2       14.6580    1.6650    1.6860 C.ar   73  PHE73      -0.0042
     84  CE1       14.5930    0.0980   -0.5750 C.ar   73  PHE73      -0.0003
     85  CE2       15.5340    1.9110    0.6480 C.ar   73  PHE73      -0.0003
     86  CZ        15.4990    1.1270   -0.4830 C.ar   73  PHE73      -0.0000
     87  N         13.7730   -2.1040    4.0890 N.am   74  LYS74      -0.1980
     88  CA        14.8000   -3.0900    4.4180 C.3    74  LYS74       0.1596
     89  C         14.3210   -4.5250    4.2180 C.2    74  LYS74       0.2287
     90  O         14.9850   -5.3180    3.5510 O.2    74  LYS74      -0.2864
     91  CB        15.2750   -2.9040    5.8600 C.3    74  LYS74       0.0298
     92  CG        16.0010   -1.5890    6.1080 C.3    74  LYS74       0.0038
     93  CD        16.4540   -1.4570    7.5560 C.3    74  LYS74       0.0206
     94  CE        15.2960   -1.2260    8.5080 C.3    74  LYS74       0.1093
     95  NZ        15.7540   -1.2230    9.9230 N.3    74  LYS74      -0.1314
     96  N         14.1180   -5.3590    0.6680 N.3    77  LEU77      -0.1245
     97  CA        15.4220   -5.5270    0.0400 C.3    77  LEU77       0.1561
     98  C         15.9730   -6.9180    0.3090 C.2    77  LEU77       0.2260
     99  O         16.4660   -7.5810   -0.6020 O.2    77  LEU77      -0.2867
    100  CB        16.4050   -4.4660    0.5390 C.3    77  LEU77       0.0270
    101  CG        16.1590   -3.0500    0.0230 C.3    77  LEU77       0.0019
    102  CD1       16.9770   -2.0560    0.8120 C.3    77  LEU77       0.0001
    103  CD2       16.5070   -2.9590   -1.4560 C.3    77  LEU77       0.0001
    104  N         16.6910   -9.4220   -2.6590 N.3    80  TYR80      -0.1227
    105  CA        18.1270   -9.4420   -2.9330 C.3    80  TYR80       0.1736
    106  C         18.8970  -10.3310   -1.9550 C.2    80  TYR80       0.2596
    107  O         20.0560  -10.6640   -2.2000 O.2    80  TYR80      -0.2718
    108  CB        18.7160   -8.0310   -2.8740 C.3    80  TYR80       0.0548
    109  CG        18.2370   -7.0800   -3.9460 C.ar   80  TYR80      -0.0200
    110  CD1       18.6820   -7.2010   -5.2540 C.ar   80  TYR80      -0.0009
    111  CD2       17.3650   -6.0420   -3.6450 C.ar   80  TYR80      -0.0009
    112  CE1       18.2590   -6.3290   -6.2370 C.ar   80  TYR80       0.0417
    113  CE2       16.9370   -5.1620   -4.6210 C.ar   80  TYR80       0.0417
    114  CZ        17.3880   -5.3110   -5.9140 C.ar   80  TYR80       0.1957
    115  OH        16.9670   -4.4400   -6.8920 O.3    80  TYR80      -0.2866
    116  N         18.2590  -10.7070   -0.8500 N.am   81  GLY81      -0.1957
    117  CA        18.9190  -11.4860    0.1840 C.3    81  GLY81       0.1869
    118  C         19.3720  -12.8570   -0.2800 C.2    81  GLY81       0.2309
    119  O         20.4350  -13.3320    0.1160 O.2    81  GLY81      -0.2863
    120  N         20.3700  -13.7010   -3.1820 N.3    83  ALA83      -0.1231
    121  CA        21.5770  -13.5240   -3.9800 C.3    83  ALA83       0.1694
    122  C         22.8130  -13.4150   -3.0890 C.2    83  ALA83       0.2591
    123  O         23.9180  -13.7700   -3.5000 O.2    83  ALA83      -0.2718
    124  CB        21.4500  -12.2920   -4.8600 C.3    83  ALA83       0.0304
    125  N         22.6170  -12.9260   -1.8680 N.am   84  LEU84      -0.1980
    126  CA        23.7040  -12.8130   -0.8990 C.3    84  LEU84       0.1596
    127  C         24.0250  -14.1630   -0.2710 C.2    84  LEU84       0.2287
    128  O         25.1900  -14.5090   -0.0840 O.2    84  LEU84      -0.2864
    129  CB        23.3500  -11.8060    0.1990 C.3    84  LEU84       0.0297
    130  CG        24.0220  -10.4350    0.1200 C.3    84  LEU84       0.0022
    131  CD1       23.4430   -9.5140    1.1760 C.3    84  LEU84       0.0001
    132  CD2       25.5320  -10.5410    0.2770 C.3    84  LEU84       0.0001
    133  N         32.1320   -6.8050  -11.7720 N.3   118  TYR118     -0.1241
    134  CA        31.0650   -5.8140  -11.6510 C.3   118  TYR118      0.1605
    135  C         31.5110   -4.6380  -10.7790 C.2   118  TYR118      0.2264
    136  O         31.9250   -4.8390   -9.6370 O.2   118  TYR118     -0.2867
    137  CB        29.8100   -6.4590  -11.0650 C.3   118  TYR118      0.0534
    138  CG        29.2740   -7.5970  -11.9050 C.ar  118  TYR118     -0.0201
    139  CD1       28.3300   -7.3700  -12.8970 C.ar  118  TYR118     -0.0009
    140  CD2       29.7200   -8.8980  -11.7100 C.ar  118  TYR118     -0.0009
    141  CE1       27.8410   -8.4060  -13.6680 C.ar  118  TYR118      0.0417
    142  CE2       29.2370   -9.9400  -12.4770 C.ar  118  TYR118      0.0417
    143  CZ        28.2980   -9.6890  -13.4540 C.ar  118  TYR118      0.1957
    144  OH        27.8140  -10.7240  -14.2190 O.3   118  TYR118     -0.2866
    145  N         24.8320    4.1120   -3.0260 N.3   136  VAL136     -0.1245
    146  CA        25.6390    3.1310   -3.7460 C.3   136  VAL136      0.1561
    147  C         25.2540    3.0730   -5.2220 C.2   136  VAL136      0.2260
    148  O         24.0820    3.1940   -5.5780 O.2   136  VAL136     -0.2867
    149  CB        25.5050    1.7190   -3.1200 C.3   136  VAL136      0.0252
    150  CG1       24.0750    1.2010   -3.2290 C.3   136  VAL136      0.0019
    151  CG2       26.4800    0.7470   -3.7730 C.3   136  VAL136      0.0019
    152  N         25.6180    0.5880   -8.5660 N.3   138  VAL138     -0.1231
    153  CA        25.9010   -0.7800   -8.9950 C.3   138  VAL138      0.1692
    154  C         25.7330   -0.9120  -10.5070 C.2   138  VAL138      0.2592
    155  O         24.6500   -0.6750  -11.0380 O.2   138  VAL138     -0.2718
    156  CB        24.9780   -1.7980   -8.2920 C.3   138  VAL138      0.0266
    157  CG1       25.3520   -3.2220   -8.6850 C.3   138  VAL138      0.0020
    158  CG2       25.0460   -1.6300   -6.7790 C.3   138  VAL138      0.0020
    159  N         26.8070   -1.3000  -11.1900 N.am  139  ASN139     -0.1974
    160  CA        26.7990   -1.4170  -12.6460 C.3   139  ASN139      0.1688
    161  C         26.3350   -0.1220  -13.3070 C.2   139  ASN139      0.2292
    162  O         25.5520   -0.1420  -14.2580 O.2   139  ASN139     -0.2864
    163  CB        25.9100   -2.5840  -13.0900 C.3   139  ASN139      0.1181
    164  CG        26.4500   -3.9310  -12.6440 C.2   139  ASN139      0.2629
    165  OD1       27.6560   -4.1710  -12.6850 O.2   139  ASN139     -0.2716
    166  ND2       25.5570   -4.8180  -12.2160 N.am  139  ASN139     -0.0877
    167  N         24.3790    1.9440  -12.1600 N.3   141  ILE141     -0.1245
    168  CA        23.0080    2.2390  -11.7590 C.3   141  ILE141      0.1561
    169  C         22.9860    2.8540  -10.3670 C.2   141  ILE141      0.2260
    170  O         23.3150    2.1930   -9.3820 O.2   141  ILE141     -0.2867
    171  CB        22.1250    0.9710  -11.7580 C.3   141  ILE141      0.0252
    172  CG1       22.2410    0.2360  -13.0970 C.3   141  ILE141      0.0019
    173  CG2       20.6710    1.3350  -11.4550 C.3   141  ILE141      0.0019
    174  CD1       21.5600   -1.1220  -13.1220 C.3   141  ILE141      0.0001
    175  N         21.4800    3.5260   -7.2000 N.3   143  ILE143     -0.1245
    176  CA        20.3990    2.8780   -6.4690 C.3   143  ILE143      0.1561
    177  C         19.5410    3.9020   -5.7350 C.2   143  ILE143      0.2260
    178  O         18.3160    3.7890   -5.7140 O.2   143  ILE143     -0.2867
    179  CB        20.9340    1.8420   -5.4560 C.3   143  ILE143      0.0252
    180  CG1       21.8920    0.8550   -6.1320 C.3   143  ILE143      0.0019
    181  CG2       19.7850    1.0940   -4.8080 C.3   143  ILE143      0.0019
    182  CD1       21.2890    0.0710   -7.2840 C.3   143  ILE143      0.0001
    183  N         15.3760    4.2270   -6.3990 N.3   147  PHE147     -0.1241
    184  CA        14.2890    4.1660   -5.4330 C.3   147  PHE147      0.1605
    185  C         13.6490    5.5340   -5.2260 C.2   147  PHE147      0.2264
    186  O         12.4780    5.6270   -4.8610 O.2   147  PHE147     -0.2867
    187  CB        14.7970    3.6010   -4.1070 C.3   147  PHE147      0.0534
    188  CG        15.1110    2.1320   -4.1620 C.ar  147  PHE147     -0.0203
    189  CD1       14.1030    1.2040   -4.3600 C.ar  147  PHE147     -0.0042
    190  CD2       16.4100    1.6790   -4.0220 C.ar  147  PHE147     -0.0042
    191  CE1       14.3840   -0.1450   -4.4150 C.ar  147  PHE147     -0.0003
    192  CE2       16.6970    0.3280   -4.0750 C.ar  147  PHE147     -0.0003
    193  CZ        15.6820   -0.5840   -4.2730 C.ar  147  PHE147     -0.0000
    194  N         15.4970   -2.3190  -12.5970 N.3   179  ALA179     -0.1231
    195  CA        16.9560   -2.2590  -12.5810 C.3   179  ALA179      0.1694
    196  C         17.5760   -3.4260  -13.3440 C.2   179  ALA179      0.2592
    197  O         18.6090   -3.2720  -13.9970 O.2   179  ALA179     -0.2718
    198  CB        17.4640   -2.2400  -11.1470 C.3   179  ALA179      0.0304
    199  N         16.9440   -4.5930  -13.2540 N.am  180  ASP180     -0.1974
    200  CA        17.4570   -5.7980  -13.8980 C.3   180  ASP180      0.1709
    201  C         17.4090   -5.6880  -15.4220 C.2   180  ASP180      0.2293
    202  O         18.2990   -6.1850  -16.1130 O.2   180  ASP180     -0.2864
    203  CB        16.6640   -7.0240  -13.4370 C.3   180  ASP180      0.1436
    204  CG        16.9880   -7.4290  -12.0080 C.2   180  ASP180      0.3671
    205  OD1       17.5660   -6.6060  -11.2670 O.co2 180  ASP180     -0.2456
    206  OD2       16.6630   -8.5720  -11.6250 O.co2 180  ASP180     -0.2456
@<TRIPOS>BOND
     1   202   201    2
     2   201   200    1
     3   162   161    2
     4   144   143    1
     5   197   196    2
     6   200   203    1
     7   200   199    1
     8   141   143   ar
     9   141   139   ar
    10   143   142   ar
    11   203   204    1
    12   196   199   am
    13   196   195    1
    14   161   160    1
    15   174   172    1
    16   172   171    1
    17   163   160    1
    18   163   164    1
    19   139   138   ar
    20   165   164    2
    21   160   159    1
    22   164   166   am
    23   194   195    1
    24   195   198    1
    25   142   140   ar
    26   167   168    1
    27   204   206   ar
    28   204   205   ar
    29   138   140   ar
    30   138   137    1
    31   133   134    1
    32   168   171    1
    33   168   169    1
    34   171   173    1
    35   134   137    1
    36   134   135    1
    37   159   154   am
    38   155   154    2
    39   135   136    2
    40   154   153    1
    41   169   170    2
    42   153   152    1
    43   153   156    1
    44   157   156    1
    45   156   158    1
    46   182   180    1
    47   175   176    1
    48   115   114    1
    49   176   177    1
    50   176   179    1
    51   183   184    1
    52   112   114   ar
    53   112   110   ar
    54   180   179    1
    55   114   113   ar
    56   177   178    2
    57   148   147    2
    58   179   181    1
    59   184   185    1
    60   184   187    1
    61   110   109   ar
    62   185   186    2
    63   147   146    1
    64   124   121    1
    65   113   111   ar
    66   191   189   ar
    67   191   193   ar
    68   189   188   ar
    69   193   192   ar
    70   188   187    1
    71   188   190   ar
    72   192   190   ar
    73   121   120    1
    74   121   122    1
    75   109   111   ar
    76   109   108    1
    77   151   149    1
    78   146   149    1
    79   146   145    1
    80   123   122    2
    81   150   149    1
    82   122   125   am
    83   105   108    1
    84   105   104    1
    85   105   106    1
    86   107   106    2
    87   106   116   am
    88   125   126    1
    89   103   101    1
    90   126   127    1
    91   126   129    1
    92   116   117    1
    93    99    98    2
    94    84    86   ar
    95    84    82   ar
    96    86    85   ar
    97   118   119    2
    98   118   117    1
    99   127   128    2
   100   101   100    1
   101   101   102    1
   102    97    98    1
   103    97   100    1
   104    97    96    1
   105   130   129    1
   106   130   132    1
   107   130   131    1
   108    82    81   ar
   109    85    83   ar
   110    56    55    2
   111    81    83   ar
   112    81    80    1
   113    59    57    1
   114    79    78    2
   115    64    63    2
   116    55    54    1
   117    55    61   am
   118    54    57    1
   119    54    53    1
   120    77    80    1
   121    77    78    1
   122    77    76    1
   123    58    57    1
   124    58    60    1
   125    78    87   am
   126    63    62    1
   127    62    61    1
   128    62    65    1
   129    90    89    2
   130    87    88    1
   131    89    88    1
   132    88    91    1
   133    65    66    1
   134    35    34    1
   135    20    18    1
   136    36    34    1
   137    19    18    1
   138    46    45    1
   139    47    45    1
   140    91    92    1
   141    51    50    2
   142    92    93    1
   143    34    33    1
   144    18    17    1
   145    70    69    2
   146    45    42    1
   147    67    68    1
   148    68    69    1
   149    68    71    1
   150    50    49    1
   151    49    48    1
   152    49    52    1
   153    42    43    1
   154    42    41    1
   155    33    30    1
   156    17    14    1
   157    93    94    1
   158    43    44    2
   159    72    71    1
   160    72    73    1
   161     9     7   ar
   162     9    11   ar
   163     7     6   ar
   164    30    31    1
   165    30    29    1
   166    14    15    1
   167    14    13    1
   168    94    95    1
   169    32    31    2
   170    73    75   am
   171    73    74    2
   172    16    15    2
   173     1     2    1
   174    31    37   am
   175     2     5    1
   176     2     3    1
   177    15    21   am
   178    12    11    1
   179    11    10   ar
   180     6     5    1
   181     6     8   ar
   182    21    22    1
   183    28    26   am
   184    37    38    1
   185     4     3    2
   186    27    26    2
   187    10     8   ar
   188    26    25    1
   189    38    39    1
   190    22    25    1
   191    22    23    1
   192    40    39    2
   193    23    24    2
