@<TRIPOS>MOLECULE
tmp/5uwfA00.pdb
 171 165 0 0 0
SMALL
GASTEIGER

@<TRIPOS>ATOM
      1  N         64.3190  107.1300   30.9430 N.3    79  TYR79      -0.1227
      2  CA        63.0890  107.6740   30.3940 C.3    79  TYR79       0.1736
      3  C         63.2290  109.0890   29.8280 C.2    79  TYR79       0.2595
      4  O         62.7410  109.3470   28.7260 O.2    79  TYR79      -0.2718
      5  CB        61.9950  107.6500   31.4480 C.3    79  TYR79       0.0548
      6  CG        60.7380  108.2880   30.9570 C.ar   79  TYR79      -0.0200
      7  CD1       59.9420  107.6610   30.0130 C.ar   79  TYR79      -0.0009
      8  CD2       60.3630  109.5500   31.4080 C.ar   79  TYR79      -0.0009
      9  CE1       58.7900  108.2790   29.5390 C.ar   79  TYR79       0.0417
     10  CE2       59.2130  110.1490   30.9630 C.ar   79  TYR79       0.0417
     11  CZ        58.4340  109.5180   30.0360 C.ar   79  TYR79       0.1957
     12  OH        57.2920  110.1470   29.5910 O.3    79  TYR79      -0.2866
     13  N         63.8640  110.0130   30.5560 N.am   80  HIS80      -0.1975
     14  CA        63.9520  111.4150   30.0970 C.3    80  HIS80       0.1656
     15  C         65.1300  111.5680   29.1380 C.2    80  HIS80       0.2291
     16  O         66.1250  112.2490   29.4050 O.2    80  HIS80      -0.2864
     17  CB        64.0710  112.3720   31.2690 C.3    80  HIS80       0.0771
     18  CG        62.8010  112.5290   32.0370 C.ar   80  HIS80       0.0820
     19  ND1       62.6410  112.0430   33.3140 N.ar   80  HIS80      -0.2267
     20  CD2       61.6230  113.1020   31.6990 C.ar   80  HIS80       0.1154
     21  CE1       61.4160  112.3130   33.7340 C.ar   80  HIS80       0.1986
     22  NE2       60.7800  112.9600   32.7730 N.ar   80  HIS80      -0.2212
     23  N         54.8890  119.2370   36.0460 N.3   190  LEU190     -0.1245
     24  CA        53.5610  118.7260   36.3320 C.3   190  LEU190      0.1561
     25  C         52.9750  119.3190   37.6050 C.2   190  LEU190      0.2260
     26  O         51.7440  119.3550   37.7530 O.2   190  LEU190     -0.2867
     27  CB        53.6000  117.1970   36.4270 C.3   190  LEU190      0.0270
     28  CG        52.2430  116.5010   36.4220 C.3   190  LEU190      0.0019
     29  CD1       51.4720  116.7610   35.1100 C.3   190  LEU190      0.0001
     30  CD2       52.4260  114.9990   36.6930 C.3   190  LEU190      0.0001
     31  N         53.5700  115.7840   26.9930 N.3   229  ASP229     -0.1225
     32  CA        54.5360  115.1670   27.9050 C.3   229  ASP229      0.1805
     33  C         54.0170  113.8360   28.4500 C.2   229  ASP229      0.2597
     34  O         54.7950  112.8970   28.6460 O.2   229  ASP229     -0.2718
     35  CB        54.8320  116.1400   29.0500 C.3   229  ASP229      0.1424
     36  CG        56.1560  115.8930   29.7480 C.2   229  ASP229      0.3668
     37  OD1       57.1090  115.2730   29.1790 O.co2 229  ASP229     -0.2456
     38  OD2       56.2420  116.3810   30.9030 O.co2 229  ASP229     -0.2456
     39  N         52.7100  113.7220   28.6780 N.am  230  LEU230     -0.1979
     40  CA        52.1410  112.4950   29.2240 C.3   230  LEU230      0.1596
     41  C         51.7350  111.4750   28.1600 C.2   230  LEU230      0.2287
     42  O         51.1510  110.4520   28.5190 O.2   230  LEU230     -0.2864
     43  CB        50.9120  112.8120   30.0780 C.3   230  LEU230      0.0297
     44  CG        51.0420  113.7910   31.2540 C.3   230  LEU230      0.0022
     45  CD1       49.7350  113.8780   32.0060 C.3   230  LEU230      0.0001
     46  CD2       52.1730  113.3850   32.1670 C.3   230  LEU230      0.0001
     47  N         52.4780  108.9290   26.5630 N.3   232  SER232     -0.1202
     48  CA        52.6380  107.4750   26.5240 C.3   232  SER232      0.2020
     49  C         51.3440  106.7640   26.8980 C.2   232  SER232      0.2618
     50  O         51.1190  105.6190   26.4760 O.2   232  SER232     -0.2717
     51  CB        53.7600  107.0270   27.4520 C.3   232  SER232      0.2103
     52  OG        53.3790  107.1600   28.8160 O.3   232  SER232     -0.2182
     53  N         50.4850  107.4220   27.6850 N.am  233  VAL233     -0.1979
     54  CA        49.1940  106.8710   28.0990 C.3   233  VAL233      0.1595
     55  C         48.1620  106.9470   26.9800 C.2   233  VAL233      0.2287
     56  O         47.0110  106.5200   27.1610 O.2   233  VAL233     -0.2864
     57  CB        48.6550  107.5970   29.3490 C.3   233  VAL233      0.0276
     58  CG1       49.6990  107.5980   30.4380 C.3   233  VAL233      0.0022
     59  CG2       48.2260  109.0150   28.9790 C.3   233  VAL233      0.0022
     60  N         52.3790  101.5910   25.5490 N.3   240  THR240     -0.1218
     61  CA        52.1830  102.1660   26.8830 C.3   240  THR240      0.1862
     62  C         52.8340  101.3270   27.9840 C.2   240  THR240      0.2287
     63  O         53.4020  101.8770   28.9390 O.2   240  THR240     -0.2866
     64  CB        50.6910  102.3070   27.1660 C.3   240  THR240      0.1770
     65  OG1       50.0980  103.1020   26.1390 O.3   240  THR240     -0.2211
     66  CG2       50.4350  102.9680   28.5220 C.3   240  THR240      0.0375
     67  N         56.0290  102.4480   30.3120 N.3   244  ALA244     -0.1245
     68  CA        55.9080  102.4310   31.7700 C.3   244  ALA244      0.1562
     69  C         57.1500  101.8300   32.4130 C.2   244  ALA244      0.2260
     70  O         57.6010  102.2980   33.4700 O.2   244  ALA244     -0.2867
     71  CB        54.6520  101.6680   32.1930 C.3   244  ALA244      0.0290
     72  N         59.7020  104.5200   32.5860 N.3   247  ILE247     -0.1231
     73  CA        59.3210  105.4960   33.6100 C.3   247  ILE247      0.1692
     74  C         59.6820  104.9790   34.9950 C.2   247  ILE247      0.2592
     75  O         60.2850  105.6890   35.8130 O.2   247  ILE247     -0.2718
     76  CB        57.8200  105.8150   33.5090 C.3   247  ILE247      0.0266
     77  CG1       57.5220  106.5830   32.2250 C.3   247  ILE247      0.0019
     78  CG2       57.3530  106.6710   34.6770 C.3   247  ILE247      0.0020
     79  CD1       56.0590  106.9060   32.0330 C.3   247  ILE247      0.0001
     80  N         59.3160  103.7320   35.2870 N.am  248  TYR248     -0.1976
     81  CA        59.5670  103.2090   36.6260 C.3   248  TYR248      0.1639
     82  C         61.0180  102.8030   36.8290 C.2   248  TYR248      0.2290
     83  O         61.4960  102.8370   37.9660 O.2   248  TYR248     -0.2864
     84  CB        58.5950  102.0590   36.9380 C.3   248  TYR248      0.0560
     85  CG        57.2750  102.6530   37.3560 C.ar  248  TYR248     -0.0198
     86  CD1       57.0800  103.1120   38.6590 C.ar  248  TYR248     -0.0009
     87  CD2       56.2550  102.8440   36.4370 C.ar  248  TYR248     -0.0009
     88  CE1       55.8850  103.7020   39.0310 C.ar  248  TYR248      0.0417
     89  CE2       55.0630  103.4410   36.7990 C.ar  248  TYR248      0.0417
     90  CZ        54.8790  103.8690   38.0980 C.ar  248  TYR248      0.1957
     91  OH        53.6830  104.4590   38.4550 O.3   248  TYR248     -0.2866
     92  N         63.3440  104.7860   35.9080 N.3   250  GLU250     -0.1231
     93  CA        63.9090  106.0450   36.3760 C.3   250  GLU250      0.1699
     94  C         63.4440  106.3610   37.7960 C.2   250  GLU250      0.2592
     95  O         64.2530  106.7450   38.6470 O.2   250  GLU250     -0.2718
     96  CB        63.5610  107.1850   35.4110 C.3   250  GLU250      0.0402
     97  CG        64.4530  108.3890   35.5920 C.3   250  GLU250      0.1161
     98  CD        64.3710  109.3920   34.4390 C.2   250  GLU250      0.3649
     99  OE1       64.6490  108.9940   33.2860 O.co2 250  GLU250     -0.2457
    100  OE2       64.0520  110.5780   34.6950 O.co2 250  GLU250     -0.2457
    101  N         62.1430  106.2070   38.0680 N.am  251  PHE251     -0.1976
    102  CA        61.6240  106.3980   39.4250 C.3   251  PHE251      0.1639
    103  C         62.3830  105.5510   40.4400 C.2   251  PHE251      0.2290
    104  O         62.8700  106.0590   41.4570 O.2   251  PHE251     -0.2864
    105  CB        60.1300  106.0580   39.4710 C.3   251  PHE251      0.0560
    106  CG        59.2340  107.1380   38.9290 C.ar  251  PHE251     -0.0200
    107  CD1       59.6110  108.4710   38.9920 C.ar  251  PHE251     -0.0042
    108  CD2       58.0020  106.8190   38.3760 C.ar  251  PHE251     -0.0042
    109  CE1       58.7780  109.4720   38.5000 C.ar  251  PHE251     -0.0003
    110  CE2       57.1620  107.8120   37.8770 C.ar  251  PHE251     -0.0003
    111  CZ        57.5560  109.1400   37.9390 C.ar  251  PHE251     -0.0000
    112  N         58.8310  107.1470   48.5230 N.3   266  ILE266     -0.1245
    113  CA        57.4200  106.8170   48.3880 C.3   266  ILE266      0.1561
    114  C         57.3510  105.4640   47.6920 C.2   266  ILE266      0.2260
    115  O         58.3140  105.0660   47.0160 O.2   266  ILE266     -0.2867
    116  CB        56.6560  107.9060   47.6230 C.3   266  ILE266      0.0252
    117  CG1       57.2120  108.0720   46.2170 C.3   266  ILE266      0.0019
    118  CG2       56.7410  109.2360   48.3690 C.3   266  ILE266      0.0019
    119  CD1       56.4340  109.0760   45.4160 C.3   266  ILE266      0.0001
    120  N         55.9790  104.3900   45.0090 N.3   268  MET268     -0.1230
    121  CA        56.1060  104.3820   43.5530 C.3   268  MET268      0.1702
    122  C         57.5440  104.5660   43.0890 C.2   268  MET268      0.2592
    123  O         57.8400  104.3150   41.9180 O.2   268  MET268     -0.2718
    124  CB        55.2170  105.4680   42.9240 C.3   268  MET268      0.0401
    125  CG        53.6970  105.2510   43.0680 C.3   268  MET268      0.0596
    126  SD        53.0210  103.7540   42.2860 S.3   268  MET268     -0.1393
    127  CE        53.0280  102.6180   43.6620 C.3   268  MET268      0.0692
    128  N         58.4370  105.0110   43.9630 N.am  269  MET269     -0.1979
    129  CA        59.8590  105.0730   43.6660 C.3   269  MET269      0.1605
    130  C         60.6450  103.9530   44.3410 C.2   269  MET269      0.2287
    131  O         61.8770  103.9330   44.2520 O.2   269  MET269     -0.2864
    132  CB        60.4170  106.4290   44.0940 C.3   269  MET269      0.0413
    133  CG        59.8600  107.6070   43.2970 C.3   269  MET269      0.0598
    134  SD        60.7330  109.0860   43.8310 S.3   269  MET269     -0.1393
    135  CE        60.0950  110.3200   42.6890 C.3   269  MET269      0.0692
    136  N         48.8630  102.4400   41.5500 N.3   280  GLY280     -0.1210
    137  CA        49.3330  103.8030   41.3540 C.3   280  GLY280      0.1956
    138  C         49.0930  104.2920   39.9420 C.2   280  GLY280      0.2611
    139  O         48.8450  105.4790   39.7290 O.2   280  GLY280     -0.2717
    140  N         49.1540  103.3880   38.9600 N.am  281  GLN281     -0.1979
    141  CA        48.7960  103.7640   37.5940 C.3   281  GLN281      0.1601
    142  C         47.3290  104.1420   37.5060 C.2   281  GLN281      0.2287
    143  O         46.9710  105.1270   36.8540 O.2   281  GLN281     -0.2864
    144  CB        49.1130  102.6180   36.6280 C.3   281  GLN281      0.0394
    145  CG        50.5600  102.5870   36.1970 C.3   281  GLN281      0.0908
    146  CD        50.9350  103.8250   35.3800 C.2   281  GLN281      0.2608
    147  OE1       50.4840  103.9820   34.2490 O.2   281  GLN281     -0.2717
    148  NE2       51.7450  104.7150   35.9630 N.am  281  GLN281     -0.0878
    149  N         46.9480  107.5280   38.9200 N.3   284  PHE284     -0.1227
    150  CA        47.4930  108.5470   38.0410 C.3   284  PHE284      0.1736
    151  C         46.5760  108.8040   36.8520 C.2   284  PHE284      0.2595
    152  O         46.3720  109.9630   36.4590 O.2   284  PHE284     -0.2718
    153  CB        48.8840  108.1510   37.5750 C.3   284  PHE284      0.0547
    154  CG        49.4940  109.1440   36.6510 C.ar  284  PHE284     -0.0202
    155  CD1       49.9780  110.3470   37.1440 C.ar  284  PHE284     -0.0042
    156  CD2       49.5450  108.9030   35.2830 C.ar  284  PHE284     -0.0042
    157  CE1       50.5270  111.2790   36.2950 C.ar  284  PHE284     -0.0003
    158  CE2       50.0850  109.8430   34.4240 C.ar  284  PHE284     -0.0003
    159  CZ        50.5770  111.0380   34.9330 C.ar  284  PHE284     -0.0000
    160  N         46.0130  107.7450   36.2580 N.am  285  TYR285     -0.1976
    161  CA        45.0670  107.9620   35.1710 C.3   285  TYR285      0.1639
    162  C         43.8400  108.7150   35.6630 C.2   285  TYR285      0.2290
    163  O         43.3520  109.6320   34.9880 O.2   285  TYR285     -0.2864
    164  CB        44.6620  106.6400   34.5300 C.3   285  TYR285      0.0560
    165  CG        45.6460  106.1190   33.5020 C.ar  285  TYR285     -0.0198
    166  CD1       46.8960  105.6530   33.8810 C.ar  285  TYR285     -0.0009
    167  CD2       45.3240  106.0980   32.1440 C.ar  285  TYR285     -0.0009
    168  CE1       47.7940  105.1690   32.9410 C.ar  285  TYR285      0.0417
    169  CE2       46.2190  105.6150   31.2040 C.ar  285  TYR285      0.0417
    170  CZ        47.4490  105.1460   31.6080 C.ar  285  TYR285      0.1957
    171  OH        48.3440  104.6570   30.6770 O.3   285  TYR285     -0.2866
@<TRIPOS>BOND
     1    60    61    1
     2    65    64    1
     3    50    49    2
     4    48    47    1
     5    48    49    1
     6    48    51    1
     7    61    64    1
     8    61    62    1
     9    49    53   am
    10    55    56    2
    11    55    54    1
    12    31    32    1
    13    64    66    1
    14    51    52    1
    15    53    54    1
    16    32    33    1
    17    32    35    1
    18    62    63    2
    19    54    57    1
    20    41    42    2
    21    41    40    1
    22    33    34    2
    23    33    39   am
    24    39    40    1
    25     4     3    2
    26    59    57    1
    27    35    36    1
    28    15    16    2
    29    15    14    1
    30    37    36   ar
    31    40    43    1
    32    57    58    1
    33     9     7   ar
    34     9    11   ar
    35    12    11    1
    36    36    38   ar
    37     3     2    1
    38     3    13   am
    39     7     6   ar
    40    11    10   ar
    41    43    44    1
    42    14    13    1
    43    14    17    1
    44    67    68    1
    45     2     1    1
    46     2     5    1
    47   171   170    1
    48     6     8   ar
    49     6     5    1
    50    10     8   ar
    51   169   170   ar
    52   169   167   ar
    53    44    45    1
    54    44    46    1
    55    17    18    1
    56   170   168   ar
    57    20    18   ar
    58    20    22   ar
    59    68    71    1
    60    68    69    1
    61    79    77    1
    62    18    19   ar
    63   167   165   ar
    64    77    76    1
    65    69    70    2
    66    72    73    1
    67    22    21   ar
    68   168   166   ar
    69    99    98   ar
    70    19    21   ar
    71   165   166   ar
    72   165   164    1
    73    76    73    1
    74    76    78    1
    75    73    74    1
    76   147   146    2
    77   158   159   ar
    78   158   156   ar
    79    98   100   ar
    80    98    97    1
    81   164   161    1
    82   159   157   ar
    83   163   162    2
    84    74    80   am
    85    74    75    2
    86    29    28    1
    87   161   162    1
    88   161   160    1
    89   156   154   ar
    90    80    81    1
    91   146   148   am
    92   146   145    1
    93    96    97    1
    94    96    93    1
    95    92    93    1
    96    23    24    1
    97   145   144    1
    98   160   151   am
    99   157   155   ar
   100    24    27    1
   101    24    25    1
   102    93    94    1
   103    28    27    1
   104    28    30    1
   105    87    89   ar
   106    87    85   ar
   107   152   151    2
   108    81    82    1
   109    81    84    1
   110   144   141    1
   111   154   155   ar
   112   154   153    1
   113    89    90   ar
   114    82    83    2
   115   151   150    1
   116   143   142    2
   117    84    85    1
   118    85    86   ar
   119   142   141    1
   120   153   150    1
   121   141   140    1
   122    25    26    2
   123    94   101   am
   124    94    95    2
   125   110   111   ar
   126   110   108   ar
   127   111   109   ar
   128   150   149    1
   129   101   102    1
   130    90    91    1
   131    90    88   ar
   132   108   106   ar
   133   109   107   ar
   134    86    88   ar
   135   106   107   ar
   136   106   105    1
   137   140   138   am
   138   102   105    1
   139   102   103    1
   140   139   138    2
   141   138   137    1
   142   103   104    2
   143   137   136    1
   144   123   122    2
   145   126   125    1
   146   126   127    1
   147   135   134    1
   148   124   125    1
   149   124   121    1
   150   122   121    1
   151   122   128   am
   152   133   134    1
   153   133   132    1
   154   121   120    1
   155   129   128    1
   156   129   132    1
   157   129   130    1
   158   131   130    2
   159   119   117    1
   160   117   116    1
   161   115   114    2
   162   116   118    1
   163   116   113    1
   164   114   113    1
   165   113   112    1
