@<TRIPOS>MOLECULE
tmp/5uwkB00.pdb
 205 206 0 0 0
SMALL
GASTEIGER

@<TRIPOS>ATOM
      1  N         19.0670   -8.5740   -4.7400 N.3    77  GLY77      -0.1210
      2  CA        18.2780   -8.2270   -3.5730 C.3    77  GLY77       0.1956
      3  C         16.8780   -7.7250   -4.0440 C.2    77  GLY77       0.2612
      4  O         16.2370   -8.4380   -4.8090 O.2    77  GLY77      -0.2717
      5  N         16.4020   -6.5340   -3.6420 N.am   78  LEU78      -0.1965
      6  CA        15.0520   -6.0640   -4.1040 C.3    78  LEU78       0.1728
      7  C         14.9500   -5.9550   -5.6400 C.2    78  LEU78       0.2616
      8  O         15.8900   -5.5710   -6.3090 O.2    78  LEU78      -0.2715
      9  CB        14.5950   -4.7020   -3.4780 C.3    78  LEU78       0.0311
     10  CG        14.5490   -4.7130   -1.9340 C.3    78  LEU78       0.0022
     11  CD1       14.4220   -3.3170   -1.3220 C.3    78  LEU78       0.0001
     12  CD2       13.4450   -5.6360   -1.4030 C.3    78  LEU78       0.0001
     13  N         13.7710   -6.2890   -6.1520 N.am   79  LEU79      -0.1963
     14  CA        13.4030   -6.1790   -7.5620 C.3    79  LEU79       0.1728
     15  C         12.3220   -5.1440   -7.8320 C.2    79  LEU79       0.2616
     16  O         12.3940   -4.4140   -8.8210 O.2    79  LEU79      -0.2715
     17  CB        12.8890   -7.5350   -8.0570 C.3    79  LEU79       0.0311
     18  CG        13.4920   -8.7480   -7.3700 C.3    79  LEU79       0.0022
     19  CD1       12.7570   -9.9640   -7.8170 C.3    79  LEU79       0.0001
     20  CD2       14.9460   -8.7890   -7.7650 C.3    79  LEU79       0.0001
     21  N         11.3060   -5.0700   -6.9860 N.am   80  ALA80      -0.1963
     22  CA        10.1340   -4.2600   -7.2630 C.3    80  ALA80       0.1728
     23  C          9.2490   -4.3080   -6.0310 C.2    80  ALA80       0.2616
     24  O          9.3600   -5.2270   -5.2210 O.2    80  ALA80      -0.2715
     25  CB         9.3500   -4.7820   -8.4680 C.3    80  ALA80       0.0334
     26  N          8.3490   -3.3310   -5.9160 N.am   81  HIS81      -0.1959
     27  CA         7.3470   -3.3610   -4.8560 C.3    81  HIS81       0.1787
     28  C          6.1310   -2.5480   -5.2770 C.2    81  HIS81       0.2620
     29  O          6.1980   -1.7080   -6.1760 O.2    81  HIS81      -0.2715
     30  CB         7.9150   -2.8800   -3.5080 C.3    81  HIS81       0.0785
     31  CG         8.4880   -1.4960   -3.5210 C.ar   81  HIS81       0.0821
     32  ND1        9.5790   -1.1460   -2.7570 N.ar   81  HIS81      -0.2267
     33  CD2        8.0800   -0.3580   -4.1320 C.ar   81  HIS81       0.1154
     34  CE1        9.8390    0.1390   -2.9310 C.ar   81  HIS81       0.1986
     35  NE2        8.9370    0.6400   -3.7520 N.ar   81  HIS81      -0.2212
     36  N          4.9990   -2.8350   -4.6300 N.am   82  ALA82      -0.1977
     37  CA         3.7440   -2.1830   -4.9670 C.3    82  ALA82       0.1597
     38  C          2.9160   -2.0050   -3.7020 C.2    82  ALA82       0.2287
     39  O          2.8610   -2.8980   -2.8400 O.2    82  ALA82      -0.2864
     40  CB         2.9440   -2.9820   -5.9960 C.3    82  ALA82       0.0319
     41  N          6.1690  -11.2930  -15.6820 N.3   112  LEU112     -0.1231
     42  CA         5.9210  -12.1090  -14.4940 C.3   112  LEU112      0.1693
     43  C          5.9940  -11.2730  -13.2280 C.2   112  LEU112      0.2591
     44  O          5.1450  -11.3960  -12.3400 O.2   112  LEU112     -0.2718
     45  CB         6.9290  -13.2560  -14.4180 C.3   112  LEU112      0.0284
     46  CG         6.6830  -14.3870  -15.3810 C.3   112  LEU112      0.0019
     47  CD1        7.8680  -15.2970  -15.2650 C.3   112  LEU112      0.0001
     48  CD2        5.3950  -15.1020  -15.0220 C.3   112  LEU112      0.0001
     49  N          7.0090  -10.4070  -13.1300 N.am  113  VAL113     -0.1980
     50  CA         7.1470   -9.5690  -11.9500 C.3   113  VAL113      0.1595
     51  C          6.0030   -8.5770  -11.8710 C.2   113  VAL113      0.2287
     52  O          5.4180   -8.3800  -10.8030 O.2   113  VAL113     -0.2864
     53  CB         8.5100   -8.8560  -11.9330 C.3   113  VAL113      0.0276
     54  CG1        8.5950   -7.9290  -10.7280 C.3   113  VAL113      0.0022
     55  CG2        9.6290   -9.9010  -11.9090 C.3   113  VAL113      0.0022
     56  N          2.7730  -10.2380  -10.6700 N.3   116  HIS116     -0.1226
     57  CA         2.8500  -10.4090   -9.2260 C.3   116  HIS116      0.1752
     58  C          2.6160   -9.0830   -8.5070 C.2   116  HIS116      0.2595
     59  O          1.8340   -9.0120   -7.5520 O.2   116  HIS116     -0.2718
     60  CB         4.2280  -11.0030   -8.8720 C.3   116  HIS116      0.0759
     61  CG         4.5130  -11.1330   -7.4050 C.ar  116  HIS116      0.0818
     62  ND1        4.4120  -12.3320   -6.7230 N.ar  116  HIS116     -0.2268
     63  CD2        4.9330  -10.2190   -6.4950 C.ar  116  HIS116      0.1154
     64  CE1        4.7390  -12.1430   -5.4560 C.ar  116  HIS116      0.1986
     65  NE2        5.0540  -10.8690   -5.2920 N.ar  116  HIS116     -0.2212
     66  N          3.3210   -8.0230   -8.9290 N.am  117  GLU117     -0.1979
     67  CA         3.2020   -6.7440   -8.2370 C.3   117  GLU117      0.1602
     68  C          1.7880   -6.1900   -8.3490 C.2   117  GLU117      0.2287
     69  O          1.2760   -5.6060   -7.3870 O.2   117  GLU117     -0.2864
     70  CB         4.2240   -5.7260   -8.7760 C.3   117  GLU117      0.0415
     71  CG         5.6970   -6.0590   -8.4420 C.3   117  GLU117      0.1163
     72  CD         5.9570   -6.2530   -6.9380 C.2   117  GLU117      0.3649
     73  OE1        5.3020   -5.5990   -6.1070 O.co2 117  GLU117     -0.2457
     74  OE2        6.8130   -7.1050   -6.5780 O.co2 117  GLU117     -0.2457
     75  N         -0.3720   -7.4660   -5.6590 N.3   120  HIS120     -0.1241
     76  CA        -0.2970   -6.6390   -4.4600 C.3   120  HIS120      0.1621
     77  C         -1.0910   -5.3500   -4.6250 C.2   120  HIS120      0.2264
     78  O         -1.7870   -4.9220   -3.6870 O.2   120  HIS120     -0.2867
     79  CB         1.1530   -6.2940   -4.1150 C.3   120  HIS120      0.0745
     80  CG         2.0070   -7.4490   -3.6690 C.ar  120  HIS120      0.0817
     81  ND1        1.6380   -8.3370   -2.6850 N.ar  120  HIS120     -0.2268
     82  CD2        3.2620   -7.8020   -4.0360 C.ar  120  HIS120      0.1154
     83  CE1        2.6180   -9.2070   -2.4850 C.ar  120  HIS120      0.1986
     84  NE2        3.6170   -8.9010   -3.2910 N.ar  120  HIS120     -0.2212
     85  N          0.8660  -12.8500   -0.0810 N.3   126  HIS126     -0.1241
     86  CA         1.6120  -13.9420   -0.6790 C.3   126  HIS126      0.1621
     87  C          0.9090  -15.2890   -0.4560 C.2   126  HIS126      0.2264
     88  O          0.0800  -15.4630    0.4510 O.2   126  HIS126     -0.2867
     89  CB         3.0390  -13.9580   -0.1330 C.3   126  HIS126      0.0745
     90  CG         3.9230  -12.9120   -0.7380 C.ar  126  HIS126      0.0817
     91  ND1        4.9140  -12.2710   -0.0290 N.ar  126  HIS126     -0.2268
     92  CD2        3.9570  -12.3870   -1.9850 C.ar  126  HIS126      0.1154
     93  CE1        5.5300  -11.4050   -0.8190 C.ar  126  HIS126      0.1986
     94  NE2        4.9620  -11.4530   -2.0090 N.ar  126  HIS126     -0.2212
     95  N          3.5960  -23.0850   -6.6920 N.3   131  GLY131     -0.1210
     96  CA         3.2260  -22.8620   -8.0750 C.3   131  GLY131      0.1956
     97  C          2.4360  -21.5930   -8.3450 C.2   131  GLY131      0.2612
     98  O          2.1280  -21.2910   -9.5090 O.2   131  GLY131     -0.2717
     99  N          2.1110  -20.8340   -7.3030 N.am  132  ALA132     -0.1965
    100  CA         1.2810  -19.6430   -7.4350 C.3   132  ALA132      0.1728
    101  C          2.0780  -18.4420   -7.9410 C.2   132  ALA132      0.2616
    102  O          3.2530  -18.2630   -7.6150 O.2   132  ALA132     -0.2715
    103  CB         0.6480  -19.2910   -6.0950 C.3   132  ALA132      0.0334
    104  N          1.3990  -17.5960   -8.7210 N.am  133  LEU133     -0.1977
    105  CA         1.9650  -16.3050   -9.1120 C.3   133  LEU133      0.1596
    106  C          2.3810  -15.4800   -7.8910 C.2   133  LEU133      0.2287
    107  O          3.4130  -14.7880   -7.9190 O.2   133  LEU133     -0.2864
    108  CB         0.9450  -15.5350   -9.9550 C.3   133  LEU133      0.0297
    109  CG         1.3870  -14.1760  -10.4870 C.3   133  LEU133      0.0022
    110  CD1        2.5390  -14.3370  -11.4430 C.3   133  LEU133      0.0001
    111  CD2        0.2510  -13.4780  -11.1860 C.3   133  LEU133      0.0001
    112  N          3.4510  -16.5320   -4.9620 N.3   135  PHE135     -0.1228
    113  CA         4.5000  -17.0970   -4.1250 C.3   135  PHE135      0.1721
    114  C          5.5860  -16.0390   -3.9010 C.2   135  PHE135      0.2437
    115  O          5.8370  -15.2060   -4.7750 O.2   135  PHE135     -0.2733
    116  CB         5.0700  -18.3360   -4.8060 C.3   135  PHE135      0.0547
    117  CG         5.9090  -19.2220   -3.9110 C.ar  135  PHE135     -0.0202
    118  CD1        5.3550  -19.8600   -2.7990 C.ar  135  PHE135     -0.0042
    119  CD2        7.2380  -19.4710   -4.2210 C.ar  135  PHE135     -0.0042
    120  CE1        6.1250  -20.6940   -1.9960 C.ar  135  PHE135     -0.0003
    121  CE2        8.0090  -20.3020   -3.4270 C.ar  135  PHE135     -0.0003
    122  CZ         7.4550  -20.9150   -2.3150 C.ar  135  PHE135     -0.0000
    123  N          6.2260  -16.0240   -2.7270 N.am  136  PRO136     -0.2718
    124  CA         7.1570  -14.9210   -2.4240 C.3   136  PRO136      0.1535
    125  C          8.4500  -14.9460   -3.2280 C.2   136  PRO136      0.2598
    126  O          9.1380  -13.9150   -3.2800 O.2   136  PRO136     -0.2715
    127  CB         7.4440  -15.1060   -0.9260 C.3   136  PRO136      0.0310
    128  CG         6.3490  -15.9050   -0.4060 C.3   136  PRO136      0.0237
    129  CD         5.9240  -16.8140   -1.5190 C.3   136  PRO136      0.0939
    130  N          8.8110  -16.0700   -3.8450 N.am  137  ILE137     -0.1964
    131  CA        10.1050  -16.2340   -4.5010 C.3   137  ILE137      0.1727
    132  C          9.8990  -16.2490   -6.0110 C.2   137  ILE137      0.2616
    133  O          9.0330  -16.9710   -6.5210 O.2   137  ILE137     -0.2715
    134  CB        10.8140  -17.5230   -4.0380 C.3   137  ILE137      0.0290
    135  CG1       10.8140  -17.6640   -2.5130 C.3   137  ILE137      0.0022
    136  CG2       12.2390  -17.5540   -4.5440 C.3   137  ILE137      0.0023
    137  CD1       11.4270  -16.5110   -1.7580 C.3   137  ILE137      0.0001
    138  N         10.7160  -15.4710   -6.7260 N.am  138  TYR138     -0.1960
    139  CA        10.6700  -15.4180   -8.1840 C.3   138  TYR138      0.1771
    140  C         11.3000  -16.6580   -8.8000 C.2   138  TYR138      0.2620
    141  O         12.3940  -17.0730   -8.4130 O.2   138  TYR138     -0.2715
    142  CB        11.4110  -14.1830   -8.6980 C.3   138  TYR138      0.0574
    143  CG        11.5560  -14.1420  -10.1950 C.ar  138  TYR138     -0.0198
    144  CD1       10.5760  -13.5630  -10.9790 C.ar  138  TYR138     -0.0009
    145  CD2       12.6770  -14.6670  -10.8280 C.ar  138  TYR138     -0.0009
    146  CE1       10.6910  -13.5150  -12.3460 C.ar  138  TYR138      0.0417
    147  CE2       12.7990  -14.6260  -12.1990 C.ar  138  TYR138      0.0417
    148  CZ        11.8040  -14.0360  -12.9520 C.ar  138  TYR138      0.1957
    149  OH        11.8990  -13.9830  -14.3120 O.3   138  TYR138     -0.2866
    150  N         10.6220  -17.2210   -9.7970 N.am  139  THR139     -0.1937
    151  CA        11.1820  -18.2810  -10.6250 C.3   139  THR139      0.2028
    152  C         10.7450  -18.0390  -12.0650 C.2   139  THR139      0.2642
    153  O          9.7540  -17.3550  -12.3240 O.2   139  THR139     -0.2714
    154  CB        10.7310  -19.6780  -10.1720 C.3   139  THR139      0.1808
    155  OG1        9.3350  -19.8370  -10.4380 O.3   139  THR139     -0.2208
    156  CG2       10.9910  -19.8920   -8.6800 C.3   139  THR139      0.0379
    157  N         11.5020  -18.5960  -13.0070 N.am  140  TYR140     -0.1959
    158  CA        11.1150  -18.6070  -14.4130 C.3   140  TYR140      0.1771
    159  C         11.0380  -20.0580  -14.8450 C.2   140  TYR140      0.2620
    160  O         12.0600  -20.7560  -14.8710 O.2   140  TYR140     -0.2715
    161  CB        12.1090  -17.8330  -15.2810 C.3   140  TYR140      0.0574
    162  CG        11.6870  -17.7110  -16.7260 C.ar  140  TYR140     -0.0198
    163  CD1       10.8620  -16.6680  -17.1440 C.ar  140  TYR140     -0.0009
    164  CD2       12.1130  -18.6290  -17.6770 C.ar  140  TYR140     -0.0009
    165  CE1       10.4710  -16.5510  -18.4680 C.ar  140  TYR140      0.0417
    166  CE2       11.7260  -18.5170  -19.0090 C.ar  140  TYR140      0.0417
    167  CZ        10.9060  -17.4770  -19.3950 C.ar  140  TYR140      0.1957
    168  OH        10.5100  -17.3520  -20.7070 O.3   140  TYR140     -0.2866
    169  N          9.8300  -20.5100  -15.1890 N.am  141  THR141     -0.1937
    170  CA         9.5820  -21.9050  -15.5220 C.3   141  THR141      0.2028
    171  C          9.4890  -22.1430  -17.0200 C.2   141  THR141      0.2642
    172  O          9.5560  -23.2950  -17.4520 O.2   141  THR141     -0.2714
    173  CB         8.2850  -22.4080  -14.8500 C.3   141  THR141      0.1808
    174  OG1        7.1430  -21.7000  -15.3660 O.3   141  THR141     -0.2208
    175  CG2        8.3430  -22.2610  -13.3030 C.3   141  THR141      0.0379
    176  N          9.3570  -21.0940  -17.8170 N.am  142  GLY142     -0.1954
    177  CA         9.2450  -21.2470  -19.2490 C.3   142  GLY142      0.1869
    178  C          7.8710  -21.7070  -19.6800 C.2   142  GLY142      0.2309
    179  O          7.6650  -21.9880  -20.8580 O.2   142  GLY142     -0.2863
    180  N          1.0620  -18.5660  -20.5710 N.3   144  PHE144     -0.1227
    181  CA         0.7730  -18.3670  -19.1600 C.3   144  PHE144      0.1736
    182  C         -0.6890  -18.6600  -18.8660 C.2   144  PHE144      0.2595
    183  O         -1.5830  -18.2560  -19.6110 O.2   144  PHE144     -0.2718
    184  CB         1.0970  -16.9390  -18.7500 C.3   144  PHE144      0.0547
    185  CG         0.8890  -16.6600  -17.2840 C.ar  144  PHE144     -0.0202
    186  CD1       -0.3200  -16.1760  -16.8190 C.ar  144  PHE144     -0.0042
    187  CD2        1.9170  -16.8510  -16.3740 C.ar  144  PHE144     -0.0042
    188  CE1       -0.5070  -15.8880  -15.4550 C.ar  144  PHE144     -0.0003
    189  CE2        1.7350  -16.5690  -15.0230 C.ar  144  PHE144     -0.0003
    190  CZ         0.5160  -16.0910  -14.5690 C.ar  144  PHE144     -0.0000
    191  N         -0.9250  -19.3630  -17.7670 N.am  145  MET145     -0.1979
    192  CA        -2.2640  -19.5630  -17.2340 C.3   145  MET145      0.1605
    193  C         -2.2180  -19.2960  -15.7340 C.2   145  MET145      0.2287
    194  O         -1.3710  -19.8500  -15.0240 O.2   145  MET145     -0.2864
    195  CB        -2.7650  -20.9760  -17.5410 C.3   145  MET145      0.0413
    196  CG        -3.0340  -21.2030  -19.0300 C.3   145  MET145      0.0598
    197  SD        -3.1670  -22.9570  -19.4390 S.3   145  MET145     -0.1393
    198  CE        -4.0560  -22.9540  -21.0070 C.3   145  MET145      0.0692
    199  N         -2.4940  -19.4830  -11.9920 N.3   147  PRO147     -0.2116
    200  CA        -2.7360  -20.6540  -11.1400 C.3   147  PRO147      0.1372
    201  C         -4.0110  -20.5260  -10.3110 C.2   147  PRO147      0.2244
    202  O         -4.5090  -19.4310  -10.0400 O.2   147  PRO147     -0.2868
    203  CB        -1.4860  -20.7030  -10.2490 C.3   147  PRO147      0.0268
    204  CG        -0.4490  -20.0240  -11.0240 C.3   147  PRO147      0.0207
    205  CD        -1.1410  -18.9350  -11.7870 C.3   147  PRO147      0.0892
@<TRIPOS>BOND
     1   198   197    1
     2   179   178    2
     3   168   167    1
     4   180   181    1
     5   178   177    1
     6   183   182    2
     7   197   196    1
     8   167   166   ar
     9   167   165   ar
    10   177   176    1
    11   181   182    1
    12   181   184    1
    13   196   195    1
    14   166   164   ar
    15   182   191   am
    16   184   185    1
    17   165   163   ar
    18   176   171   am
    19   191   192    1
    20   164   162   ar
    21   195   192    1
    22   172   171    2
    23   185   186   ar
    24   185   187   ar
    25   192   193    1
    26   163   162   ar
    27   171   170    1
    28   186   188   ar
    29   162   161    1
    30   187   189   ar
    31   193   194    2
    32    41    42    1
    33   170   169    1
    34   170   173    1
    35   188   190   ar
    36    46    47    1
    37    46    48    1
    38    46    45    1
    39   174   173    1
    40   161   158    1
    41   169   159   am
    42   189   190   ar
    43   160   159    2
    44   173   175    1
    45   159   158    1
    46    42    45    1
    47    42    43    1
    48   158   157    1
    49   149   148    1
    50    43    49   am
    51    43    44    2
    52    49    50    1
    53   157   152   am
    54   148   146   ar
    55   148   147   ar
    56   146   144   ar
    57   153   152    2
    58   147   145   ar
    59   152   151    1
    60   199   205    1
    61   199   200    1
    62    50    53    1
    63    50    51    1
    64    53    55    1
    65    53    54    1
    66    51    52    2
    67   205   204    1
    68   110   109    1
    69   111   109    1
    70   200   201    1
    71   200   203    1
    72   204   203    1
    73   144   143   ar
    74   145   143   ar
    75    56    57    1
    76   151   154    1
    77   151   150    1
    78   109   108    1
    79   155   154    1
    80   201   202    2
    81   143   142    1
    82   154   156    1
    83   108   105    1
    84   150   140   am
    85    98    97    2
    86    57    60    1
    87    57    58    1
    88   105   104    1
    89   105   106    1
    90    66    58   am
    91    66    67    1
    92    60    61    1
    93    16    15    2
    94   140   141    2
    95   140   139    1
    96    70    71    1
    97    70    67    1
    98   104   101   am
    99   142   139    1
   100    58    59    2
   101    25    22    1
   102    71    72    1
   103    68    67    1
   104    68    69    2
   105    97    96    1
   106    97    99   am
   107   139   138    1
   108    96    95    1
   109    17    14    1
   110    17    18    1
   111   101   102    2
   112   101   100    1
   113   107   106    2
   114    15    14    1
   115    15    21   am
   116    19    18    1
   117    20    18    1
   118    14    13    1
   119   100    99    1
   120   100   103    1
   121    61    62   ar
   122    61    63   ar
   123    22    21    1
   124    22    23    1
   125    72    74   ar
   126    72    73   ar
   127   138   132   am
   128    62    64   ar
   129   133   132    2
   130    63    65   ar
   131     8     7    2
   132    29    28    2
   133    13     7   am
   134    23    26   am
   135    23    24    2
   136   132   131    1
   137    40    37    1
   138    26    27    1
   139    75    76    1
   140     7     6    1
   141    64    65   ar
   142    28    27    1
   143    28    36   am
   144    37    36    1
   145    37    38    1
   146   112   113    1
   147    27    30    1
   148     4     3    2
   149   116   113    1
   150   116   117    1
   151   115   114    2
   152     1     2    1
   153    77    76    1
   154    77    78    2
   155   136   134    1
   156   131   134    1
   157   131   130    1
   158    76    79    1
   159   119   117   ar
   160   119   121   ar
   161    33    35   ar
   162    33    31   ar
   163   113   114    1
   164    79    80    1
   165     6     5    1
   166     6     9    1
   167     3     5   am
   168     3     2    1
   169   134   135    1
   170    82    80   ar
   171    82    84   ar
   172   117   118   ar
   173   114   123   am
   174   130   125   am
   175    35    34   ar
   176    38    39    2
   177    80    81   ar
   178    31    30    1
   179    31    32   ar
   180     9    10    1
   181   121   122   ar
   182    84    83   ar
   183   126   125    2
   184   125   124    1
   185    34    32   ar
   186   118   120   ar
   187   123   124    1
   188   123   129    1
   189    81    83   ar
   190   135   137    1
   191   124   127    1
   192   122   120   ar
   193    94    92   ar
   194    94    93   ar
   195    92    90   ar
   196    10    12    1
   197    10    11    1
   198   129   128    1
   199   127   128    1
   200    93    91   ar
   201    90    89    1
   202    90    91   ar
   203    86    87    1
   204    86    89    1
   205    86    85    1
   206    87    88    2
