@<TRIPOS>MOLECULE
tmp/5uwlB00.pdb
 197 196 0 0 0
SMALL
GASTEIGER

@<TRIPOS>ATOM
      1  N         53.7490  -13.8840   24.7010 N.3    76  GLY76      -0.1210
      2  CA        53.0510  -15.1490   24.6080 C.3    76  GLY76       0.1956
      3  C         53.8790  -16.3730   24.9350 C.2    76  GLY76       0.2612
      4  O         53.3330  -17.4810   24.9280 O.2    76  GLY76      -0.2717
      5  N         55.1710  -16.2170   25.2130 N.am   77  LEU77      -0.1965
      6  CA        56.0300  -17.3320   25.5700 C.3    77  LEU77       0.1728
      7  C         56.6010  -17.1150   26.9610 C.2    77  LEU77       0.2616
      8  O         56.5580  -16.0140   27.5060 O.2    77  LEU77      -0.2715
      9  CB        57.1730  -17.4920   24.5690 C.3    77  LEU77       0.0311
     10  CG        56.8500  -17.3230   23.0940 C.3    77  LEU77       0.0022
     11  CD1       58.1730  -17.4000   22.3370 C.3    77  LEU77       0.0001
     12  CD2       55.8710  -18.3810   22.6030 C.3    77  LEU77       0.0001
     13  N         57.1660  -18.1950   27.5080 N.am   78  LEU78      -0.1963
     14  CA        57.7820  -18.1520   28.8320 C.3    78  LEU78       0.1728
     15  C         58.9030  -17.1310   28.8930 C.2    78  LEU78       0.2616
     16  O         59.1200  -16.4990   29.9330 O.2    78  LEU78      -0.2715
     17  CB        58.3320  -19.5310   29.1770 C.3    78  LEU78       0.0311
     18  CG        57.3430  -20.6900   29.1650 C.3    78  LEU78       0.0022
     19  CD1       58.0760  -21.9990   29.3490 C.3    78  LEU78       0.0001
     20  CD2       56.3540  -20.4930   30.2670 C.3    78  LEU78       0.0001
     21  N         59.6480  -17.0010   27.8000 N.am   79  ALA79      -0.1977
     22  CA        60.8530  -16.1920   27.6990 C.3    79  ALA79       0.1597
     23  C         61.1570  -16.0150   26.2210 C.2    79  ALA79       0.2287
     24  O         60.5670  -16.6730   25.3700 O.2    79  ALA79      -0.2864
     25  CB        62.0410  -16.8460   28.4070 C.3    79  ALA79       0.0319
     26  N         58.3020  -22.8600   36.8170 N.3   107  TYR107     -0.1241
     27  CA        59.1750  -23.1500   35.6830 C.3   107  TYR107      0.1605
     28  C         60.6340  -23.1250   36.1190 C.2   107  TYR107      0.2264
     29  O         61.0840  -22.1750   36.7660 O.2   107  TYR107     -0.2867
     30  CB        58.9230  -22.1670   34.5330 C.3   107  TYR107      0.0534
     31  CG        57.5990  -22.4230   33.8400 C.ar  107  TYR107     -0.0201
     32  CD1       57.4570  -23.4300   32.8980 C.ar  107  TYR107     -0.0009
     33  CD2       56.4850  -21.6580   34.1420 C.ar  107  TYR107     -0.0009
     34  CE1       56.2280  -23.6620   32.2780 C.ar  107  TYR107      0.0417
     35  CE2       55.2740  -21.8850   33.5290 C.ar  107  TYR107      0.0417
     36  CZ        55.1470  -22.8930   32.6170 C.ar  107  TYR107      0.1957
     37  OH        53.9210  -23.0880   32.0210 O.3   107  TYR107     -0.2866
     38  N         66.5840  -24.5370   33.1640 N.3   111  LEU111     -0.1231
     39  CA        66.2930  -25.2150   31.9070 C.3   111  LEU111      0.1693
     40  C         65.8850  -24.2080   30.8370 C.2   111  LEU111      0.2591
     41  O         66.3490  -24.2760   29.6970 O.2   111  LEU111     -0.2718
     42  CB        65.1800  -26.2480   32.0990 C.3   111  LEU111      0.0284
     43  CG        65.5020  -27.6080   32.7130 C.3   111  LEU111      0.0019
     44  CD1       64.2520  -28.4330   32.8350 C.3   111  LEU111      0.0001
     45  CD2       66.5190  -28.3380   31.8670 C.3   111  LEU111      0.0001
     46  N         64.9950  -23.2810   31.1890 N.am  112  VAL112     -0.1980
     47  CA        64.5870  -22.2350   30.2660 C.3   112  VAL112      0.1595
     48  C         65.7670  -21.3400   29.8990 C.2   112  VAL112      0.2287
     49  O         65.9740  -21.0220   28.7230 O.2   112  VAL112     -0.2864
     50  CB        63.4210  -21.4360   30.8700 C.3   112  VAL112      0.0276
     51  CG1       63.0590  -20.2080   30.0000 C.3   112  VAL112      0.0022
     52  CG2       62.2330  -22.3710   31.0480 C.3   112  VAL112      0.0022
     53  N         68.0110  -22.8220   27.4720 N.3   115  HIS115     -0.1226
     54  CA        67.3490  -22.8600   26.1730 C.3   115  HIS115      0.1752
     55  C         67.4930  -21.5210   25.4590 C.2   115  HIS115      0.2595
     56  O         67.9630  -21.4590   24.3220 O.2   115  HIS115     -0.2718
     57  CB        65.8780  -23.2300   26.3920 C.3   115  HIS115      0.0759
     58  CG        65.0230  -23.1310   25.1700 C.ar  115  HIS115      0.0818
     59  ND1       64.6260  -24.2400   24.4620 N.ar  115  HIS115     -0.2268
     60  CD2       64.4320  -22.0700   24.5710 C.ar  115  HIS115      0.1154
     61  CE1       63.8500  -23.8660   23.4640 C.ar  115  HIS115      0.1986
     62  NE2       63.7280  -22.5530   23.4960 N.ar  115  HIS115     -0.2212
     63  N         67.1280  -20.4370   26.1420 N.am  116  GLU116     -0.1979
     64  CA        67.1900  -19.1020   25.5590 C.3   116  GLU116      0.1602
     65  C         68.6010  -18.7280   25.1400 C.2   116  GLU116      0.2287
     66  O         68.7990  -18.1860   24.0500 O.2   116  GLU116     -0.2864
     67  CB        66.6480  -18.0810   26.5540 C.3   116  GLU116      0.0415
     68  CG        65.1840  -18.3010   26.8860 C.3   116  GLU116      0.1163
     69  CD        64.2410  -18.1540   25.6860 C.2   116  GLU116      0.3649
     70  OE1       64.6460  -17.5910   24.6520 O.co2 116  GLU116     -0.2457
     71  OE2       63.0780  -18.5850   25.7910 O.co2 116  GLU116     -0.2457
     72  N         65.1730  -23.6030   16.9930 N.3   125  HIS125     -0.1241
     73  CA        64.4870  -24.6730   17.6930 C.3   125  HIS125      0.1621
     74  C         64.7060  -26.0080   17.0160 C.2   125  HIS125      0.2264
     75  O         64.8790  -26.0880   15.8030 O.2   125  HIS125     -0.2867
     76  CB        62.9940  -24.3920   17.7790 C.3   125  HIS125      0.0745
     77  CG        62.6620  -23.4110   18.8380 C.ar  125  HIS125      0.0817
     78  ND1       61.5950  -22.5570   18.7440 N.ar  125  HIS125     -0.2268
     79  CD2       63.2730  -23.1360   20.0170 C.ar  125  HIS125      0.1154
     80  CE1       61.5610  -21.7890   19.8200 C.ar  125  HIS125      0.1986
     81  NE2       62.5660  -22.1260   20.6110 N.ar  125  HIS125     -0.2212
     82  N         63.3570  -34.6300   22.4340 N.3   130  GLY130     -0.1210
     83  CA        64.2910  -34.7700   23.5290 C.3   130  GLY130      0.1956
     84  C         65.3580  -33.7120   23.6360 C.2   130  GLY130      0.2612
     85  O         66.1730  -33.7770   24.5670 O.2   130  GLY130     -0.2717
     86  N         65.3750  -32.7360   22.7320 N.am  131  ALA131     -0.1965
     87  CA        66.4140  -31.7130   22.7110 C.3   131  ALA131      0.1728
     88  C         66.1270  -30.5880   23.6830 C.2   131  ALA131      0.2616
     89  O         64.9800  -30.2180   23.9250 O.2   131  ALA131     -0.2715
     90  CB        66.5550  -31.1120   21.3140 C.3   131  ALA131      0.0334
     91  N         67.1980  -30.0270   24.2320 N.am  132  LEU132     -0.1977
     92  CA        67.0660  -28.7950   24.9970 C.3   132  LEU132      0.1596
     93  C         66.3480  -27.7290   24.1940 C.2   132  LEU132      0.2287
     94  O         65.5410  -26.9830   24.7470 O.2   132  LEU132     -0.2864
     95  CB        68.4340  -28.2820   25.4160 C.3   132  LEU132      0.0297
     96  CG        68.4020  -27.0160   26.2440 C.3   132  LEU132      0.0022
     97  CD1       67.6890  -27.2070   27.5390 C.3   132  LEU132      0.0001
     98  CD2       69.7990  -26.5780   26.5060 C.3   132  LEU132      0.0001
     99  N         64.1110  -27.9340   21.8970 N.3   134  PHE134     -0.1228
    100  CA        62.7370  -28.1860   21.4920 C.3   134  PHE134      0.1721
    101  C         61.8750  -27.0150   21.9480 C.2   134  PHE134      0.2437
    102  O         62.1870  -26.3660   22.9420 O.2   134  PHE134     -0.2733
    103  CB        62.2260  -29.4850   22.1130 C.3   134  PHE134      0.0547
    104  CG        60.9890  -30.0290   21.4640 C.ar  134  PHE134     -0.0202
    105  CD1       61.0170  -30.4650   20.1500 C.ar  134  PHE134     -0.0042
    106  CD2       59.8020  -30.1200   22.1730 C.ar  134  PHE134     -0.0042
    107  CE1       59.8740  -30.9790   19.5610 C.ar  134  PHE134     -0.0003
    108  CE2       58.6610  -30.6200   21.5930 C.ar  134  PHE134     -0.0003
    109  CZ        58.6910  -31.0490   20.2820 C.ar  134  PHE134     -0.0000
    110  N         60.7990  -26.6920   21.2330 N.am  135  PRO135     -0.2718
    111  CA        60.0360  -25.4890   21.5920 C.3   135  PRO135      0.1535
    112  C         59.1470  -25.6330   22.7930 C.2   135  PRO135      0.2598
    113  O         58.6140  -24.6180   23.2610 O.2   135  PRO135     -0.2715
    114  CB        59.1830  -25.2210   20.3510 C.3   135  PRO135      0.0310
    115  CG        59.6720  -26.0590   19.3080 C.3   135  PRO135      0.0237
    116  CD        60.4370  -27.1850   19.8970 C.3   135  PRO135      0.0939
    117  N         58.9170  -26.8430   23.2850 N.am  136  ILE136     -0.1964
    118  CA        57.9390  -27.0700   24.3390 C.3   136  ILE136      0.1727
    119  C         58.6580  -27.5450   25.5930 C.2   136  ILE136      0.2616
    120  O         59.5550  -28.3900   25.5260 O.2   136  ILE136     -0.2715
    121  CB        56.8560  -28.0490   23.8690 C.3   136  ILE136      0.0290
    122  CG1       56.1870  -27.4900   22.5910 C.3   136  ILE136      0.0022
    123  CG2       55.8140  -28.1750   24.9180 C.3   136  ILE136      0.0023
    124  CD1       55.3970  -28.4740   21.8250 C.3   136  ILE136      0.0001
    125  N         58.2920  -26.9660   26.7280 N.am  137  TYR137     -0.1960
    126  CA        58.9870  -27.1880   27.9890 C.3   137  TYR137      0.1771
    127  C         58.4250  -28.4110   28.7000 C.2   137  TYR137      0.2620
    128  O         57.2180  -28.6490   28.6950 O.2   137  TYR137     -0.2715
    129  CB        58.8380  -25.9520   28.8660 C.3   137  TYR137      0.0574
    130  CG        59.2530  -26.0950   30.2950 C.ar  137  TYR137     -0.0198
    131  CD1       58.3880  -26.6450   31.2310 C.ar  137  TYR137     -0.0009
    132  CD2       60.5000  -25.6380   30.7300 C.ar  137  TYR137     -0.0009
    133  CE1       58.7610  -26.7620   32.5730 C.ar  137  TYR137      0.0417
    134  CE2       60.8720  -25.7510   32.0370 C.ar  137  TYR137      0.0417
    135  CZ        59.9920  -26.3160   32.9630 C.ar  137  TYR137      0.1957
    136  OH        60.3620  -26.4220   34.2700 O.3   137  TYR137     -0.2866
    137  N         59.3170  -29.2160   29.2440 N.am  138  THR138     -0.1937
    138  CA        58.9640  -30.3270   30.1070 C.3   138  THR138      0.2028
    139  C         59.9490  -30.3550   31.2620 C.2   138  THR138      0.2642
    140  O         61.1330  -30.1180   31.0560 O.2   138  THR138     -0.2714
    141  CB        59.0270  -31.6440   29.3570 C.3   138  THR138      0.1808
    142  OG1       60.3990  -31.9770   29.1700 O.3   138  THR138     -0.2208
    143  CG2       58.3840  -31.5250   27.9910 C.3   138  THR138      0.0379
    144  N         59.4670  -30.6000   32.4800 N.am  139  TYR139     -0.1959
    145  CA        60.3350  -30.9750   33.5920 C.3   139  TYR139      0.1771
    146  C         60.1030  -32.4450   33.8770 C.2   139  TYR139      0.2620
    147  O         58.9620  -32.9190   33.8440 O.2   139  TYR139     -0.2715
    148  CB        60.0640  -30.1510   34.8630 C.3   139  TYR139      0.0574
    149  CG        61.2020  -30.1790   35.8770 C.ar  139  TYR139     -0.0198
    150  CD1       62.5270  -29.9980   35.4670 C.ar  139  TYR139     -0.0009
    151  CD2       60.9590  -30.3710   37.2520 C.ar  139  TYR139     -0.0009
    152  CE1       63.5930  -30.0110   36.3920 C.ar  139  TYR139      0.0417
    153  CE2       62.0270  -30.3830   38.1940 C.ar  139  TYR139      0.0417
    154  CZ        63.3370  -30.2030   37.7490 C.ar  139  TYR139      0.1957
    155  OH        64.4010  -30.2140   38.6330 O.3   139  TYR139     -0.2866
    156  N         61.1850  -33.1770   34.1040 N.am  140  THR140     -0.1951
    157  CA        61.0850  -34.5690   34.5230 C.3   140  THR140      0.1897
    158  C         61.3340  -34.7410   36.0090 C.2   140  THR140      0.2313
    159  O         61.3710  -35.8770   36.4820 O.2   140  THR140     -0.2863
    160  CB        62.0690  -35.4470   33.7490 C.3   140  THR140      0.1794
    161  OG1       63.4010  -34.9800   33.9860 O.3   140  THR140     -0.2208
    162  CG2       61.7660  -35.4200   32.2510 C.3   140  THR140      0.0378
    163  N         64.2380  -34.2230   37.7580 N.3   142  LYS142     -0.1245
    164  CA        65.4040  -35.0710   37.6080 C.3   142  LYS142      0.1561
    165  C         66.6220  -34.3460   38.1600 C.2   142  LYS142      0.2260
    166  O         66.6070  -33.1310   38.3900 O.2   142  LYS142     -0.2867
    167  CB        65.6180  -35.4490   36.1480 C.3   142  LYS142      0.0271
    168  CG        66.1350  -36.8240   35.9370 C.3   142  LYS142      0.0035
    169  CD        66.1890  -37.1650   34.4720 C.3   142  LYS142      0.0206
    170  CE        66.1390  -38.6760   34.2130 C.3   142  LYS142      0.1093
    171  NZ        66.2210  -39.0440   32.7490 N.3   142  LYS142     -0.1314
    172  N         71.7880  -33.2630   34.6800 N.3   145  PHE145     -0.1227
    173  CA        71.5040  -32.7360   33.3470 C.3   145  PHE145      0.1736
    174  C         72.6320  -33.0970   32.3890 C.2   145  PHE145      0.2595
    175  O         73.8070  -32.8340   32.6730 O.2   145  PHE145     -0.2718
    176  CB        71.3180  -31.2130   33.3570 C.3   145  PHE145      0.0547
    177  CG        71.0430  -30.6370   31.9920 C.ar  145  PHE145     -0.0202
    178  CD1       69.7650  -30.6580   31.4540 C.ar  145  PHE145     -0.0042
    179  CD2       72.0730  -30.1030   31.2280 C.ar  145  PHE145     -0.0042
    180  CE1       69.5310  -30.1530   30.1980 C.ar  145  PHE145     -0.0003
    181  CE2       71.8390  -29.6040   29.9650 C.ar  145  PHE145     -0.0003
    182  CZ        70.5810  -29.6220   29.4490 C.ar  145  PHE145     -0.0000
    183  N         72.2630  -33.6820   31.2510 N.am  146  MET146     -0.1979
    184  CA        73.1890  -34.0110   30.1750 C.3   146  MET146      0.1605
    185  C         72.6690  -33.3780   28.8830 C.2   146  MET146      0.2287
    186  O         71.6240  -33.7840   28.3590 O.2   146  MET146     -0.2864
    187  CB        73.3270  -35.5290   30.0270 C.3   146  MET146      0.0413
    188  CG        74.3200  -36.0020   28.9440 C.3   146  MET146      0.0598
    189  SD        76.0410  -35.6130   29.3650 S.3   146  MET146     -0.1393
    190  CE        76.9500  -36.3990   28.0330 C.3   146  MET146      0.0692
    191  N         71.6850  -32.8780   25.3540 N.3   148  PRO148     -0.2116
    192  CA        71.5130  -33.9070   24.3160 C.3   148  PRO148      0.1372
    193  C         72.4180  -33.6550   23.1270 C.2   148  PRO148      0.2244
    194  O         72.9880  -32.5790   22.9600 O.2   148  PRO148     -0.2868
    195  CB        70.0360  -33.8020   23.9370 C.3   148  PRO148      0.0268
    196  CG        69.3770  -33.1770   25.1020 C.3   148  PRO148      0.0207
    197  CD        70.3990  -32.2620   25.7370 C.3   148  PRO148      0.0892
@<TRIPOS>BOND
     1    75    74    2
     2    72    73    1
     3    74    73    1
     4    73    76    1
     5    76    77    1
     6    78    77   ar
     7    78    80   ar
     8    77    79   ar
     9   115   116    1
    10   115   114    1
    11   107   105   ar
    12   107   109   ar
    13    80    81   ar
    14   116   110    1
    15    79    81   ar
    16   105   104   ar
    17   109   108   ar
    18   114   111    1
    19   110   111    1
    20   110   101   am
    21    90    87    1
    22   104   103    1
    23   104   106   ar
    24   100    99    1
    25   100   101    1
    26   100   103    1
    27   111   112    1
    28   108   106   ar
    29   124   122    1
    30   101   102    2
    31    11    10    1
    32    82    83    1
    33   122   121    1
    34    12    10    1
    35    87    86    1
    36    87    88    1
    37    86    84   am
    38   112   113    2
    39   112   117   am
    40   194   193    2
    41    10     9    1
    42   193   192    1
    43   117   118    1
    44    61    62   ar
    45    61    59   ar
    46    62    60   ar
    47    83    84    1
    48    84    85    2
    49    88    89    2
    50    88    91   am
    51   121   118    1
    52   121   123    1
    53   195   192    1
    54   195   196    1
    55    66    65    2
    56    93    94    2
    57    93    92    1
    58    91    92    1
    59   192   191    1
    60    56    55    2
    61   118   119    1
    62    59    58   ar
    63     9     6    1
    64    60    58   ar
    65     2     1    1
    66     2     3    1
    67    70    69   ar
    68     4     3    2
    69     3     5   am
    70    92    95    1
    71   196   197    1
    72    65    64    1
    73    58    57    1
    74     5     6    1
    75   191   197    1
    76    24    23    2
    77    95    96    1
    78    55    63   am
    79    55    54    1
    80   120   119    2
    81    64    63    1
    82    64    67    1
    83     6     7    1
    84   119   125   am
    85    69    71   ar
    86    69    68    1
    87    54    57    1
    88    54    53    1
    89    23    22    1
    90    96    98    1
    91    96    97    1
    92    67    68    1
    93   125   126    1
    94     7     8    2
    95     7    13   am
    96    13    14    1
    97    22    21    1
    98    22    25    1
    99    21    15   am
   100   126   127    1
   101   126   129    1
   102   143   141    1
   103   190   189    1
   104   186   185    2
   105   128   127    2
   106   127   137   am
   107    49    48    2
   108    14    15    1
   109    14    17    1
   110   129   130    1
   111   185   184    1
   112    15    16    2
   113   188   189    1
   114   188   187    1
   115    18    17    1
   116    18    19    1
   117    18    20    1
   118   142   141    1
   119   137   138    1
   120   141   138    1
   121   182   181   ar
   122   182   180   ar
   123    41    40    2
   124    48    47    1
   125   181   179   ar
   126    51    50    1
   127   187   184    1
   128   138   139    1
   129   184   183    1
   130   180   178   ar
   131    47    50    1
   132    47    46    1
   133   130   132   ar
   134   130   131   ar
   135   132   134   ar
   136    40    46   am
   137    40    39    1
   138    50    52    1
   139   140   139    2
   140   179   177   ar
   141   131   133   ar
   142   183   174   am
   143   139   144   am
   144   178   177   ar
   145    45    43    1
   146    39    42    1
   147    39    38    1
   148   177   176    1
   149    37    36    1
   150   134   135   ar
   151    42    43    1
   152   162   160    1
   153    34    36   ar
   154    34    32   ar
   155   174   175    2
   156   174   173    1
   157   144   145    1
   158   133   135   ar
   159    36    35   ar
   160    43    44    1
   161   171   170    1
   162    32    31   ar
   163   135   136    1
   164   173   176    1
   165   173   172    1
   166    35    33   ar
   167   145   146    1
   168   145   148    1
   169   160   161    1
   170   160   157    1
   171    31    33   ar
   172    31    30    1
   173   147   146    2
   174   146   156   am
   175   156   157    1
   176   170   169    1
   177   169   168    1
   178   157   158    1
   179    30    27    1
   180   148   149    1
   181   150   149   ar
   182   150   152   ar
   183    27    28    1
   184    27    26    1
   185   149   151   ar
   186   168   167    1
   187   158   159    2
   188    28    29    2
   189   167   164    1
   190   152   154   ar
   191   151   153   ar
   192   164   163    1
   193   164   165    1
   194   154   153   ar
   195   154   155    1
   196   165   166    2
