@<TRIPOS>MOLECULE
tmp/5uwnC00.pdb
 186 187 0 0 0
SMALL
GASTEIGER

@<TRIPOS>ATOM
      1  N         22.4350   26.8970   51.9740 N.3    80  GLY80      -0.1210
      2  CA        21.1700   26.4550   51.4140 C.3    80  GLY80       0.1956
      3  C         21.0410   24.9580   51.5660 C.2    80  GLY80       0.2612
      4  O         21.1500   24.4290   52.6820 O.2    80  GLY80      -0.2717
      5  N         20.7240   24.2700   50.4620 N.am   81  LEU81      -0.1965
      6  CA        20.6200   22.8170   50.4980 C.3    81  LEU81       0.1728
      7  C         21.9860   22.1630   50.6830 C.2    81  LEU81       0.2616
      8  O         23.0100   22.6700   50.2150 O.2    81  LEU81      -0.2715
      9  CB        19.9380   22.2810   49.2430 C.3    81  LEU81       0.0311
     10  CG        18.4210   22.4240   49.1300 C.3    81  LEU81       0.0022
     11  CD1       17.9560   23.8440   49.0090 C.3    81  LEU81       0.0001
     12  CD2       17.8960   21.6020   47.9640 C.3    81  LEU81       0.0001
     13  N         21.9850   20.9840   51.3180 N.am   82  LEU82      -0.1963
     14  CA        23.2290   20.2960   51.6360 C.3    82  LEU82       0.1728
     15  C         23.2630   18.8890   51.0760 C.2    82  LEU82       0.2616
     16  O         24.2830   18.4730   50.5140 O.2    82  LEU82      -0.2715
     17  CB        23.4370   20.1940   53.1540 C.3    82  LEU82       0.0311
     18  CG        23.2010   21.3270   54.1230 C.3    82  LEU82       0.0022
     19  CD1       23.5320   20.7840   55.4640 C.3    82  LEU82       0.0001
     20  CD2       24.1010   22.4830   53.7980 C.3    82  LEU82       0.0001
     21  N         22.1890   18.1330   51.2520 N.am   83  ALA83      -0.1963
     22  CA        22.1280   16.7850   50.7250 C.3    83  ALA83       0.1728
     23  C         20.6760   16.4240   50.5290 C.2    83  ALA83       0.2616
     24  O         19.7740   17.1070   51.0160 O.2    83  ALA83      -0.2715
     25  CB        22.7890   15.7660   51.6530 C.3    83  ALA83       0.0334
     26  N         20.4610   15.3590   49.7740 N.am   84  HIS84      -0.1973
     27  CA        19.1630   14.7240   49.7490 C.3    84  HIS84       0.1656
     28  C         19.3820   13.2680   49.4230 C.2    84  HIS84       0.2291
     29  O         20.3970   12.8830   48.8350 O.2    84  HIS84      -0.2864
     30  CB        18.1810   15.3660   48.7690 C.3    84  HIS84       0.0771
     31  CG        18.7030   15.5320   47.3750 C.ar   84  HIS84       0.0820
     32  ND1       19.1070   16.7510   46.8750 N.ar   84  HIS84      -0.2267
     33  CD2       18.8820   14.6390   46.3720 C.ar   84  HIS84       0.1154
     34  CE1       19.5000   16.6010   45.6210 C.ar   84  HIS84       0.1986
     35  NE2       19.3800   15.3280   45.2920 N.ar   84  HIS84      -0.2212
     36  N         27.6540   13.5560   60.4800 N.3   115  LEU115     -0.1231
     37  CA        26.3140   13.8530   60.9660 C.3   115  LEU115      0.1693
     38  C         25.2860   13.8460   59.8530 C.2   115  LEU115      0.2591
     39  O         24.3080   13.0900   59.9070 O.2   115  LEU115     -0.2718
     40  CB        26.2790   15.1910   61.6990 C.3   115  LEU115      0.0284
     41  CG        26.7450   15.0960   63.1330 C.3   115  LEU115      0.0019
     42  CD1       26.5940   16.4370   63.7510 C.3   115  LEU115      0.0001
     43  CD2       25.8150   14.1160   63.8180 C.3   115  LEU115      0.0001
     44  N         25.5120   14.6550   58.8140 N.am  116  VAL116     -0.1980
     45  CA        24.5000   14.7830   57.7690 C.3   116  VAL116      0.1595
     46  C         24.3270   13.4510   57.0400 C.2   116  VAL116      0.2287
     47  O         23.2090   13.0780   56.6700 O.2   116  VAL116     -0.2864
     48  CB        24.8360   15.9740   56.8470 C.3   116  VAL116      0.0276
     49  CG1       23.8830   16.0470   55.7050 C.3   116  VAL116      0.0022
     50  CG2       24.8510   17.2690   57.6240 C.3   116  VAL116      0.0022
     51  N         22.0230   11.3960   59.1280 N.3   119  HIS119     -0.1226
     52  CA        20.6820   11.9230   58.9040 C.3   119  HIS119      0.1752
     53  C         20.0910   11.4000   57.6110 C.2   119  HIS119      0.2595
     54  O         18.9830   10.8560   57.6080 O.2   119  HIS119     -0.2718
     55  CB        20.7020   13.4510   58.8950 C.3   119  HIS119      0.0759
     56  CG        19.3870   14.0550   58.5340 C.ar  119  HIS119      0.0818
     57  ND1       18.3580   14.1790   59.4360 N.ar  119  HIS119     -0.2268
     58  CD2       18.9360   14.5800   57.3710 C.ar  119  HIS119      0.1154
     59  CE1       17.3240   14.7480   58.8430 C.ar  119  HIS119      0.1986
     60  NE2       17.6490   15.0060   57.5900 N.ar  119  HIS119     -0.2212
     61  N         20.8100   11.5830   56.4940 N.am  120  GLU120     -0.1979
     62  CA        20.2580   11.2590   55.1790 C.3   120  GLU120      0.1602
     63  C         20.0020    9.7590   55.0140 C.2   120  GLU120      0.2287
     64  O         19.0000    9.3600   54.4090 O.2   120  GLU120     -0.2864
     65  CB        21.1770   11.8060   54.0820 C.3   120  GLU120      0.0415
     66  CG        21.1890   13.3490   54.0230 C.3   120  GLU120      0.1163
     67  CD        19.8050   13.9510   53.7120 C.2   120  GLU120      0.3649
     68  OE1       19.0900   13.3630   52.8820 O.co2 120  GLU120     -0.2457
     69  OE2       19.4200   14.9990   54.2950 O.co2 120  GLU120     -0.2457
     70  N         11.1030   13.1790   58.9430 N.3   129  HIS129     -0.1241
     71  CA        11.6920   14.0980   59.9020 C.3   129  HIS129      0.1621
     72  C         10.9630   14.0540   61.2520 C.2   129  HIS129      0.2264
     73  O          9.7500   13.8240   61.3290 O.2   129  HIS129     -0.2867
     74  CB        11.7300   15.5190   59.3240 C.3   129  HIS129      0.0745
     75  CG        12.8210   15.7370   58.3120 C.ar  129  HIS129      0.0817
     76  ND1       12.7090   16.6280   57.2700 N.ar  129  HIS129     -0.2268
     77  CD2       14.0450   15.1720   58.1850 C.ar  129  HIS129      0.1154
     78  CE1       13.8200   16.6080   56.5510 C.ar  129  HIS129      0.1986
     79  NE2       14.6450   15.7290   57.0830 N.ar  129  HIS129     -0.2212
     80  N         15.9940   17.3070   69.7780 N.3   134  GLY134     -0.1210
     81  CA        17.1780   16.5550   70.1380 C.3   134  GLY134      0.1956
     82  C         17.4360   15.3290   69.2940 C.2   134  GLY134      0.2612
     83  O         18.4490   14.6510   69.4960 O.2   134  GLY134     -0.2717
     84  N         16.5510   15.0510   68.3340 N.am  135  ALA135     -0.1965
     85  CA        16.6330   13.9010   67.4440 C.3   135  ALA135      0.1728
     86  C         17.7260   14.0940   66.4040 C.2   135  ALA135      0.2616
     87  O         18.1850   15.2130   66.1620 O.2   135  ALA135     -0.2715
     88  CB        15.2950   13.6880   66.7350 C.3   135  ALA135      0.0334
     89  N         18.1890   12.9670   65.8280 N.am  136  LEU136     -0.1977
     90  CA        19.0650   13.0250   64.6560 C.3   136  LEU136      0.1596
     91  C         18.2760   13.3810   63.4080 C.2   136  LEU136      0.2287
     92  O         18.7960   14.0650   62.5200 O.2   136  LEU136     -0.2864
     93  CB        19.8100   11.7000   64.4630 C.3   136  LEU136      0.0297
     94  CG        20.7350   11.6040   63.2460 C.3   136  LEU136      0.0022
     95  CD1       21.8800   12.5490   63.4010 C.3   136  LEU136      0.0001
     96  CD2       21.2740   10.2090   63.0910 C.3   136  LEU136      0.0001
     97  N         15.8570   15.4610   63.1820 N.3   138  PHE138     -0.1228
     98  CA        15.2690   16.7910   63.2040 C.3   138  PHE138      0.1721
     99  C         15.7330   17.5870   61.9750 C.2   138  PHE138      0.2437
    100  O         16.8710   17.4220   61.5240 O.2   138  PHE138     -0.2733
    101  CB        15.6310   17.5060   64.5020 C.3   138  PHE138      0.0547
    102  CG        14.8410   18.7620   64.7520 C.ar  138  PHE138     -0.0202
    103  CD1       13.4980   18.6880   65.0870 C.ar  138  PHE138     -0.0042
    104  CD2       15.4430   20.0060   64.6780 C.ar  138  PHE138     -0.0042
    105  CE1       12.7630   19.8230   65.3190 C.ar  138  PHE138     -0.0003
    106  CE2       14.7130   21.1410   64.9160 C.ar  138  PHE138     -0.0003
    107  CZ        13.3660   21.0500   65.2380 C.ar  138  PHE138     -0.0000
    108  N         14.8610   18.4210   61.3940 N.am  139  PRO139     -0.2718
    109  CA        15.1560   19.0460   60.0950 C.3   139  PRO139      0.1535
    110  C         16.2450   20.1200   60.0760 C.2   139  PRO139      0.2598
    111  O         16.5090   20.6690   58.9950 O.2   139  PRO139     -0.2715
    112  CB        13.8110   19.6690   59.7190 C.3   139  PRO139      0.0310
    113  CG        12.8160   18.9030   60.4720 C.3   139  PRO139      0.0237
    114  CD        13.4400   18.5740   61.7500 C.3   139  PRO139      0.0939
    115  N         16.8630   20.5020   61.1920 N.am  140  ILE140     -0.1964
    116  CA        17.8500   21.5790   61.1920 C.3   140  ILE140      0.1727
    117  C         19.2020   21.0520   61.6470 C.2   140  ILE140      0.2616
    118  O         19.3090   20.4140   62.7000 O.2   140  ILE140     -0.2715
    119  CB        17.4130   22.7750   62.0570 C.3   140  ILE140      0.0290
    120  CG1       16.1480   23.4320   61.5040 C.3   140  ILE140      0.0022
    121  CG2       18.5060   23.8060   62.0710 C.3   140  ILE140      0.0023
    122  CD1       14.8360   22.9140   62.0510 C.3   140  ILE140      0.0001
    123  N         20.2370   21.3400   60.8690 N.am  141  TYR141     -0.1960
    124  CA        21.5770   20.9170   61.2360 C.3   141  TYR141      0.1771
    125  C         22.1120   21.8440   62.3040 C.2   141  TYR141      0.2620
    126  O         22.0760   23.0680   62.1530 O.2   141  TYR141     -0.2715
    127  CB        22.5030   20.9210   60.0230 C.3   141  TYR141      0.0574
    128  CG        23.9640   20.6750   60.3170 C.ar  141  TYR141     -0.0198
    129  CD1       24.4840   19.3970   60.3560 C.ar  141  TYR141     -0.0009
    130  CD2       24.8280   21.7340   60.5270 C.ar  141  TYR141     -0.0009
    131  CE1       25.8320   19.1850   60.6170 C.ar  141  TYR141      0.0417
    132  CE2       26.1660   21.5370   60.7860 C.ar  141  TYR141      0.0417
    133  CZ        26.6680   20.2650   60.8280 C.ar  141  TYR141      0.1957
    134  OH        28.0110   20.0860   61.0830 O.3   141  TYR141     -0.2866
    135  N         22.6080   21.2490   63.3830 N.am  142  THR142     -0.1937
    136  CA        23.3570   21.9410   64.4200 C.3   142  THR142      0.2028
    137  C         24.4850   21.0200   64.8480 C.2   142  THR142      0.2642
    138  O         24.3110   19.8010   64.8920 O.2   142  THR142     -0.2714
    139  CB        22.4620   22.2620   65.6200 C.3   142  THR142      0.1808
    140  OG1       21.8480   21.0490   66.0650 O.3   142  THR142     -0.2208
    141  CG2       21.3750   23.2870   65.2640 C.3   142  THR142      0.0379
    142  N         25.6290   21.5960   65.1950 N.am  143  TYR143     -0.1959
    143  CA        26.7380   20.7670   65.6570 C.3   143  TYR143      0.1771
    144  C         27.6860   21.6430   66.4470 C.2   143  TYR143      0.2620
    145  O         28.2180   22.6200   65.8990 O.2   143  TYR143     -0.2715
    146  CB        27.4680   20.1000   64.5110 C.3   143  TYR143      0.0574
    147  CG        28.6600   19.2730   64.9500 C.ar  143  TYR143     -0.0198
    148  CD1       28.4920   18.1670   65.7710 C.ar  143  TYR143     -0.0009
    149  CD2       29.9480   19.5980   64.5450 C.ar  143  TYR143     -0.0009
    150  CE1       29.5710   17.3930   66.1700 C.ar  143  TYR143      0.0417
    151  CE2       31.0350   18.8350   64.9400 C.ar  143  TYR143      0.0417
    152  CZ        30.8440   17.7320   65.7560 C.ar  143  TYR143      0.1957
    153  OH        31.9260   16.9680   66.1610 O.3   143  TYR143     -0.2866
    154  N         27.8980   21.2760   67.7190 N.am  144  THR144     -0.1951
    155  CA        28.6700   22.0200   68.7120 C.3   144  THR144      0.1897
    156  C         30.1290   21.5800   68.7610 C.2   144  THR144      0.2313
    157  O         30.9670   22.3030   69.3180 O.2   144  THR144     -0.2863
    158  CB        28.0290   21.8860   70.0990 C.3   144  THR144      0.1794
    159  OG1       27.9490   20.4950   70.4660 O.3   144  THR144     -0.2208
    160  CG2       26.6340   22.5260   70.0850 C.3   144  THR144      0.0378
    161  N         29.2110   10.3120   69.9990 N.3   149  PHE149     -0.1227
    162  CA        27.8380   10.4060   69.5400 C.3   149  PHE149      0.1736
    163  C         27.0370    9.2160   70.0610 C.2   149  PHE149      0.2595
    164  O         27.5340    8.0890   70.1110 O.2   149  PHE149     -0.2718
    165  CB        27.8250   10.4500   68.0020 C.3   149  PHE149      0.0547
    166  CG        26.4490   10.4350   67.3950 C.ar  149  PHE149     -0.0202
    167  CD1       25.8190    9.2280   67.0970 C.ar  149  PHE149     -0.0042
    168  CD2       25.7850   11.6240   67.1200 C.ar  149  PHE149     -0.0042
    169  CE1       24.5520    9.2040   66.5600 C.ar  149  PHE149     -0.0003
    170  CE2       24.5230   11.6080   66.5760 C.ar  149  PHE149     -0.0003
    171  CZ        23.9020   10.3930   66.3010 C.ar  149  PHE149     -0.0000
    172  N         25.7910    9.4690   70.4510 N.am  150  MET150     -0.1979
    173  CA        24.8970    8.3920   70.8560 C.3   150  MET150      0.1605
    174  C         23.4880    8.7330   70.3790 C.2   150  MET150      0.2287
    175  O         23.0160    9.8580   70.5630 O.2   150  MET150     -0.2864
    176  CB        24.9590    8.1750   72.3750 C.3   150  MET150      0.0413
    177  CG        24.6920    9.4420   73.2010 C.3   150  MET150      0.0598
    178  SD        25.5440    9.5810   74.7980 S.3   150  MET150     -0.1393
    179  CE        26.8080   10.8180   74.4070 C.3   150  MET150      0.0692
    180  N         19.8070    9.5020   69.6190 N.3   152  PRO152     -0.2116
    181  CA        18.6860    9.9130   70.4660 C.3   152  PRO152      0.1372
    182  C         17.5220    8.9340   70.4530 C.2   152  PRO152      0.2244
    183  O         17.2950    8.2100   69.4860 O.2   152  PRO152     -0.2868
    184  CB        18.2650   11.2450   69.8370 C.3   152  PRO152      0.0268
    185  CG        19.4950   11.7590   69.2210 C.3   152  PRO152      0.0207
    186  CD        20.2490   10.5780   68.7260 C.3   152  PRO152      0.0892
@<TRIPOS>BOND
     1    35    34   ar
     2    35    33   ar
     3    34    32   ar
     4    33    31   ar
     5    32    31   ar
     6    31    30    1
     7    12    10    1
     8    30    27    1
     9    29    28    2
    10    11    10    1
    11    10     9    1
    12     9     6    1
    13    28    27    1
    14    27    26    1
    15    26    23   am
    16     8     7    2
    17     5     6    1
    18     5     3   am
    19     6     7    1
    20    16    15    2
    21    23    22    1
    22    23    24    2
    23     7    13   am
    24    22    21    1
    25    22    25    1
    26    15    21   am
    27    15    14    1
    28    13    14    1
    29     2     3    1
    30     2     1    1
    31     3     4    2
    32    14    17    1
    33    68    67   ar
    34    17    18    1
    35    67    66    1
    36    67    69   ar
    37    20    18    1
    38    66    65    1
    39    65    62    1
    40    18    19    1
    41    64    63    2
    42    63    62    1
    43    62    61    1
    44    49    48    1
    45    61    53   am
    46    78    79   ar
    47    78    76   ar
    48    47    46    2
    49    48    50    1
    50    48    45    1
    51    46    45    1
    52    79    77   ar
    53    76    75   ar
    54    58    60   ar
    55    58    56   ar
    56    60    59   ar
    57    54    53    2
    58    53    52    1
    59    45    44    1
    60    77    75   ar
    61    75    74    1
    62    56    55    1
    63    56    57   ar
    64    44    38   am
    65    59    57   ar
    66    55    52    1
    67    52    51    1
    68    70    71    1
    69   111   110    2
    70    74    71    1
    71   112   109    1
    72   112   113    1
    73    38    39    2
    74    38    37    1
    75    71    72    1
    76   127   128    1
    77   127   124    1
    78   110   109    1
    79   110   115   am
    80   109   108    1
    81   128   129   ar
    82   128   130   ar
    83   129   131   ar
    84   113   114    1
    85    36    37    1
    86   130   132   ar
    87   131   133   ar
    88   132   133   ar
    89   133   134    1
    90   123   124    1
    91   123   117   am
    92    37    40    1
    93   115   116    1
    94   116   117    1
    95   116   119    1
    96   124   125    1
    97    72    73    2
    98   108   114    1
    99   108    99   am
   100   120   122    1
   101   120   119    1
   102   100    99    2
   103   117   118    2
   104    40    41    1
   105    99    98    1
   106   119   121    1
   107   126   125    2
   108   125   135   am
   109    92    91    2
   110    96    94    1
   111    41    42    1
   112    41    43    1
   113    97    98    1
   114    98   101    1
   115    94    95    1
   116    94    93    1
   117   135   136    1
   118    91    90    1
   119   136   137    1
   120   136   139    1
   121    93    90    1
   122   101   102    1
   123   146   147    1
   124   146   143    1
   125   149   151   ar
   126   149   147   ar
   127    90    89    1
   128   104   102   ar
   129   104   106   ar
   130   102   103   ar
   131   137   138    2
   132   137   142   am
   133   106   107   ar
   134   151   152   ar
   135   147   148   ar
   136   103   105   ar
   137   142   143    1
   138   107   105   ar
   139   141   139    1
   140   139   140    1
   141   143   144    1
   142   152   153    1
   143   152   150   ar
   144   148   150   ar
   145    89    86   am
   146   145   144    2
   147    87    86    2
   148   171   169   ar
   149   171   170   ar
   150    86    85    1
   151   144   154   am
   152   169   167   ar
   153   170   168   ar
   154    88    85    1
   155   167   166   ar
   156   168   166   ar
   157   166   165    1
   158    85    84    1
   159   154   155    1
   160   165   162    1
   161    84    82   am
   162   155   156    1
   163   155   158    1
   164   186   185    1
   165   186   180    1
   166   156   157    2
   167   185   184    1
   168    82    83    2
   169    82    81    1
   170   183   182    2
   171   162   161    1
   172   162   163    1
   173   180   181    1
   174    80    81    1
   175   184   181    1
   176   163   164    2
   177   163   172   am
   178   160   158    1
   179   158   159    1
   180   174   175    2
   181   174   173    1
   182   172   173    1
   183   182   181    1
   184   173   176    1
   185   176   177    1
   186   177   178    1
   187   179   178    1
