@<TRIPOS>MOLECULE
tmp/5uwpC00.pdb
 73 67 0 0 0
SMALL
GASTEIGER

@<TRIPOS>ATOM
      1  N        -34.2110   73.7420   34.5880 N.3   479  LEU479     -0.1245
      2  CA       -34.3480   74.9160   33.7320 C.3   479  LEU479      0.1561
      3  C        -33.9510   76.1840   34.4800 C.2   479  LEU479      0.2260
      4  O        -33.2100   77.0240   33.9550 O.2   479  LEU479     -0.2867
      5  CB       -35.7850   75.0190   33.2170 C.3   479  LEU479      0.0270
      6  CG       -36.1840   73.9800   32.1660 C.3   479  LEU479      0.0019
      7  CD1      -37.6960   73.8780   32.0570 C.3   479  LEU479      0.0001
      8  CD2      -35.5740   74.3240   30.8160 C.3   479  LEU479      0.0001
      9  N        -30.2330   76.3540   34.8050 N.3   482  CYS482     -0.1221
     10  CA       -29.5590   76.7740   33.5830 C.3   482  CYS482      0.1808
     11  C        -29.7300   78.2690   33.3510 C.2   482  CYS482      0.2601
     12  O        -28.7920   78.9500   32.9200 O.2   482  CYS482     -0.2717
     13  CB       -30.0930   75.9870   32.3870 C.3   482  CYS482      0.0970
     14  SG       -29.0900   76.1730   30.8950 S.3   482  CYS482     -0.0800
     15  N        -30.9220   78.7960   33.6360 N.am  483  GLU483     -0.1979
     16  CA       -31.1830   80.2120   33.4060 C.3   483  GLU483      0.1602
     17  C        -30.2590   81.0910   34.2400 C.2   483  GLU483      0.2287
     18  O        -29.7490   82.1060   33.7510 O.2   483  GLU483     -0.2864
     19  CB       -32.6470   80.5200   33.7160 C.3   483  GLU483      0.0415
     20  CG       -33.6210   79.8780   32.7350 C.3   483  GLU483      0.1163
     21  CD       -34.9770   79.5830   33.3480 C.2   483  GLU483      0.3649
     22  OE1      -35.1750   79.8850   34.5420 O.co2 483  GLU483     -0.2457
     23  OE2      -35.8470   79.0440   32.6320 O.co2 483  GLU483     -0.2457
     24  N        -23.9940   76.8330   30.9250 N.3   491  LYS491     -0.1245
     25  CA       -25.3110   76.5660   30.3550 C.3   491  LYS491      0.1561
     26  C        -25.3030   75.3120   29.4910 C.2   491  LYS491      0.2260
     27  O        -26.3300   74.6340   29.3760 O.2   491  LYS491     -0.2867
     28  CB       -25.7880   77.7650   29.5340 C.3   491  LYS491      0.0271
     29  CG       -25.8660   79.0710   30.3170 C.3   491  LYS491      0.0035
     30  CD       -26.2910   80.2270   29.4210 C.3   491  LYS491      0.0206
     31  CE       -27.4810   80.9890   29.9890 C.3   491  LYS491      0.1093
     32  NZ       -28.6990   80.1400   30.1140 N.3   491  LYS491     -0.1314
     33  N        -27.8900   72.1600   30.1860 N.3   495  ALA495     -0.1245
     34  CA       -28.7890   71.7990   29.0940 C.3   495  ALA495      0.1562
     35  C        -28.6290   70.3310   28.7150 C.2   495  ALA495      0.2260
     36  O        -29.6150   69.6490   28.4100 O.2   495  ALA495     -0.2867
     37  CB       -28.5350   72.6990   27.8850 C.3   495  ALA495      0.0290
     38  N        -30.4230   68.2800   31.2820 N.3   498  ILE498     -0.1231
     39  CA       -31.8650   68.3400   31.0560 C.3   498  ILE498      0.1692
     40  C        -32.2640   67.3220   30.0010 C.2   498  ILE498      0.2591
     41  O        -33.2330   66.5690   30.1670 O.2   498  ILE498     -0.2718
     42  CB       -32.2920   69.7630   30.6530 C.3   498  ILE498      0.0266
     43  CG1      -32.1020   70.7280   31.8270 C.3   498  ILE498      0.0019
     44  CG2      -33.7570   69.7770   30.1910 C.3   498  ILE498      0.0020
     45  CD1      -32.3230   72.1910   31.4750 C.3   498  ILE498      0.0001
     46  N        -31.5230   67.2900   28.8910 N.am  499  MET499     -0.1979
     47  CA       -31.8270   66.3440   27.8280 C.3   499  MET499      0.1605
     48  C        -31.5630   64.9100   28.2640 C.2   499  MET499      0.2287
     49  O        -32.2810   63.9960   27.8440 O.2   499  MET499     -0.2864
     50  CB       -31.0170   66.6840   26.5760 C.3   499  MET499      0.0413
     51  CG       -31.4750   67.9620   25.8820 C.3   499  MET499      0.0598
     52  SD       -33.2240   67.9090   25.4490 S.3   499  MET499     -0.1393
     53  CE       -33.4030   69.4100   24.4880 C.3   499  MET499      0.0692
     54  N        -36.1960   71.2310   20.0000 N.3   522  LYS522     -0.1245
     55  CA       -35.0630   71.8490   20.6780 C.3   522  LYS522      0.1561
     56  C        -33.7760   71.0690   20.4350 C.2   522  LYS522      0.2260
     57  O        -32.7000   71.6690   20.3420 O.2   522  LYS522     -0.2867
     58  CB       -35.3440   71.9710   22.1770 C.3   522  LYS522      0.0271
     59  CG       -34.1460   72.4200   23.0100 C.3   522  LYS522      0.0035
     60  CD       -33.5580   73.7460   22.5360 C.3   522  LYS522      0.0206
     61  CE       -34.5290   74.8980   22.7300 C.3   522  LYS522      0.1093
     62  NZ       -33.8240   76.2120   22.7770 N.3   522  LYS522     -0.1314
     63  N        -30.2580   72.5310   18.7410 N.3   526  PHE526     -0.1241
     64  CA       -28.9180   72.2310   19.2300 C.3   526  PHE526      0.1605
     65  C        -28.0450   71.5790   18.1670 C.2   526  PHE526      0.2264
     66  O        -26.8150   71.6050   18.2920 O.2   526  PHE526     -0.2867
     67  CB       -28.9960   71.3120   20.4580 C.3   526  PHE526      0.0534
     68  CG       -29.4220   72.0030   21.7350 C.ar  526  PHE526     -0.0203
     69  CD1      -29.3540   73.3830   21.8740 C.ar  526  PHE526     -0.0042
     70  CD2      -29.8750   71.2540   22.8110 C.ar  526  PHE526     -0.0042
     71  CE1      -29.7400   73.9950   23.0530 C.ar  526  PHE526     -0.0003
     72  CE2      -30.2600   71.8650   23.9900 C.ar  526  PHE526     -0.0003
     73  CZ       -30.1910   73.2340   24.1110 C.ar  526  PHE526     -0.0000
@<TRIPOS>BOND
     1    65    66    2
     2    65    64    1
     3    63    64    1
     4    64    67    1
     5    54    55    1
     6    57    56    2
     7    56    55    1
     8    67    68    1
     9    55    58    1
    10    68    69   ar
    11    68    70   ar
    12    69    71   ar
    13    58    59    1
    14    60    61    1
    15    60    59    1
    16    61    62    1
    17    70    72   ar
    18    71    73   ar
    19    72    73   ar
    20    53    52    1
    21    52    51    1
    22    51    50    1
    23    50    47    1
    24    47    48    1
    25    47    46    1
    26    49    48    2
    27    37    34    1
    28    36    35    2
    29    35    34    1
    30    46    40   am
    31    34    33    1
    32    27    26    2
    33    30    31    1
    34    30    29    1
    35    26    25    1
    36    28    29    1
    37    28    25    1
    38    31    32    1
    39    40    41    2
    40    40    39    1
    41    44    42    1
    42    25    24    1
    43    42    39    1
    44    42    43    1
    45     8     6    1
    46    14    13    1
    47    39    38    1
    48    45    43    1
    49     7     6    1
    50     6     5    1
    51    13    10    1
    52    23    21   ar
    53    20    21    1
    54    20    19    1
    55    12    11    2
    56     5     2    1
    57    21    22   ar
    58    11    10    1
    59    11    15   am
    60    16    15    1
    61    16    19    1
    62    16    17    1
    63    10     9    1
    64     2     3    1
    65     2     1    1
    66    18    17    2
    67     4     3    2
