@<TRIPOS>MOLECULE
tmp/5uwxB04.pdb
 101 98 0 0 0
SMALL
GASTEIGER

@<TRIPOS>ATOM
      1  N          3.9540  -27.2430   23.8750 N.3   215  LYS215     -0.1231
      2  CA         4.6200  -26.6740   22.7060 C.3   215  LYS215      0.1693
      3  C          6.0480  -26.2280   22.9820 C.2   215  LYS215      0.2592
      4  O          6.9250  -26.3940   22.1210 O.2   215  LYS215     -0.2718
      5  CB         3.7880  -25.4800   22.1730 C.3   215  LYS215      0.0285
      6  CG         4.4310  -24.7690   20.9840 C.3   215  LYS215      0.0035
      7  CD         3.5810  -23.5870   20.5030 C.3   215  LYS215      0.0206
      8  CE         4.2290  -22.8750   19.3130 C.3   215  LYS215      0.1093
      9  NZ         3.2710  -21.8570   18.7840 N.3   215  LYS215     -0.1314
     10  N          6.3150  -25.6630   24.1600 N.am  216  TYR216     -0.1962
     11  CA         7.6270  -25.1490   24.5250 C.3   216  TYR216      0.1771
     12  C          8.0960  -25.8450   25.8000 C.2   216  TYR216      0.2620
     13  O          7.2860  -26.3880   26.5570 O.2   216  TYR216     -0.2715
     14  CB         7.5880  -23.6460   24.7560 C.3   216  TYR216      0.0574
     15  CG         7.1340  -22.8130   23.5700 C.ar  216  TYR216     -0.0198
     16  CD1        7.9820  -22.5960   22.4880 C.ar  216  TYR216     -0.0009
     17  CD2        5.8860  -22.2060   23.5630 C.ar  216  TYR216     -0.0009
     18  CE1        7.5840  -21.8020   21.4180 C.ar  216  TYR216      0.0417
     19  CE2        5.4740  -21.4070   22.4910 C.ar  216  TYR216      0.0417
     20  CZ         6.3360  -21.2210   21.4230 C.ar  216  TYR216      0.1957
     21  OH         5.9470  -20.4350   20.3550 O.3   216  TYR216     -0.2866
     22  N          9.4080  -25.8130   26.0500 N.am  217  SER217     -0.1950
     23  CA         9.9260  -26.4200   27.2760 C.3   217  SER217      0.1924
     24  C          9.2770  -25.8210   28.5290 C.2   217  SER217      0.2314
     25  O          9.1070  -26.5180   29.5260 O.2   217  SER217     -0.2863
     26  CB        11.4540  -26.2920   27.3430 C.3   217  SER217      0.2116
     27  OG        11.8880  -24.9400   27.2020 O.3   217  SER217     -0.2180
     28  N          5.8130  -32.3710   19.6070 N.3   236  ILE236     -0.1245
     29  CA         7.2150  -32.0200   19.8580 C.3   236  ILE236      0.1561
     30  C          8.1790  -33.1090   19.3660 C.2   236  ILE236      0.2260
     31  O          9.3190  -32.8110   19.0070 O.2   236  ILE236     -0.2867
     32  CB         7.4090  -31.7050   21.3650 C.3   236  ILE236      0.0252
     33  CG1        6.9450  -30.2590   21.6680 C.3   236  ILE236      0.0019
     34  CG2        8.8820  -31.8480   21.7910 C.3   236  ILE236      0.0019
     35  CD1        6.8430  -29.9290   23.1510 C.3   236  ILE236      0.0001
     36  N         12.8170  -31.9310   12.5960 N.3   282  LYS282     -0.1245
     37  CA        13.6380  -31.3770   13.6770 C.3   282  LYS282      0.1561
     38  C         15.0000  -32.0380   13.8340 C.2   282  LYS282      0.2260
     39  O         15.7470  -31.6650   14.7480 O.2   282  LYS282     -0.2867
     40  CB        12.9150  -31.4840   15.0310 C.3   282  LYS282      0.0271
     41  CG        11.9940  -30.3220   15.3870 C.3   282  LYS282      0.0035
     42  CD        10.7420  -30.4580   14.6210 C.3   282  LYS282      0.0206
     43  CE         9.6500  -29.4990   15.0730 C.3   282  LYS282      0.1093
     44  NZ         8.3860  -30.0220   14.4910 N.3   282  LYS282     -0.1314
     45  N         16.4580  -32.3460   20.4640 N.3   288  THR288     -0.1218
     46  CA        15.2170  -31.8130   21.0240 C.3   288  THR288      0.1862
     47  C         15.1680  -32.0280   22.5330 C.2   288  THR288      0.2287
     48  O         14.8540  -31.1000   23.2920 O.2   288  THR288     -0.2866
     49  CB        14.0020  -32.4530   20.3440 C.3   288  THR288      0.1770
     50  OG1       13.8870  -31.9600   19.0000 O.3   288  THR288     -0.2211
     51  CG2       12.7090  -32.0980   21.1070 C.3   288  THR288      0.0375
     52  N         17.2730  -29.5220   24.5400 N.3   291  GLN291     -0.1231
     53  CA        16.6200  -28.2290   24.7750 C.3   291  GLN291      0.1698
     54  C         15.4950  -28.3330   25.8010 C.2   291  GLN291      0.2592
     55  O         15.3230  -27.4280   26.6320 O.2   291  GLN291     -0.2718
     56  CB        16.0750  -27.6500   23.4670 C.3   291  GLN291      0.0381
     57  CG        17.1700  -27.2910   22.4510 C.3   291  GLN291      0.0905
     58  CD        18.0940  -26.2080   22.9750 C.2   291  GLN291      0.2608
     59  OE1       17.6410  -25.2400   23.6050 O.2   291  GLN291     -0.2717
     60  NE2       19.3960  -26.3750   22.7440 N.am  291  GLN291     -0.0878
     61  N         14.6930  -29.4060   25.7490 N.am  292  LEU292     -0.1980
     62  CA        13.6000  -29.5380   26.7080 C.3   292  LEU292      0.1596
     63  C         14.1370  -29.6210   28.1280 C.2   292  LEU292      0.2287
     64  O         13.6660  -28.9180   29.0290 O.2   292  LEU292     -0.2864
     65  CB        12.7530  -30.7820   26.3880 C.3   292  LEU292      0.0297
     66  CG        12.0200  -30.7890   25.0470 C.3   292  LEU292      0.0022
     67  CD1       11.3180  -32.1320   24.8610 C.3   292  LEU292      0.0001
     68  CD2       10.9860  -29.6250   24.9440 C.3   292  LEU292      0.0001
     69  N         17.2840  -22.3810   19.0710 N.3   340  PRO340     -0.2102
     70  CA        17.0290  -23.8340   19.1150 C.3   340  PRO340      0.1504
     71  C         15.8240  -24.2300   19.9570 C.2   340  PRO340      0.2576
     72  O         15.3480  -25.3660   19.8190 O.2   340  PRO340     -0.2718
     73  CB        18.3270  -24.3970   19.7060 C.3   340  PRO340      0.0282
     74  CG        18.8640  -23.2660   20.5610 C.3   340  PRO340      0.0208
     75  CD        18.4710  -21.9850   19.8560 C.3   340  PRO340      0.0893
     76  N         15.3290  -23.3440   20.8240 N.am  341  ASN341     -0.1961
     77  CA        14.2110  -23.6410   21.7150 C.3   341  ASN341      0.1819
     78  C         13.0680  -22.6410   21.5590 C.2   341  ASN341      0.2621
     79  O         12.1890  -22.5500   22.4340 O.2   341  ASN341     -0.2715
     80  CB        14.6860  -23.6950   23.1710 C.3   341  ASN341      0.1195
     81  CG        15.3970  -22.4140   23.6160 C.2   341  ASN341      0.2630
     82  OD1       15.5560  -21.4650   22.8340 O.2   341  ASN341     -0.2716
     83  ND2       15.8250  -22.3860   24.8760 N.am  341  ASN341     -0.0877
     84  N         13.0440  -21.8940   20.4570 N.am  342  TYR342     -0.1960
     85  CA        11.9630  -20.9420   20.2280 C.3   342  TYR342      0.1771
     86  C         11.7140  -20.7780   18.7370 C.2   342  TYR342      0.2620
     87  O         12.6420  -20.5080   17.9770 O.2   342  TYR342     -0.2715
     88  CB        12.2670  -19.5640   20.8410 C.3   342  TYR342      0.0574
     89  CG        11.0590  -18.6530   20.7170 C.ar  342  TYR342     -0.0198
     90  CD1        9.9190  -18.8990   21.4670 C.ar  342  TYR342     -0.0009
     91  CD2       11.0350  -17.5870   19.8100 C.ar  342  TYR342     -0.0009
     92  CE1        8.7820  -18.1030   21.3430 C.ar  342  TYR342      0.0417
     93  CE2        9.8950  -16.7620   19.6850 C.ar  342  TYR342      0.0417
     94  CZ         8.7740  -17.0250   20.4600 C.ar  342  TYR342      0.1957
     95  OH         7.6190  -16.2380   20.3550 O.3   342  TYR342     -0.2866
     96  N         10.4610  -20.9040   18.3280 N.am  343  SER343     -0.1950
     97  CA        10.0300  -20.5060   16.9960 C.3   343  SER343      0.1924
     98  C          8.6720  -19.8270   17.1360 C.2   343  SER343      0.2314
     99  O          8.0300  -19.9030   18.1880 O.2   343  SER343     -0.2863
    100  CB         9.9720  -21.7010   16.0360 C.3   343  SER343      0.2116
    101  OG         9.1020  -22.6990   16.5400 O.3   343  SER343     -0.2180
@<TRIPOS>BOND
     1    36    37    1
     2    37    38    1
     3    37    40    1
     4    38    39    2
     5    44    43    1
     6    42    43    1
     7    42    41    1
     8    40    41    1
     9   100   101    1
    10   100    97    1
    11    97    98    1
    12    97    96    1
    13    98    99    2
    14    87    86    2
    15    96    86   am
    16    86    85    1
    17     9     8    1
    18    50    49    1
    19    31    30    2
    20    69    70    1
    21    69    75    1
    22    70    73    1
    23    70    71    1
    24     8     7    1
    25    30    29    1
    26    28    29    1
    27    93    91   ar
    28    93    94   ar
    29    73    74    1
    30    91    89   ar
    31    72    71    2
    32    75    74    1
    33    29    32    1
    34    71    76   am
    35    85    84    1
    36    85    88    1
    37    49    46    1
    38    49    51    1
    39    21    20    1
    40    95    94    1
    41    84    78   am
    42    94    92   ar
    43    45    46    1
    44     7     6    1
    45    89    88    1
    46    89    90   ar
    47    76    77    1
    48     6     5    1
    49    46    47    1
    50    92    90   ar
    51    32    33    1
    52    32    34    1
    53    18    20   ar
    54    18    16   ar
    55    20    19   ar
    56    78    77    1
    57    78    79    2
    58    33    35    1
    59    77    80    1
    60     4     3    2
    61     5     2    1
    62    57    58    1
    63    57    56    1
    64    16    15   ar
    65    19    17   ar
    66    47    48    2
    67     2     3    1
    68     2     1    1
    69    60    58   am
    70    82    81    2
    71    58    59    2
    72     3    10   am
    73    80    81    1
    74    56    53    1
    75    17    15   ar
    76    15    14    1
    77    81    83   am
    78    10    11    1
    79    11    14    1
    80    11    12    1
    81    52    53    1
    82    53    54    1
    83    67    66    1
    84    68    66    1
    85    66    65    1
    86    61    54   am
    87    61    62    1
    88    12    22   am
    89    12    13    2
    90    54    55    2
    91    22    23    1
    92    65    62    1
    93    62    63    1
    94    27    26    1
    95    23    26    1
    96    23    24    1
    97    63    64    2
    98    24    25    2
