@<TRIPOS>MOLECULE
tmp/5uwzA00.pdb
 236 223 0 0 0
SMALL
GASTEIGER

@<TRIPOS>ATOM
      1  N         -9.3450   28.3320  -20.6560 N.3    12  TYR12      -0.1241
      2  CA        -9.6560   27.8210  -19.3240 C.3    12  TYR12       0.1605
      3  C         -8.8150   26.5980  -19.0080 C.2    12  TYR12       0.2264
      4  O         -8.4680   26.3670  -17.8470 O.2    12  TYR12      -0.2867
      5  CB       -11.1500   27.4880  -19.2070 C.3    12  TYR12       0.0534
      6  CG       -11.6710   27.5460  -17.7870 C.ar   12  TYR12      -0.0201
      7  CD1      -11.9530   28.7650  -17.2230 C.ar   12  TYR12      -0.0009
      8  CD2      -11.9150   26.4060  -17.0130 C.ar   12  TYR12      -0.0009
      9  CE1      -12.4040   28.8970  -15.9280 C.ar   12  TYR12       0.0417
     10  CE2      -12.3950   26.5350  -15.7100 C.ar   12  TYR12       0.0417
     11  CZ       -12.6560   27.7740  -15.1850 C.ar   12  TYR12       0.1957
     12  OH       -13.1600   27.8620  -13.9080 O.3    12  TYR12      -0.2866
     13  N         -5.6520   28.1900  -17.6020 N.3    15  ILE15      -0.1231
     14  CA        -5.8790   28.9310  -16.3800 C.3    15  ILE15       0.1692
     15  C         -6.2970   28.0060  -15.2290 C.2    15  ILE15       0.2592
     16  O         -5.7640   28.1140  -14.1060 O.2    15  ILE15      -0.2718
     17  CB        -6.8960   30.0770  -16.5990 C.3    15  ILE15       0.0266
     18  CG1       -6.3410   31.0940  -17.6270 C.3    15  ILE15       0.0019
     19  CG2       -7.2540   30.7130  -15.2560 C.3    15  ILE15       0.0020
     20  CD1       -5.0880   31.8400  -17.2300 C.3    15  ILE15       0.0001
     21  N         -7.1930   27.0590  -15.5120 N.am   16  ASN16      -0.1974
     22  CA        -7.5880   26.1230  -14.4950 C.3    16  ASN16       0.1688
     23  C         -6.3990   25.2430  -14.0580 C.2    16  ASN16       0.2292
     24  O         -6.1910   24.9930  -12.8590 O.2    16  ASN16      -0.2864
     25  CB        -8.7540   25.3120  -14.9860 C.3    16  ASN16       0.1181
     26  CG        -9.2370   24.3340  -13.9610 C.2    16  ASN16       0.2629
     27  OD1       -8.8780   23.1680  -14.0210 O.2    16  ASN16      -0.2716
     28  ND2      -10.0950   24.7830  -13.0460 N.am   16  ASN16      -0.0877
     29  N         -3.2810   26.0170  -14.0180 N.3    18  ILE18      -0.1231
     30  CA        -2.4000   26.8300  -13.1670 C.3    18  ILE18       0.1692
     31  C         -2.9240   26.8780  -11.7460 C.2    18  ILE18       0.2591
     32  O         -2.1550   26.7040  -10.8000 O.2    18  ILE18      -0.2718
     33  CB        -2.2220   28.2360  -13.7650 C.3    18  ILE18       0.0266
     34  CG1       -1.3090   28.1890  -14.9830 C.3    18  ILE18       0.0019
     35  CG2       -1.7600   29.2260  -12.7200 C.3    18  ILE18       0.0020
     36  CD1       -1.4500   29.5010  -15.7870 C.3    18  ILE18       0.0001
     37  N         -4.2220   27.1110  -11.5750 N.am   19  VAL19      -0.1980
     38  CA        -4.7550   27.2080  -10.2210 C.3    19  VAL19       0.1595
     39  C         -4.6140   25.8430   -9.5390 C.2    19  VAL19       0.2287
     40  O         -4.2460   25.7760   -8.3400 O.2    19  VAL19      -0.2864
     41  CB        -6.1990   27.7110  -10.2740 C.3    19  VAL19       0.0276
     42  CG1       -6.9000   27.5820   -8.9510 C.3    19  VAL19       0.0022
     43  CG2       -6.2810   29.1300  -10.7770 C.3    19  VAL19       0.0022
     44  N         -1.0080   25.3050   -8.5390 N.3    22  GLY22      -0.1210
     45  CA        -0.7260   26.1430   -7.3970 C.3    22  GLY22       0.1956
     46  C         -1.2470   25.5420   -6.0990 C.2    22  GLY22       0.2611
     47  O         -0.5650   25.5700   -5.0660 O.2    22  GLY22      -0.2717
     48  N         -2.4490   25.0070   -6.1480 N.am   23  GLU23      -0.1979
     49  CA        -3.0340   24.3950   -4.9560 C.3    23  GLU23       0.1602
     50  C         -2.3350   23.0800   -4.5970 C.2    23  GLU23       0.2287
     51  O         -2.1170   22.7810   -3.3980 O.2    23  GLU23      -0.2864
     52  CB        -4.5410   24.1950   -5.1230 C.3    23  GLU23       0.0415
     53  CG        -5.3780   25.4820   -5.2270 C.3    23  GLU23       0.1163
     54  CD        -5.6120   26.2660   -3.9610 C.2    23  GLU23       0.3649
     55  OE1       -4.9870   25.8940   -2.9690 O.co2  23  GLU23      -0.2457
     56  OE2       -6.4550   27.1750   -3.9560 O.co2  23  GLU23      -0.2457
     57  N          0.8010   24.1520   -2.9730 N.3    26  ALA26      -0.1245
     58  CA         0.5370   24.6950   -1.6420 C.3    26  ALA26       0.1562
     59  C          0.3100   23.5650   -0.6340 C.2    26  ALA26       0.2260
     60  O          0.8520   23.5910    0.4820 O.2    26  ALA26      -0.2867
     61  CB        -0.6350   25.6800   -1.6690 C.3    26  ALA26       0.0290
     62  N         -6.1090   23.7420    1.3660 N.3    51  GLU51      -0.1245
     63  CA        -5.6350   23.7790   -0.0340 C.3    51  GLU51       0.1567
     64  C         -6.2020   22.6500   -0.8530 C.2    51  GLU51       0.2260
     65  O         -6.5740   22.8280   -2.0270 O.2    51  GLU51      -0.2867
     66  CB        -4.1110   23.6920   -0.1430 C.3    51  GLU51       0.0388
     67  CG        -3.3240   24.8130    0.5330 C.3    51  GLU51       0.1160
     68  CD        -3.4840   26.1270   -0.1930 C.2    51  GLU51       0.3649
     69  OE1       -3.0870   27.1680    0.3740 O.co2  51  GLU51      -0.2457
     70  OE2       -3.9820   26.1150   -1.3470 O.co2  51  GLU51      -0.2457
     71  N        -11.8080   23.8320   -7.5220 N.3    58  PHE58      -0.1241
     72  CA       -11.4310   24.2840   -8.8490 C.3    58  PHE58       0.1605
     73  C        -11.4840   23.1460   -9.8590 C.2    58  PHE58       0.2264
     74  O        -11.8040   23.3930  -11.0310 O.2    58  PHE58      -0.2867
     75  CB       -10.0820   25.0060   -8.7790 C.3    58  PHE58       0.0534
     76  CG       -10.1560   26.3510   -8.0920 C.ar   58  PHE58      -0.0203
     77  CD1      -11.0400   27.3180   -8.4950 C.ar   58  PHE58      -0.0042
     78  CD2       -9.3270   26.6600   -7.0310 C.ar   58  PHE58      -0.0042
     79  CE1      -11.0580   28.5630   -7.8820 C.ar   58  PHE58      -0.0003
     80  CE2       -9.3290   27.9210   -6.4430 C.ar   58  PHE58      -0.0003
     81  CZ       -10.1980   28.8750   -6.8700 C.ar   58  PHE58      -0.0000
     82  N        -14.9460   23.1360  -11.1180 N.3    61  CYS61      -0.1235
     83  CA       -15.2020   24.2090  -12.0540 C.3    61  CYS61       0.1677
     84  C        -14.8200   23.7890  -13.4710 C.2    61  CYS61       0.2270
     85  O        -15.5390   24.0960  -14.4440 O.2    61  CYS61      -0.2867
     86  CB       -14.4310   25.4610  -11.6820 C.3    61  CYS61       0.0956
     87  SG       -14.9340   26.2460  -10.1650 S.3    61  CYS61      -0.0801
     88  N          4.9650   26.2490  -15.8400 N.3    77  TYR77      -0.1227
     89  CA         4.6680   27.6040  -15.4070 C.3    77  TYR77       0.1736
     90  C          5.2180   27.8710  -14.0080 C.2    77  TYR77       0.2595
     91  O          5.7550   28.9440  -13.7570 O.2    77  TYR77      -0.2718
     92  CB         3.1410   27.7710  -15.4590 C.3    77  TYR77       0.0548
     93  CG         2.5830   29.0970  -15.1420 C.ar   77  TYR77      -0.0200
     94  CD1        2.5910   30.1300  -16.1070 C.ar   77  TYR77      -0.0009
     95  CD2        1.9970   29.3680  -13.9040 C.ar   77  TYR77      -0.0009
     96  CE1        1.9830   31.3500  -15.8620 C.ar   77  TYR77       0.0417
     97  CE2        1.3910   30.5920  -13.6690 C.ar   77  TYR77       0.0417
     98  CZ         1.3960   31.5810  -14.6430 C.ar   77  TYR77       0.1957
     99  OH         0.7650   32.7760  -14.3750 O.3    77  TYR77      -0.2866
    100  N          5.0520   26.8840  -13.1100 N.am   78  PHE78      -0.1976
    101  CA         5.4710   26.9950  -11.7180 C.3    78  PHE78       0.1639
    102  C          6.8980   26.5110  -11.4300 C.2    78  PHE78       0.2290
    103  O          7.3800   26.6470  -10.2980 O.2    78  PHE78      -0.2864
    104  CB         4.5060   26.1940  -10.8220 C.3    78  PHE78       0.0560
    105  CG         3.3030   26.9450  -10.3980 C.ar   78  PHE78      -0.0200
    106  CD1        3.3370   27.7980   -9.3060 C.ar   78  PHE78      -0.0042
    107  CD2        2.1240   26.7890  -11.0870 C.ar   78  PHE78      -0.0042
    108  CE1        2.1750   28.4630   -8.9270 C.ar   78  PHE78      -0.0003
    109  CE2        0.9970   27.4500  -10.7390 C.ar   78  PHE78      -0.0003
    110  CZ         1.0150   28.2960   -9.6660 C.ar   78  PHE78      -0.0000
    111  N          5.1990   31.3300   -0.1480 N.3   101  GLN101     -0.1245
    112  CA         3.9050   30.6870   -0.0530 C.3   101  GLN101      0.1566
    113  C          2.8340   31.5980    0.5440 C.2   101  GLN101      0.2260
    114  O          1.7040   31.6740    0.0240 O.2   101  GLN101     -0.2867
    115  CB         4.0070   29.3980    0.7570 C.3   101  GLN101      0.0367
    116  CG         2.7530   28.5010    0.6310 C.3   101  GLN101      0.0905
    117  CD         2.6430   27.9560   -0.8000 C.2   101  GLN101      0.2608
    118  OE1        3.5620   27.3240   -1.3010 O.2   101  GLN101     -0.2717
    119  NE2        1.5680   28.2460   -1.4570 N.am  101  GLN101     -0.0878
    120  N          2.5850   34.1250   -3.3180 N.3   105  ILE105     -0.1231
    121  CA         1.5650   33.2840   -3.9540 C.3   105  ILE105      0.1692
    122  C          0.1940   33.6090   -3.4260 C.2   105  ILE105      0.2591
    123  O         -0.7680   33.6720   -4.2050 O.2   105  ILE105     -0.2718
    124  CB         1.8890   31.7550   -3.7940 C.3   105  ILE105      0.0266
    125  CG1        2.9940   31.4770   -4.7680 C.3   105  ILE105      0.0019
    126  CG2        0.6390   30.8990   -4.0650 C.3   105  ILE105      0.0020
    127  CD1        2.4180   31.3580   -6.1710 C.3   105  ILE105      0.0001
    128  N          0.0610   33.7910   -2.1270 N.am  106  GLU106     -0.1979
    129  CA        -1.2420   34.0530   -1.5530 C.3   106  GLU106      0.1602
    130  C         -1.8420   35.3450   -2.1250 C.2   106  GLU106      0.2287
    131  O         -3.0130   35.3520   -2.5350 O.2   106  GLU106     -0.2864
    132  CB        -1.0990   34.1460   -0.0410 C.3   106  GLU106      0.0415
    133  CG        -2.3770   34.4910    0.6650 C.3   106  GLU106      0.1163
    134  CD        -3.2330   33.3130    0.9360 C.2   106  GLU106      0.3649
    135  OE1       -2.9890   32.2330    0.3410 O.co2 106  GLU106     -0.2457
    136  OE2       -4.1660   33.5070    1.7320 O.co2 106  GLU106     -0.2457
    137  N         -1.0550   36.8970   -4.8920 N.3   108  PHE108     -0.1227
    138  CA        -1.2510   36.7470   -6.3270 C.3   108  PHE108      0.1736
    139  C         -2.5340   35.9580   -6.6120 C.2   108  PHE108      0.2595
    140  O         -3.3410   36.3590   -7.4640 O.2   108  PHE108     -0.2718
    141  CB        -0.0020   36.0930   -6.9180 C.3   108  PHE108      0.0547
    142  CG        -0.0100   35.9850   -8.4080 C.ar  108  PHE108     -0.0202
    143  CD1       -0.2640   37.0840   -9.2120 C.ar  108  PHE108     -0.0042
    144  CD2        0.3320   34.8130   -9.0130 C.ar  108  PHE108     -0.0042
    145  CE1       -0.2280   36.9930  -10.5820 C.ar  108  PHE108     -0.0003
    146  CE2        0.3750   34.7150  -10.3920 C.ar  108  PHE108     -0.0003
    147  CZ         0.0900   35.8060  -11.1670 C.ar  108  PHE108     -0.0000
    148  N         -2.7290   34.8510   -5.8870 N.am  109  ALA109     -0.1966
    149  CA        -3.9220   34.0520   -6.0650 C.3   109  ALA109      0.1728
    150  C         -5.1630   34.8490   -5.7240 C.2   109  ALA109      0.2616
    151  O         -6.1500   34.8440   -6.4870 O.2   109  ALA109     -0.2715
    152  CB        -3.8270   32.7850   -5.2210 C.3   109  ALA109      0.0334
    153  N         -5.1900   35.5090   -4.5610 N.am  110  ILE110     -0.1977
    154  CA        -6.3940   36.2400   -4.1880 C.3   110  ILE110      0.1596
    155  C         -6.6980   37.3490   -5.2000 C.2   110  ILE110      0.2287
    156  O         -7.8530   37.5660   -5.5430 O.2   110  ILE110     -0.2864
    157  CB        -6.2690   36.7860   -2.7560 C.3   110  ILE110      0.0276
    158  CG1       -6.1610   35.6520   -1.7300 C.3   110  ILE110      0.0022
    159  CG2       -7.4850   37.6350   -2.4110 C.3   110  ILE110      0.0022
    160  CD1       -5.8010   36.1380   -0.3510 C.3   110  ILE110      0.0001
    161  N         -5.9500   37.3100   -8.4290 N.3   112  ALA112     -0.1231
    162  CA        -6.5170   36.6550   -9.5980 C.3   112  ALA112      0.1694
    163  C         -7.9600   36.2250   -9.3540 C.2   112  ALA112      0.2592
    164  O         -8.8270   36.4250  -10.2070 O.2   112  ALA112     -0.2718
    165  CB        -5.6440   35.4610   -9.9610 C.3   112  ALA112      0.0304
    166  N         -8.2200   35.6430   -8.1950 N.am  113  TYR113     -0.1976
    167  CA        -9.5680   35.2030   -7.8840 C.3   113  TYR113      0.1639
    168  C        -10.5450   36.3750   -7.8780 C.2   113  TYR113      0.2290
    169  O        -11.6730   36.2710   -8.3860 O.2   113  TYR113     -0.2864
    170  CB        -9.6170   34.5270   -6.5200 C.3   113  TYR113      0.0560
    171  CG        -8.8000   33.2570   -6.3760 C.ar  113  TYR113     -0.0198
    172  CD1       -8.3530   32.5280   -7.4530 C.ar  113  TYR113     -0.0009
    173  CD2       -8.4120   32.8450   -5.1030 C.ar  113  TYR113     -0.0009
    174  CE1       -7.5500   31.3960   -7.2710 C.ar  113  TYR113      0.0417
    175  CE2       -7.6050   31.7310   -4.9110 C.ar  113  TYR113      0.0417
    176  CZ        -7.1790   31.0140   -5.9900 C.ar  113  TYR113      0.1957
    177  OH        -6.4000   29.9060   -5.8190 O.3   113  TYR113     -0.2866
    178  N        -11.3210   37.3780  -11.3760 N.3   116  TYR116     -0.1241
    179  CA       -12.1310   36.3630  -12.0380 C.3   116  TYR116      0.1605
    180  C        -13.6090   36.3840  -11.5900 C.2   116  TYR116      0.2264
    181  O        -14.4920   36.1910  -12.4020 O.2   116  TYR116     -0.2867
    182  CB       -11.5110   34.9980  -11.7660 C.3   116  TYR116      0.0534
    183  CG       -12.2540   33.7890  -12.2960 C.ar  116  TYR116     -0.0201
    184  CD1      -12.5910   33.6650  -13.6340 C.ar  116  TYR116     -0.0009
    185  CD2      -12.6100   32.7460  -11.4400 C.ar  116  TYR116     -0.0009
    186  CE1      -13.2260   32.5450  -14.1120 C.ar  116  TYR116      0.0417
    187  CE2      -13.2290   31.6080  -11.9090 C.ar  116  TYR116      0.0417
    188  CZ       -13.5670   31.5050  -13.2470 C.ar  116  TYR116      0.1957
    189  OH       -14.1860   30.3500  -13.6750 O.3   116  TYR116     -0.2866
    190  N         -9.6140   32.1950    2.3060 N.3   135  GLU135     -0.1245
    191  CA        -8.2790   32.7870    2.4370 C.3   135  GLU135      0.1567
    192  C         -8.2890   34.0220    3.3480 C.2   135  GLU135      0.2260
    193  O         -7.3430   34.2420    4.1070 O.2   135  GLU135     -0.2867
    194  CB        -7.7250   33.1280    1.0630 C.3   135  GLU135      0.0388
    195  CG        -7.5100   31.9190    0.1770 C.3   135  GLU135      0.1160
    196  CD        -6.5350   30.8780    0.7320 C.2   135  GLU135      0.3649
    197  OE1       -5.5330   31.2030    1.3790 O.co2 135  GLU135     -0.2457
    198  OE2       -6.7600   29.7020    0.4640 O.co2 135  GLU135     -0.2457
    199  N          2.6000   36.2650  -14.7010 N.3   172  LEU172     -0.1245
    200  CA         1.4060   36.9910  -15.0950 C.3   172  LEU172      0.1561
    201  C          1.4410   37.3380  -16.5710 C.2   172  LEU172      0.2260
    202  O          0.4620   37.1600  -17.2880 O.2   172  LEU172     -0.2867
    203  CB         1.2700   38.2270  -14.2300 C.3   172  LEU172      0.0270
    204  CG         0.0060   39.0110  -14.4660 C.3   172  LEU172      0.0019
    205  CD1       -1.2770   38.2140  -14.2240 C.3   172  LEU172      0.0001
    206  CD2        0.0150   40.2270  -13.5450 C.3   172  LEU172      0.0001
    207  N          0.4780   34.5790  -19.2000 N.3   175  VAL175     -0.1245
    208  CA        -0.8950   34.1190  -19.3890 C.3   175  VAL175      0.1561
    209  C         -1.8130   35.2520  -19.8290 C.2   175  VAL175      0.2260
    210  O         -3.0250   35.0730  -19.8410 O.2   175  VAL175     -0.2867
    211  CB        -1.4480   33.4280  -18.1620 C.3   175  VAL175      0.0252
    212  CG1       -0.7030   32.1130  -17.9690 C.3   175  VAL175      0.0019
    213  CG2       -1.4860   34.3380  -16.9380 C.3   175  VAL175      0.0019
    214  N         -5.9540   35.2190  -19.8720 N.3   179  THR179     -0.1218
    215  CA        -6.7710   36.0520  -18.9950 C.3   179  THR179      0.1862
    216  C         -7.6650   36.9810  -19.8290 C.2   179  THR179      0.2287
    217  O         -8.8210   37.2020  -19.4610 O.2   179  THR179     -0.2866
    218  CB        -5.9340   36.8110  -17.9510 C.3   179  THR179      0.1770
    219  OG1       -4.8750   37.5200  -18.5940 O.3   179  THR179     -0.2211
    220  CG2       -5.3630   35.8700  -16.9170 C.3   179  THR179      0.0375
    221  N        -10.5880   38.8680  -17.9240 N.3   184  MET184     -0.1245
    222  CA        -9.8650   39.3270  -16.7360 C.3   184  MET184      0.1570
    223  C         -8.7970   40.3260  -17.1700 C.2   184  MET184      0.2261
    224  O         -7.9280   40.0000  -17.9770 O.2   184  MET184     -0.2867
    225  CB        -9.1920   38.1500  -16.0730 C.3   184  MET184      0.0387
    226  CG       -10.1730   37.1650  -15.4780 C.3   184  MET184      0.0595
    227  SD        -9.3830   35.6060  -14.9430 S.3   184  MET184     -0.1393
    228  CE        -8.3040   36.2340  -13.6520 C.3   184  MET184      0.0692
    229  N         -5.3000   42.6840  -11.9930 N.3   189  ILE189     -0.1245
    230  CA        -4.5670   41.7100  -11.1900 C.3   189  ILE189      0.1561
    231  C         -3.2970   42.3490  -10.5770 C.2   189  ILE189      0.2260
    232  O         -3.0290   42.1760   -9.3810 O.2   189  ILE189     -0.2867
    233  CB        -4.2160   40.4400  -11.9820 C.3   189  ILE189      0.0252
    234  CG1       -5.4610   39.7950  -12.6030 C.3   189  ILE189      0.0019
    235  CG2       -3.4780   39.4720  -11.0800 C.3   189  ILE189      0.0019
    236  CD1       -5.1600   38.6710  -13.5550 C.3   189  ILE189      0.0001
@<TRIPOS>BOND
     1     1     2    1
     2   214   215    1
     3   210   209    2
     4   209   208    1
     5   216   217    2
     6   216   215    1
     7   208   207    1
     8   208   211    1
     9     2     5    1
    10     2     3    1
    11     5     6    1
    12     3     4    2
    13   215   218    1
    14   219   218    1
    15   211   212    1
    16   211   213    1
    17   224   223    2
    18   218   220    1
    19   221   222    1
    20     6     7   ar
    21     6     8   ar
    22    18    20    1
    23    18    17    1
    24    13    14    1
    25   202   201    2
    26     7     9   ar
    27   223   222    1
    28     8    10   ar
    29   222   225    1
    30    17    14    1
    31    17    19    1
    32   201   200    1
    33    14    15    1
    34    94    96   ar
    35    94    93   ar
    36   225   226    1
    37     9    11   ar
    38    96    98   ar
    39    88    89    1
    40    36    34    1
    41    10    11   ar
    42    21    15   am
    43    21    22    1
    44   226   227    1
    45    92    89    1
    46    92    93    1
    47    89    90    1
    48    15    16    2
    49    11    12    1
    50    93    95   ar
    51   200   199    1
    52   200   203    1
    53    25    22    1
    54    25    26    1
    55    34    33    1
    56   227   228    1
    57    98    99    1
    58    98    97   ar
    59    22    23    1
    60   204   203    1
    61   204   205    1
    62   204   206    1
    63    85    84    2
    64   186   184   ar
    65   186   188   ar
    66    23    24    2
    67    27    26    2
    68    29    30    1
    69    90    91    2
    70    90   100   am
    71    26    28   am
    72    95    97   ar
    73    33    30    1
    74    33    35    1
    75   189   188    1
    76   184   183   ar
    77   236   234    1
    78    84    83    1
    79   188   187   ar
    80    30    31    1
    81   100   101    1
    82   234   233    1
    83   181   180    2
    84   183   182    1
    85   183   185   ar
    86    83    86    1
    87    83    82    1
    88   179   182    1
    89   179   180    1
    90   179   178    1
    91   229   230    1
    92   233   230    1
    93   233   235    1
    94   187   185   ar
    95    31    37   am
    96    31    32    2
    97   101   102    1
    98   101   104    1
    99    86    87    1
   100    37    38    1
   101   102   103    2
   102   230   231    1
   103   147   145   ar
   104   147   146   ar
   105   107   109   ar
   106   107   105   ar
   107    74    73    2
   108   104   105    1
   109    43    41    1
   110   109   110   ar
   111   145   143   ar
   112   231   232    2
   113   105   106   ar
   114   146   144   ar
   115    41    38    1
   116    41    42    1
   117    38    39    1
   118   164   163    2
   119   165   162    1
   120    73    72    1
   121   110   108   ar
   122   162   163    1
   123   162   161    1
   124    39    40    2
   125   163   166   am
   126   106   108   ar
   127   143   142   ar
   128   144   142   ar
   129    72    75    1
   130    72    71    1
   131    75    76    1
   132    44    45    1
   133    77    76   ar
   134    77    79   ar
   135   142   141    1
   136   169   168    2
   137   166   167    1
   138    76    78   ar
   139   167   168    1
   140   167   170    1
   141    79    81   ar
   142   140   139    2
   143   172   174   ar
   144   172   171   ar
   145    45    46    1
   146   174   176   ar
   147    78    80   ar
   148   141   138    1
   149    81    80   ar
   150   139   138    1
   151   139   148   am
   152   170   171    1
   153   151   150    2
   154   171   173   ar
   155   138   137    1
   156   127   125    1
   157    48    46   am
   158    48    49    1
   159    46    47    2
   160   149   148    1
   161   149   150    1
   162   149   152    1
   163   176   177    1
   164   176   175   ar
   165   150   153   am
   166   156   155    2
   167    53    52    1
   168    53    54    1
   169   155   154    1
   170    52    49    1
   171   173   175   ar
   172    49    50    1
   173   125   124    1
   174    50    51    2
   175   153   154    1
   176   123   122    2
   177   154   157    1
   178   126   124    1
   179    54    56   ar
   180    54    55   ar
   181   121   124    1
   182   121   122    1
   183   121   120    1
   184   122   128   am
   185    57    58    1
   186   157   159    1
   187   157   158    1
   188   131   130    2
   189   128   129    1
   190   130   129    1
   191    65    64    2
   192   158   160    1
   193    61    58    1
   194    58    59    1
   195   129   132    1
   196   119   117   am
   197    70    68   ar
   198   118   117    2
   199    64    63    1
   200   117   116    1
   201    59    60    2
   202    68    69   ar
   203    68    67    1
   204   111   112    1
   205    66    63    1
   206    66    67    1
   207   112   113    1
   208   112   115    1
   209   132   133    1
   210    63    62    1
   211   114   113    2
   212   195   196    1
   213   195   194    1
   214   135   134   ar
   215   198   196   ar
   216   116   115    1
   217   133   134    1
   218   196   197   ar
   219   134   136   ar
   220   194   191    1
   221   190   191    1
   222   191   192    1
   223   192   193    2
