@<TRIPOS>MOLECULE
tmp/5ux4B01.pdb
 226 218 0 0 0
SMALL
GASTEIGER

@<TRIPOS>ATOM
      1  N         49.2180   19.8800   21.0180 N.3    13  ALA13      -0.1231
      2  CA        48.1050   19.0500   20.5800 C.3    13  ALA13       0.1694
      3  C         48.5300   17.7460   19.9250 C.2    13  ALA13       0.2592
      4  O         47.7750   16.7730   19.9770 O.2    13  ALA13      -0.2718
      5  CB        47.2140   19.8270   19.6020 C.3    13  ALA13       0.0304
      6  N         49.7100   17.7000   19.3110 N.am   14  GLN14      -0.1966
      7  CA        50.1860   16.5100   18.6180 C.3    14  GLN14       0.1733
      8  C         51.5960   16.1860   19.0850 C.2    14  GLN14       0.2616
      9  O         52.4650   17.0640   19.1010 O.2    14  GLN14      -0.2715
     10  CB        50.1630   16.7090   17.0980 C.3    14  GLN14       0.0408
     11  CG        48.8190   17.1670   16.5510 C.3    14  GLN14       0.0908
     12  CD        48.8420   17.3780   15.0500 C.2    14  GLN14       0.2608
     13  OE1       49.7210   16.8720   14.3550 O.2    14  GLN14      -0.2717
     14  NE2       47.8740   18.1330   14.5440 N.am   14  GLN14      -0.0878
     15  N         51.8190   14.9290   19.4610 N.am   15  TYR15      -0.1974
     16  CA        53.1300   14.4470   19.8800 C.3    15  TYR15       0.1639
     17  C         53.4860   13.2390   19.0290 C.2    15  TYR15       0.2290
     18  O         52.7810   12.2250   19.0620 O.2    15  TYR15      -0.2864
     19  CB        53.1400   14.0870   21.3680 C.3    15  TYR15       0.0560
     20  CG        52.9260   15.2740   22.2810 C.ar   15  TYR15      -0.0198
     21  CD1       51.6470   15.6800   22.6370 C.ar   15  TYR15      -0.0009
     22  CD2       54.0040   15.9910   22.7850 C.ar   15  TYR15      -0.0009
     23  CE1       51.4470   16.7650   23.4710 C.ar   15  TYR15       0.0417
     24  CE2       53.8140   17.0750   23.6190 C.ar   15  TYR15       0.0417
     25  CZ        52.5350   17.4590   23.9570 C.ar   15  TYR15       0.1957
     26  OH        52.3410   18.5400   24.7870 O.3    15  TYR15      -0.2866
     27  N         52.2780    8.8260   15.7840 N.3    31  VAL31      -0.1245
     28  CA        51.8560    9.1080   17.1500 C.3    31  VAL31       0.1561
     29  C         51.7990    7.7850   17.8980 C.2    31  VAL31       0.2260
     30  O         51.0080    6.9000   17.5530 O.2    31  VAL31      -0.2867
     31  CB        50.4980    9.8220   17.1870 C.3    31  VAL31       0.0252
     32  CG1       50.0580   10.0420   18.6270 C.3    31  VAL31       0.0019
     33  CG2       50.5750   11.1410   16.4520 C.3    31  VAL31       0.0019
     34  N         50.3710    5.7780   20.1500 N.3    33  ASP33      -0.1239
     35  CA        49.0060    5.9820   20.6150 C.3    33  ASP33       0.1674
     36  C         48.5740    4.8140   21.4910 C.2    33  ASP33       0.2266
     37  O         48.5040    3.6730   21.0220 O.2    33  ASP33      -0.2867
     38  CB        48.0690    6.1360   19.4180 C.3    33  ASP33       0.1410
     39  CG        46.6350    6.3740   19.8220 C.2    33  ASP33       0.3668
     40  OD1       46.3900    6.7670   20.9830 O.co2  33  ASP33      -0.2456
     41  OD2       45.7520    6.1610   18.9680 O.co2  33  ASP33      -0.2456
     42  N         45.5940    4.6170   22.6020 N.3    35  GLY35      -0.1210
     43  CA        44.1790    4.4760   22.3370 C.3    35  GLY35       0.1956
     44  C         43.8320    3.6000   21.1570 C.2    35  GLY35       0.2613
     45  O         42.6510    3.4860   20.8120 O.2    35  GLY35      -0.2717
     46  N         44.8270    2.9890   20.5160 N.am   36  SER36      -0.1938
     47  CA        44.6210    2.0390   19.4340 C.3    36  SER36       0.2055
     48  C         45.6670    0.9400   19.5660 C.2    36  SER36       0.2644
     49  O         46.4580    0.9190   20.5140 O.2    36  SER36      -0.2714
     50  CB        44.6930    2.7250   18.0640 C.3    36  SER36       0.2130
     51  OG        45.8670    3.5090   17.9420 O.3    36  SER36      -0.2179
     52  N         45.6770    0.0160   18.6040 N.am   37  SER37      -0.1935
     53  CA        46.6210   -1.0930   18.6570 C.3    37  SER37       0.2055
     54  C         47.1610   -1.4890   17.2870 C.2    37  SER37       0.2643
     55  O         47.8240   -2.5290   17.1810 O.2    37  SER37      -0.2714
     56  CB        45.9770   -2.3110   19.3290 C.3    37  SER37       0.2130
     57  OG        45.6650   -2.0370   20.6830 O.3    37  SER37      -0.2179
     58  N         46.9090   -0.7050   16.2440 N.am   38  ASN38      -0.1971
     59  CA        47.4000   -0.9990   14.9080 C.3    38  ASN38       0.1688
     60  C         48.4950   -0.0160   14.5170 C.2    38  ASN38       0.2292
     61  O         48.5270    1.1260   14.9840 O.2    38  ASN38      -0.2864
     62  CB        46.2690   -0.9420   13.8750 C.3    38  ASN38       0.1181
     63  CG        45.2620   -2.0620   14.0470 C.2    38  ASN38       0.2629
     64  OD1       44.2310   -1.8920   14.6990 O.2    38  ASN38      -0.2716
     65  ND2       45.5570   -3.2160   13.4610 N.am   38  ASN38      -0.0877
     66  N         49.9870    1.8040   11.1160 N.3    40  TRP40      -0.1241
     67  CA        49.7090    2.0570    9.7120 C.3    40  TRP40       0.1605
     68  C         50.3600    3.3580    9.2700 C.2    40  TRP40       0.2264
     69  O         50.5060    4.3020   10.0510 O.2    40  TRP40      -0.2867
     70  CB        48.2010    2.0890    9.4170 C.3    40  TRP40       0.0550
     71  CG        47.4190    3.1370   10.1560 C.ar   40  TRP40       0.0003
     72  CD1       46.7130    2.9680   11.3120 C.ar   40  TRP40       0.0946
     73  CD2       47.2390    4.5080    9.7740 C.ar   40  TRP40       0.0152
     74  NE1       46.1140    4.1490   11.6790 N.ar   40  TRP40      -0.2442
     75  CE2       46.4220    5.1100   10.7520 C.ar   40  TRP40       0.0810
     76  CE3       47.6940    5.2860    8.7040 C.ar   40  TRP40       0.0012
     77  CZ2       46.0510    6.4520   10.6920 C.ar   40  TRP40       0.0191
     78  CZ3       47.3240    6.6190    8.6460 C.ar   40  TRP40       0.0001
     79  CH2       46.5110    7.1880    9.6340 C.ar   40  TRP40       0.0015
     80  N         39.1900    0.9320    8.7920 N.3    76  ILE76      -0.1231
     81  CA        39.1310    1.3750   10.1790 C.3    76  ILE76       0.1692
     82  C         38.2120    2.5840   10.2640 C.2    76  ILE76       0.2592
     83  O         38.3130    3.5040    9.4440 O.2    76  ILE76      -0.2718
     84  CB        40.5340    1.7130   10.7150 C.3    76  ILE76       0.0266
     85  CG1       41.4380    0.4800   10.6560 C.3    76  ILE76       0.0019
     86  CG2       40.4480    2.2430   12.1320 C.3    76  ILE76       0.0020
     87  CD1       42.8820    0.7640   11.0120 C.3    76  ILE76       0.0001
     88  N         37.3160    2.5790   11.2490 N.am   77  HIS77      -0.1962
     89  CA        36.4230    3.6960   11.5190 C.3    77  HIS77       0.1787
     90  C         36.6210    4.1800   12.9490 C.2    77  HIS77       0.2620
     91  O         36.9620    3.4000   13.8430 O.2    77  HIS77      -0.2715
     92  CB        34.9510    3.3080   11.3130 C.3    77  HIS77       0.0785
     93  CG        34.6090    2.9400    9.9030 C.ar   77  HIS77       0.0821
     94  ND1       34.3550    3.8800    8.9280 N.ar   77  HIS77      -0.2267
     95  CD2       34.4650    1.7320    9.3070 C.ar   77  HIS77       0.1154
     96  CE1       34.0770    3.2690    7.7910 C.ar   77  HIS77       0.1986
     97  NE2       34.1370    1.9650    7.9940 N.ar   77  HIS77      -0.2212
     98  N         36.4010    5.4750   13.1580 N.am   78  TYR78      -0.1974
     99  CA        36.4520    6.0620   14.4920 C.3    78  TYR78       0.1639
    100  C         35.7330    7.4100   14.4470 C.2    78  TYR78       0.2290
    101  O         34.9800    7.6900   13.5060 O.2    78  TYR78      -0.2864
    102  CB        37.9060    6.1670   14.9870 C.3    78  TYR78       0.0560
    103  CG        38.7860    7.0920   14.1790 C.ar   78  TYR78      -0.0198
    104  CD1       39.3180    6.6900   12.9600 C.ar   78  TYR78      -0.0009
    105  CD2       39.1020    8.3620   14.6440 C.ar   78  TYR78      -0.0009
    106  CE1       40.1260    7.5310   12.2210 C.ar   78  TYR78       0.0417
    107  CE2       39.9120    9.2100   13.9130 C.ar   78  TYR78       0.0417
    108  CZ        40.4210    8.7890   12.7030 C.ar   78  TYR78       0.1957
    109  OH        41.2270    9.6300   11.9700 O.3    78  TYR78      -0.2866
    110  N         39.6610    5.1970    7.4200 N.3    83  LEU83      -0.1245
    111  CA        40.7310    4.9310    6.4680 C.3    83  LEU83       0.1561
    112  C         40.7270    3.4480    6.1320 C.2    83  LEU83       0.2260
    113  O         40.2630    2.6210    6.9220 O.2    83  LEU83      -0.2867
    114  CB        42.1030    5.3480    7.0110 C.3    83  LEU83       0.0270
    115  CG        42.7150    4.4820    8.1120 C.3    83  LEU83       0.0019
    116  CD1       44.2290    4.4710    7.9860 C.3    83  LEU83       0.0001
    117  CD2       42.2980    4.9770    9.4870 C.3    83  LEU83       0.0001
    118  N         40.4790   15.6210    7.9700 N.3   117  VAL117     -0.1231
    119  CA        41.1930   15.5560    9.2400 C.3   117  VAL117      0.1692
    120  C         42.6670   15.2190    9.0340 C.2   117  VAL117      0.2592
    121  O         43.5230   15.6760    9.8010 O.2   117  VAL117     -0.2718
    122  CB        40.5060   14.5460   10.1790 C.3   117  VAL117      0.0266
    123  CG1       40.5620   13.1360    9.5970 C.3   117  VAL117      0.0020
    124  CG2       41.1300   14.5880   11.5670 C.3   117  VAL117      0.0020
    125  N         42.9970   14.4410    8.0020 N.am  118  PHE118     -0.1976
    126  CA        44.3740   14.0010    7.8110 C.3   118  PHE118      0.1639
    127  C         45.2870   15.1030    7.2920 C.2   118  PHE118      0.2290
    128  O         46.5050   14.9030    7.2560 O.2   118  PHE118     -0.2864
    129  CB        44.4160   12.8040    6.8610 C.3   118  PHE118      0.0560
    130  CG        43.9380   11.5260    7.4850 C.ar  118  PHE118     -0.0200
    131  CD1       42.7970   10.8930    7.0200 C.ar  118  PHE118     -0.0042
    132  CD2       44.6230   10.9660    8.5500 C.ar  118  PHE118     -0.0042
    133  CE1       42.3560    9.7170    7.5980 C.ar  118  PHE118     -0.0003
    134  CE2       44.1870    9.7930    9.1340 C.ar  118  PHE118     -0.0003
    135  CZ        43.0520    9.1670    8.6580 C.ar  118  PHE118     -0.0000
    136  N         46.9570   16.9060   10.4970 N.3   121  ALA121     -0.1245
    137  CA        47.9190   16.0880   11.2240 C.3   121  ALA121      0.1562
    138  C         49.3160   16.2780   10.6450 C.2   121  ALA121      0.2260
    139  O         49.5350   16.0600    9.4480 O.2   121  ALA121     -0.2867
    140  CB        47.5100   14.6190   11.1680 C.3   121  ALA121      0.0290
    141  N         51.7520   14.4050   11.3160 N.3   123  PHE123     -0.1241
    142  CA        52.3870   13.0990   11.3800 C.3   123  PHE123      0.1605
    143  C         51.8340   12.1940   10.2860 C.2   123  PHE123      0.2264
    144  O         50.7130   12.3760    9.8050 O.2   123  PHE123     -0.2867
    145  CB        52.1820   12.4530   12.7570 C.3   123  PHE123      0.0534
    146  CG        50.7520   12.4490   13.2190 C.ar  123  PHE123     -0.0203
    147  CD1       49.9240   11.3750   12.9400 C.ar  123  PHE123     -0.0042
    148  CD2       50.2340   13.5200   13.9310 C.ar  123  PHE123     -0.0042
    149  CE1       48.6080   11.3680   13.3620 C.ar  123  PHE123     -0.0003
    150  CE2       48.9200   13.5180   14.3560 C.ar  123  PHE123     -0.0003
    151  CZ        48.1060   12.4410   14.0710 C.ar  123  PHE123     -0.0000
    152  N         50.1530    6.0890   12.6010 N.3   126  ILE126     -0.1245
    153  CA        49.8740    5.7810   13.9990 C.3   126  ILE126      0.1561
    154  C         50.5120    4.4490   14.3540 C.2   126  ILE126      0.2260
    155  O         50.4450    3.4910   13.5770 O.2   126  ILE126     -0.2867
    156  CB        48.3590    5.7240   14.2690 C.3   126  ILE126      0.0252
    157  CG1       47.7370    7.0990   14.1120 C.3   126  ILE126      0.0019
    158  CG2       48.0600    5.1730   15.6600 C.3   126  ILE126      0.0019
    159  CD1       46.2800    7.0420   14.2980 C.3   126  ILE126      0.0001
    160  N         41.7300   -4.7880   20.9580 N.3   134  ILE134     -0.1245
    161  CA        41.1290   -3.7640   20.1120 C.3   134  ILE134      0.1561
    162  C         41.8630   -3.6130   18.7860 C.2   134  ILE134      0.2260
    163  O         41.5960   -2.6640   18.0420 O.2   134  ILE134     -0.2867
    164  CB        41.0440   -2.4130   20.8400 C.3   134  ILE134      0.0252
    165  CG1       42.4340   -1.9570   21.2880 C.3   134  ILE134      0.0019
    166  CG2       40.0900   -2.5020   22.0170 C.3   134  ILE134      0.0019
    167  CD1       42.5080   -0.4900   21.6490 C.3   134  ILE134      0.0001
    168  N         42.4420   -4.0560   15.0650 N.3   136  VAL136     -0.1245
    169  CA        41.6280   -4.4230   13.9140 C.3   136  VAL136      0.1561
    170  C         42.3050   -5.5510   13.1490 C.2   136  VAL136      0.2260
    171  O         43.5220   -5.5320   12.9170 O.2   136  VAL136     -0.2867
    172  CB        41.3840   -3.2010   13.0130 C.3   136  VAL136      0.0252
    173  CG1       40.4910   -3.5730   11.8380 C.3   136  VAL136      0.0019
    174  CG2       40.7660   -2.0680   13.8170 C.3   136  VAL136      0.0019
    175  N         41.5970   -0.8770   25.9020 N.3   197  TYR197     -0.1241
    176  CA        42.3200    0.3570   26.1440 C.3   197  TYR197      0.1605
    177  C         43.0480    0.2470   27.4800 C.2   197  TYR197      0.2264
    178  O         42.8590   -0.7040   28.2420 O.2   197  TYR197     -0.2867
    179  CB        41.3710    1.5550   26.1510 C.3   197  TYR197      0.0534
    180  CG        40.5020    1.6820   24.9190 C.ar  197  TYR197     -0.0201
    181  CD1       40.9690    2.3240   23.7780 C.ar  197  TYR197     -0.0009
    182  CD2       39.2080    1.1760   24.9030 C.ar  197  TYR197     -0.0009
    183  CE1       40.1760    2.4470   22.6510 C.ar  197  TYR197      0.0417
    184  CE2       38.4070    1.2950   23.7820 C.ar  197  TYR197      0.0417
    185  CZ        38.8960    1.9320   22.6600 C.ar  197  TYR197      0.1957
    186  OH        38.1010    2.0520   21.5430 O.3   197  TYR197     -0.2866
    187  N         45.0510    7.8460   27.3730 N.3   223  ASP223     -0.1225
    188  CA        45.1550    7.8680   25.9170 C.3   223  ASP223      0.1805
    189  C         46.1140    8.9740   25.4910 C.2   223  ASP223      0.2598
    190  O         45.7720   10.1600   25.5630 O.2   223  ASP223     -0.2718
    191  CB        43.7760    8.0670   25.2900 C.3   223  ASP223      0.1424
    192  CG        43.8030    8.0000   23.7780 C.2   223  ASP223      0.3668
    193  OD1       44.8020    7.5060   23.2170 O.co2 223  ASP223     -0.2456
    194  OD2       42.8220    8.4480   23.1490 O.co2 223  ASP223     -0.2456
    195  N         47.3060    8.5850   25.0320 N.am  224  THR224     -0.1939
    196  CA        48.2640    9.5480   24.5000 C.3   224  THR224      0.2028
    197  C         47.8430   10.1130   23.1490 C.2   224  THR224      0.2643
    198  O         48.4600   11.0770   22.6830 O.2   224  THR224     -0.2714
    199  CB        49.6500    8.9070   24.3650 C.3   224  THR224      0.1808
    200  OG1       49.5790    7.7980   23.4590 O.3   224  THR224     -0.2208
    201  CG2       50.1560    8.4200   25.7130 C.3   224  THR224      0.0379
    202  N         46.8240    9.5420   22.5120 N.am  225  GLY225     -0.1939
    203  CA        46.3990    9.9920   21.2010 C.3   225  GLY225      0.2014
    204  C         45.2000   10.9170   21.2230 C.2   225  GLY225      0.2640
    205  O         44.5340   11.1030   20.1990 O.2   225  GLY225     -0.2714
    206  N         44.9080   11.4980   22.3840 N.am  226  THR226     -0.1936
    207  CA        43.8510   12.4890   22.5290 C.3   226  THR226      0.2028
    208  C         44.4600   13.7770   23.0590 C.2   226  THR226      0.2642
    209  O         45.1660   13.7630   24.0730 O.2   226  THR226     -0.2714
    210  CB        42.7430   12.0000   23.4670 C.3   226  THR226      0.1808
    211  OG1       42.1050   10.8480   22.9010 O.3   226  THR226     -0.2208
    212  CG2       41.7020   13.0910   23.6770 C.3   226  THR226      0.0379
    213  N         44.1860   14.8870   22.3710 N.am  227  SER227     -0.1949
    214  CA        44.7790   16.1610   22.7640 C.3   227  SER227      0.1924
    215  C         44.2690   16.6230   24.1240 C.2   227  SER227      0.2314
    216  O         45.0340   17.1790   24.9200 O.2   227  SER227     -0.2863
    217  CB        44.4910   17.2240   21.7020 C.3   227  SER227      0.2116
    218  OG        45.0870   16.8900   20.4600 O.3   227  SER227     -0.2180
    219  N         46.3110   14.1490   26.5570 N.3   315  ASP315     -0.1239
    220  CA        47.6320   14.7600   26.6560 C.3   315  ASP315      0.1674
    221  C         47.7090   15.8320   27.7360 C.2   315  ASP315      0.2266
    222  O         48.8080   16.1220   28.2210 O.2   315  ASP315     -0.2867
    223  CB        48.0400   15.3510   25.3050 C.3   315  ASP315      0.1410
    224  CG        48.2870   14.2840   24.2540 C.2   315  ASP315      0.3668
    225  OD1       48.5300   13.1200   24.6350 O.co2 315  ASP315     -0.2456
    226  OD2       48.2440   14.6100   23.0480 O.co2 315  ASP315     -0.2456
@<TRIPOS>BOND
     1   112   111    1
     2   112   113    2
     3   111   114    1
     4   111   110    1
     5   129   130    1
     6   129   126    1
     7   114   115    1
     8   131   130   ar
     9   131   133   ar
    10   128   127    2
    11   127   126    1
    12   130   132   ar
    13   133   135   ar
    14    96    97   ar
    15    96    94   ar
    16   126   125    1
    17   118   119    1
    18   116   115    1
    19    97    95   ar
    20   125   120   am
    21   115   117    1
    22   132   134   ar
    23    78    76   ar
    24    78    79   ar
    25   135   134   ar
    26    76    73   ar
    27    80    81    1
    28    94    93   ar
    29   120   119    1
    30   120   121    2
    31   119   122    1
    32    68    67    1
    33    68    69    2
    34    95    93   ar
    35    70    67    1
    36    70    71    1
    37    83    82    2
    38   139   138    2
    39   123   122    1
    40    79    77   ar
    41    67    66    1
    42    73    71   ar
    43    73    75   ar
    44   144   143    2
    45    93    92    1
    46    71    72   ar
    47   122   124    1
    48    81    82    1
    49    81    84    1
    50    82    88   am
    51   143   142    1
    52   136   137    1
    53   138   137    1
    54    85    84    1
    55    85    87    1
    56    77    75   ar
    57    84    86    1
    58    75    74   ar
    59   140   137    1
    60    88    89    1
    61    72    74   ar
    62    92    89    1
    63   141   142    1
    64   142   145    1
    65    89    90    1
    66   173   172    1
    67   109   108    1
    68   106   108   ar
    69   106   104   ar
    70   152   153    1
    71   108   107   ar
    72   145   146    1
    73   171   170    2
    74   147   146   ar
    75   147   149   ar
    76    90    98   am
    77    90    91    2
    78   104   103   ar
    79   172   174    1
    80   172   169    1
    81   170   169    1
    82    98    99    1
    83   146   148   ar
    84   149   151   ar
    85    65    63   am
    86   101   100    2
    87   155   154    2
    88    62    63    1
    89    62    59    1
    90   107   105   ar
    91   169   168    1
    92   148   150   ar
    93   153   156    1
    94   153   154    1
    95    63    64    2
    96   151   150   ar
    97   157   156    1
    98   157   159    1
    99   103   105   ar
   100   103   102    1
   101   156   158    1
   102    13    12    2
   103   100    99    1
   104    99   102    1
   105    60    59    1
   106    60    61    2
   107    14    12   am
   108    59    58    1
   109    12    11    1
   110    27    28    1
   111    58    54   am
   112    33    31    1
   113    11    10    1
   114    10     7    1
   115    28    31    1
   116    28    29    1
   117    55    54    2
   118    31    32    1
   119    54    53    1
   120    30    29    2
   121    51    50    1
   122   163   162    2
   123    50    47    1
   124    52    53    1
   125    52    48   am
   126     7     8    1
   127     7     6    1
   128    53    56    1
   129   162   161    1
   130    41    39   ar
   131    17    18    2
   132    17    16    1
   133     8     9    2
   134     8    15   am
   135     6     3   am
   136    56    57    1
   137    38    39    1
   138    38    35    1
   139    47    48    1
   140    47    46    1
   141    15    16    1
   142    48    49    2
   143     5     2    1
   144    39    40   ar
   145    16    19    1
   146     3     4    2
   147     3     2    1
   148   161   164    1
   149   161   160    1
   150    34    35    1
   151   205   204    2
   152   218   217    1
   153    46    44   am
   154     2     1    1
   155    35    36    1
   156    45    44    2
   157   164   165    1
   158   164   166    1
   159    37    36    2
   160    44    43    1
   161   203   204    1
   162   203   202    1
   163   204   206   am
   164   165   167    1
   165    19    20    1
   166   186   185    1
   167   217   214    1
   168    20    21   ar
   169    20    22   ar
   170    43    42    1
   171   213   214    1
   172   213   208   am
   173   206   207    1
   174   202   197   am
   175   207   208    1
   176   207   210    1
   177    21    23   ar
   178   183   185   ar
   179   183   181   ar
   180   185   184   ar
   181   198   197    2
   182   214   215    1
   183    22    24   ar
   184   211   210    1
   185   226   224   ar
   186   208   209    2
   187   194   192   ar
   188   197   196    1
   189   193   192   ar
   190   200   199    1
   191   210   212    1
   192    23    25   ar
   193    24    25   ar
   194   192   191    1
   195   181   180   ar
   196   184   182   ar
   197    25    26    1
   198   215   216    2
   199   224   225   ar
   200   224   223    1
   201   199   196    1
   202   199   201    1
   203   196   195    1
   204   182   180   ar
   205   180   179    1
   206   195   189   am
   207   191   188    1
   208   223   220    1
   209   189   190    2
   210   189   188    1
   211   175   176    1
   212   188   187    1
   213   176   179    1
   214   176   177    1
   215   219   220    1
   216   220   221    1
   217   177   178    2
   218   221   222    2
