@<TRIPOS>MOLECULE
tmp/5ux4B00.pdb
 87 81 0 0 0
SMALL
GASTEIGER

@<TRIPOS>ATOM
      1  N         57.4000   -8.6270    3.1150 N.3    68  VAL68      -0.1231
      2  CA        56.6100   -9.8120    2.8050 C.3    68  VAL68       0.1692
      3  C         55.1650   -9.3660    2.6350 C.2    68  VAL68       0.2592
      4  O         54.6260   -8.6570    3.4930 O.2    68  VAL68      -0.2718
      5  CB        56.7330  -10.8800    3.9060 C.3    68  VAL68       0.0266
      6  CG1       55.9750  -12.1400    3.5150 C.3    68  VAL68       0.0020
      7  CG2       58.1960  -11.1900    4.1860 C.3    68  VAL68       0.0020
      8  N         54.5400   -9.7680    1.5320 N.am   69  LYS69      -0.1966
      9  CA        53.1870   -9.3110    1.2510 C.3    69  LYS69       0.1728
     10  C         52.1630  -10.1580    1.9980 C.2    69  LYS69       0.2616
     11  O         52.3010  -11.3800    2.1090 O.2    69  LYS69      -0.2715
     12  CB        52.9050   -9.3270   -0.2550 C.3    69  LYS69       0.0311
     13  CG        52.5470  -10.6740   -0.8580 C.3    69  LYS69       0.0038
     14  CD        51.7810  -10.4860   -2.1610 C.3    69  LYS69       0.0206
     15  CE        50.4870   -9.7160   -1.9270 C.3    69  LYS69       0.1093
     16  NZ        49.7920   -9.3670   -3.1970 N.3    69  LYS69      -0.1314
     17  N         51.1490   -9.4880    2.5400 N.am   70  ASN70      -0.1972
     18  CA        49.9970  -10.1200    3.1740 C.3    70  ASN70       0.1688
     19  C         48.7080   -9.8670    2.4100 C.2    70  ASN70       0.2292
     20  O         47.8930  -10.7790    2.2630 O.2    70  ASN70      -0.2864
     21  CB        49.8490   -9.6200    4.6200 C.3    70  ASN70       0.1181
     22  CG        48.7820  -10.3760    5.4160 C.2    70  ASN70       0.2629
     23  OD1       47.5880  -10.2590    5.1440 O.2    70  ASN70      -0.2716
     24  ND2       49.2220  -11.1420    6.4190 N.am   70  ASN70      -0.0877
     25  N         45.8400   -8.6560    2.8240 N.3    72  THR72      -0.1218
     26  CA        44.5090   -8.5970    3.4150 C.3    72  THR72       0.1862
     27  C         44.0690   -7.1480    3.5820 C.2    72  THR72       0.2287
     28  O         44.7880   -6.3320    4.1650 O.2    72  THR72      -0.2866
     29  CB        44.4910   -9.3090    4.7660 C.3    72  THR72       0.1770
     30  OG1       45.1490  -10.5760    4.6510 O.3    72  THR72      -0.2211
     31  CG2       43.0570   -9.5340    5.2240 C.3    72  THR72       0.0375
     32  N         47.1790   -5.0050    4.3490 N.3    87  LEU87      -0.1245
     33  CA        48.2490   -5.3460    5.2720 C.3    87  LEU87       0.1561
     34  C         49.5330   -5.6920    4.5280 C.2    87  LEU87       0.2260
     35  O         49.5130   -6.2400    3.4220 O.2    87  LEU87      -0.2867
     36  CB        47.8450   -6.5230    6.1610 C.3    87  LEU87       0.0270
     37  CG        46.6260   -6.3550    7.0690 C.3    87  LEU87       0.0019
     38  CD1       46.4870   -7.5560    7.9920 C.3    87  LEU87       0.0001
     39  CD2       46.7160   -5.0650    7.8690 C.3    87  LEU87       0.0001
     40  N         53.9600   -6.8110    5.5680 N.3    89  GLN89      -0.1245
     41  CA        54.8830   -7.2940    6.5850 C.3    89  GLN89       0.1566
     42  C         56.2690   -6.7470    6.2860 C.2    89  GLN89       0.2260
     43  O         56.7190   -6.7740    5.1360 O.2    89  GLN89      -0.2867
     44  CB        54.9130   -8.8270    6.6340 C.3    89  GLN89       0.0367
     45  CG        55.8690   -9.4050    7.6630 C.3    89  GLN89       0.0905
     46  CD        55.9540  -10.9180    7.5910 C.2    89  GLN89       0.2608
     47  OE1       56.9880  -11.4750    7.2220 O.2    89  GLN89      -0.2717
     48  NE2       54.8650  -11.5910    7.9430 N.am   89  GLN89      -0.0878
     49  N         53.6630   -6.5890   11.1180 N.3   106  ILE106     -0.1245
     50  CA        52.5520   -6.5270   10.1770 C.3   106  ILE106      0.1561
     51  C         51.7980   -5.2270   10.4090 C.2   106  ILE106      0.2260
     52  O         51.4250   -4.9110   11.5470 O.2   106  ILE106     -0.2867
     53  CB        51.6160   -7.7360   10.3310 C.3   106  ILE106      0.0252
     54  CG1       52.2980   -8.9950    9.7840 C.3   106  ILE106      0.0019
     55  CG2       50.2880   -7.4800    9.6540 C.3   106  ILE106      0.0019
     56  CD1       51.7990  -10.2810   10.4050 C.3   106  ILE106      0.0001
     57  N         41.5100   -6.5510   12.7610 N.3   137  ASN137     -0.1225
     58  CA        41.9780   -7.7720   12.1050 C.3   137  ASN137      0.1785
     59  C         42.9350   -8.5710   12.9850 C.2   137  ASN137      0.2597
     60  O         43.6870   -9.4120   12.4800 O.2   137  ASN137     -0.2718
     61  CB        42.6250   -7.4710   10.7470 C.3   137  ASN137      0.1169
     62  CG        41.6530   -6.8440    9.7680 C.2   137  ASN137      0.2627
     63  OD1       40.4370   -6.9310    9.9410 O.2   137  ASN137     -0.2716
     64  ND2       42.1840   -6.2130    8.7280 N.am  137  ASN137     -0.0877
     65  N         42.9110   -8.3130   14.2940 N.am  138  ASN138     -0.1960
     66  CA        43.6760   -9.0740   15.2820 C.3   138  ASN138      0.1819
     67  C         45.1520   -9.1620   14.8970 C.2   138  ASN138      0.2621
     68  O         45.7700  -10.2280   14.9150 O.2   138  ASN138     -0.2715
     69  CB        43.0640  -10.4600   15.4830 C.3   138  ASN138      0.1195
     70  CG        41.6160  -10.3910   15.9350 C.2   138  ASN138      0.2630
     71  OD1       40.9910   -9.3320   15.8830 O.2   138  ASN138     -0.2716
     72  ND2       41.0770  -11.5200   16.3800 N.am  138  ASN138     -0.0877
     73  N         45.7130   -8.0120   14.5390 N.am  139  VAL139     -0.1963
     74  CA        47.1240   -7.9160   14.1810 C.3   139  VAL139      0.1727
     75  C         47.9420   -7.7470   15.4530 C.2   139  VAL139      0.2616
     76  O         47.6240   -6.9050   16.3010 O.2   139  VAL139     -0.2715
     77  CB        47.3560   -6.7500   13.2070 C.3   139  VAL139      0.0290
     78  CG1       48.8420   -6.5410   12.9570 C.3   139  VAL139      0.0023
     79  CG2       46.6150   -6.9960   11.9000 C.3   139  VAL139      0.0023
     80  N         48.9920   -8.5500   15.5910 N.am  140  LEU140     -0.1977
     81  CA        49.8520   -8.4870   16.7650 C.3   140  LEU140      0.1596
     82  C         50.4850   -7.1040   16.8660 C.2   140  LEU140      0.2287
     83  O         51.2640   -6.7220   15.9790 O.2   140  LEU140     -0.2864
     84  CB        50.9330   -9.5640   16.6900 C.3   140  LEU140      0.0297
     85  CG        51.8250   -9.7680   17.9180 C.3   140  LEU140      0.0022
     86  CD1       51.0200  -10.2890   19.1010 C.3   140  LEU140      0.0001
     87  CD2       52.9740  -10.7110   17.5930 C.3   140  LEU140      0.0001
@<TRIPOS>BOND
     1    16    15    1
     2    14    15    1
     3    14    13    1
     4    13    12    1
     5    12     9    1
     6     9     8    1
     7     9    10    1
     8     8     3   am
     9    10    11    2
    10    10    17   am
    11    20    19    2
    12    19    18    1
    13    17    18    1
    14     3     2    1
    15     3     4    2
    16     2     1    1
    17     2     5    1
    18    25    26    1
    19    18    21    1
    20    26    27    1
    21    26    29    1
    22    35    34    2
    23     6     5    1
    24    27    28    2
    25     5     7    1
    26    32    33    1
    27    34    33    1
    28    21    22    1
    29    30    29    1
    30    29    31    1
    31    43    42    2
    32    23    22    2
    33    33    36    1
    34    22    24   am
    35    40    41    1
    36    36    37    1
    37    42    41    1
    38    41    44    1
    39    44    45    1
    40    37    39    1
    41    37    38    1
    42    47    46    2
    43    46    45    1
    44    46    48   am
    45    64    62   am
    46    55    53    1
    47    62    63    2
    48    62    61    1
    49    54    53    1
    50    54    56    1
    51    50    53    1
    52    50    51    1
    53    50    49    1
    54    51    52    2
    55    61    58    1
    56    79    77    1
    57    58    57    1
    58    58    59    1
    59    60    59    2
    60    78    77    1
    61    59    65   am
    62    77    74    1
    63    74    73    1
    64    74    75    1
    65    65    66    1
    66    73    67   am
    67    67    68    2
    68    67    66    1
    69    66    69    1
    70    75    80   am
    71    75    76    2
    72    69    70    1
    73    80    81    1
    74    71    70    2
    75    70    72   am
    76    83    82    2
    77    84    81    1
    78    84    85    1
    79    81    82    1
    80    87    85    1
    81    85    86    1
