@<TRIPOS>MOLECULE
tmp/5ux5A01.pdb
 210 204 0 0 0
SMALL
GASTEIGER

@<TRIPOS>ATOM
      1  N        103.7380  117.0830   11.1410 N.3   483  ALA483     -0.1231
      2  CA       104.0080  118.2130   10.2620 C.3   483  ALA483      0.1694
      3  C        103.3120  117.9350    8.9320 C.2   483  ALA483      0.2593
      4  O        103.6980  117.0260    8.1990 O.2   483  ALA483     -0.2718
      5  CB       105.5120  118.4280   10.1030 C.3   483  ALA483      0.0304
      6  N        102.2650  118.6870    8.6460 N.am  484  SER484     -0.1939
      7  CA       101.3200  118.3940    7.5790 C.3   484  SER484      0.2040
      8  C        101.4600  119.3800    6.4160 C.2   484  SER484      0.2485
      9  O        102.0370  120.4660    6.5690 O.2   484  SER484     -0.2729
     10  CB        99.8940  118.4390    8.1440 C.3   484  SER484      0.2129
     11  OG        99.6000  119.7260    8.6590 O.3   484  SER484     -0.2179
     12  N        100.9860  119.0110    5.2190 N.am  485  PRO485     -0.2715
     13  CA       101.1190  119.9110    4.0620 C.3   485  PRO485      0.1536
     14  C         99.8660  120.7410    3.8510 C.2   485  PRO485      0.2598
     15  O         98.9780  120.7280    4.7160 O.2   485  PRO485     -0.2715
     16  CB       101.3400  118.9420    2.9040 C.3   485  PRO485      0.0310
     17  CG       100.4930  117.7300    3.3180 C.3   485  PRO485      0.0237
     18  CD       100.4710  117.6870    4.8290 C.3   485  PRO485      0.0939
     19  N         99.7700  121.4270    2.6950 N.am  486  TRP486     -0.1974
     20  CA        98.6290  122.2890    2.3940 C.3   486  TRP486      0.1640
     21  C         97.6410  121.6770    1.4040 C.2   486  TRP486      0.2290
     22  O         96.4690  122.0410    1.4430 O.2   486  TRP486     -0.2864
     23  CB        99.0920  123.6470    1.8430 C.3   486  TRP486      0.0576
     24  CG       100.0950  123.5180    0.7740 C.ar  486  TRP486      0.0006
     25  CD1      101.4230  123.6860    0.9040 C.ar  486  TRP486      0.0946
     26  CD2       99.8640  123.1690   -0.5980 C.ar  486  TRP486      0.0152
     27  NE1      102.0520  123.4700   -0.2960 N.ar  486  TRP486     -0.2442
     28  CE2      101.1170  123.1440   -1.2360 C.ar  486  TRP486      0.0810
     29  CE3       98.7190  122.8880   -1.3520 C.ar  486  TRP486      0.0012
     30  CZ2      101.2710  122.8200   -2.5770 C.ar  486  TRP486      0.0191
     31  CZ3       98.8720  122.5600   -2.6930 C.ar  486  TRP486      0.0001
     32  CH2      100.1460  122.5360   -3.2920 C.ar  486  TRP486      0.0015
     33  N        101.5520  120.4860   13.7880 N.3   510  LYS510     -0.1245
     34  CA       102.1570  121.6960   13.2340 C.3   510  LYS510      0.1561
     35  C        101.7540  121.7990   11.7620 C.2   510  LYS510      0.2260
     36  O        102.3860  121.1780   10.8910 O.2   510  LYS510     -0.2867
     37  CB       103.6800  121.6600   13.4210 C.3   510  LYS510      0.0271
     38  CG       104.3940  122.9750   13.1350 C.3   510  LYS510      0.0035
     39  CD       104.8560  122.9700   11.7220 C.3   510  LYS510      0.0206
     40  CE       104.8170  124.3040   11.1150 C.3   510  LYS510      0.1093
     41  NZ       104.7410  124.0360    9.6670 N.3   510  LYS510     -0.1314
     42  N        100.8840  123.1350    7.8130 N.3   512  ALA512     -0.1231
     43  CA       101.5810  123.9250    6.8040 C.3   512  ALA512      0.1679
     44  C        101.0970  125.3740    6.8470 C.2   512  ALA512      0.2434
     45  O         99.8960  125.6260    6.9860 O.2   512  ALA512     -0.2733
     46  CB       101.3740  123.3350    5.4100 C.3   512  ALA512      0.0304
     47  N        101.9940  126.3450    6.7260 N.am  513  PRO513     -0.2718
     48  CA       101.5920  127.7440    6.9570 C.3   513  PRO513      0.1535
     49  C        100.5240  128.2690    6.0000 C.2   513  PRO513      0.2598
     50  O         99.7960  129.1920    6.3710 O.2   513  PRO513     -0.2715
     51  CB       102.9140  128.5090    6.8240 C.3   513  PRO513      0.0310
     52  CG       103.7810  127.6440    6.0320 C.3   513  PRO513      0.0237
     53  CD       103.4110  126.2270    6.3690 C.3   513  PRO513      0.0939
     54  N        100.3650  127.6930    4.8090 N.am  514  GLU514     -0.1978
     55  CA        99.3140  128.1440    3.9000 C.3   514  GLU514      0.1602
     56  C         97.9150  127.8120    4.4080 C.2   514  GLU514      0.2287
     57  O         96.9450  128.3920    3.9140 O.2   514  GLU514     -0.2864
     58  CB        99.4800  127.5080    2.5110 C.3   514  GLU514      0.0415
     59  CG       100.7090  127.9150    1.6890 C.3   514  GLU514      0.1163
     60  CD       101.9940  127.2050    2.1280 C.2   514  GLU514      0.3649
     61  OE1      101.9280  126.3390    3.0160 O.co2 514  GLU514     -0.2457
     62  OE2      103.0660  127.4860    1.5560 O.co2 514  GLU514     -0.2457
     63  N        104.2880  126.9360   14.8240 N.3   541  THR541     -0.1203
     64  CA       105.6720  127.3790   14.8660 C.3   541  THR541      0.1994
     65  C        106.0750  127.9230   13.5050 C.2   541  THR541      0.2618
     66  O        105.5380  127.5290   12.4590 O.2   541  THR541     -0.2717
     67  CB       106.6360  126.2390   15.2510 C.3   541  THR541      0.1784
     68  OG1      106.7840  125.3260   14.1510 O.3   541  THR541     -0.2211
     69  CG2      106.1440  125.4730   16.4670 C.3   541  THR541      0.0376
     70  N        107.0350  128.8400   13.5300 N.am  542  ASP542     -0.1959
     71  CA       107.6710  129.2810   12.3090 C.3   542  ASP542      0.1840
     72  C        108.5380  128.1470   11.7650 C.2   542  ASP542      0.2622
     73  O        108.5320  127.0300   12.2670 O.2   542  ASP542     -0.2715
     74  CB       108.5000  130.5430   12.5410 C.3   542  ASP542      0.1450
     75  CG       109.5380  130.3650   13.6230 C.2   542  ASP542      0.3671
     76  OD1      109.9240  129.2010   13.8900 O.co2 542  ASP542     -0.2456
     77  OD2      109.9870  131.3820   14.2030 O.co2 542  ASP542     -0.2456
     78  N        109.2620  128.4450   10.7000 N.am  543  GLU543     -0.1963
     79  CA       110.2740  127.5760   10.1320 C.3   543  GLU543      0.1733
     80  C        111.6690  128.1250   10.4060 C.2   543  GLU543      0.2616
     81  O        112.5850  127.9440    9.6000 O.2   543  GLU543     -0.2715
     82  CB       110.0160  127.4130    8.6380 C.3   543  GLU543      0.0429
     83  CG       108.6830  126.7370    8.3620 C.3   543  GLU543      0.1163
     84  CD       108.4570  126.4360    6.8880 C.2   543  GLU543      0.3649
     85  OE1      107.3670  125.9070    6.5450 O.co2 543  GLU543     -0.2457
     86  OE2      109.3790  126.6850    6.0740 O.co2 543  GLU543     -0.2457
     87  N        111.8130  128.8520   11.5030 N.am  544  ALA544     -0.1977
     88  CA       113.1110  129.3060   11.9980 C.3   544  ALA544      0.1597
     89  C        113.3960  128.6020   13.3190 C.2   544  ALA544      0.2287
     90  O        113.1010  127.4010   13.4090 O.2   544  ALA544     -0.2864
     91  CB       113.1280  130.8200   12.0650 C.3   544  ALA544      0.0319
     92  N        110.4750  126.3650   15.0270 N.3   547  GLY547     -0.1210
     93  CA       110.1430  125.1620   14.2790 C.3   547  GLY547      0.1956
     94  C        111.2350  124.1150   14.3700 C.2   547  GLY547      0.2611
     95  O        110.9670  122.9370   14.6100 O.2   547  GLY547     -0.2717
     96  N        112.4880  124.5360   14.1950 N.am  548  ARG548     -0.1979
     97  CA       113.6020  123.6060   14.2910 C.3   548  ARG548      0.1597
     98  C        113.6880  123.0140   15.6900 C.2   548  ARG548      0.2287
     99  O        113.9330  121.8130   15.8630 O.2   548  ARG548     -0.2864
    100  CB       114.9050  124.3290   13.9330 C.3   548  ARG548      0.0334
    101  CG       116.1300  123.5380   14.2910 C.3   548  ARG548      0.0492
    102  CD       117.3660  124.0210   13.5670 C.3   548  ARG548      0.2205
    103  NE       118.4770  123.0900   13.7780 N.pl3 548  ARG548     -0.0865
    104  CZ       119.7010  123.2860   13.3060 C.cat 548  ARG548      0.5346
    105  NH1      119.9800  124.3780   12.6070 N.pl3 548  ARG548      0.1354
    106  NH2      120.6390  122.3810   13.5160 N.pl3 548  ARG548      0.1354
    107  N        111.0130  120.2970   15.7870 N.3   551  MET551     -0.1245
    108  CA       111.2770  119.0610   15.0580 C.3   551  MET551      0.1570
    109  C        112.4820  118.3210   15.6090 C.2   551  MET551      0.2261
    110  O        112.5700  117.1020   15.4450 O.2   551  MET551     -0.2867
    111  CB       111.5000  119.3140   13.5730 C.3   551  MET551      0.0387
    112  CG       110.3540  119.9740   12.8910 C.3   551  MET551      0.0595
    113  SD       108.7610  119.2160   13.2190 S.3   551  MET551     -0.1393
    114  CE       107.6850  120.4050   12.3780 C.3   551  MET551      0.0692
    115  N        105.4870  113.2090    8.7740 N.3   561  LEU561     -0.1231
    116  CA       105.7100  114.3180    7.8570 C.3   561  LEU561      0.1693
    117  C        105.1860  113.9800    6.4740 C.2   561  LEU561      0.2593
    118  O        105.3910  112.8690    5.9840 O.2   561  LEU561     -0.2718
    119  CB       107.1990  114.6430    7.7480 C.3   561  LEU561      0.0284
    120  CG       107.7140  115.4970    6.5940 C.3   561  LEU561      0.0019
    121  CD1      107.2240  116.9040    6.7590 C.3   561  LEU561      0.0001
    122  CD2      109.2470  115.4500    6.5380 C.3   561  LEU561      0.0001
    123  N        104.5480  114.9560    5.8360 N.am  562  THR562     -0.1939
    124  CA       104.1040  114.8610    4.4540 C.3   562  THR562      0.2028
    125  C        104.5690  116.1240    3.7490 C.2   562  THR562      0.2643
    126  O        104.1010  117.2120    4.0720 O.2   562  THR562     -0.2714
    127  CB       102.5860  114.7370    4.3400 C.3   562  THR562      0.1808
    128  OG1      102.1200  113.6720    5.1830 O.3   562  THR562     -0.2208
    129  CG2      102.1840  114.4970    2.8860 C.3   562  THR562      0.0379
    130  N        105.4700  115.9780    2.7960 N.am  563  GLY563     -0.1939
    131  CA       106.0390  117.1460    2.1550 C.3   563  GLY563      0.2014
    132  C        107.1780  116.7670    1.2350 C.2   563  GLY563      0.2638
    133  O        107.1680  115.7000    0.6150 O.2   563  GLY563     -0.2714
    134  N        108.1540  117.6320    1.1730 N.am  564  ALA564     -0.1977
    135  CA       109.2500  117.4080    0.2540 C.3   564  ALA564      0.1597
    136  C        110.2850  116.4730    0.8620 C.2   564  ALA564      0.2287
    137  O        110.5890  116.5430    2.0540 O.2   564  ALA564     -0.2864
    138  CB       109.8900  118.7440   -0.1020 C.3   564  ALA564      0.0319
    139  N        112.7930  118.2340    2.7480 N.3   567  THR567     -0.1218
    140  CA       112.4080  118.5720    4.1100 C.3   567  THR567      0.1862
    141  C        112.6790  117.4210    5.0720 C.2   567  THR567      0.2287
    142  O        113.1410  117.6420    6.1990 O.2   567  THR567     -0.2866
    143  CB       110.9420  118.9830    4.1030 C.3   567  THR567      0.1770
    144  OG1      110.8170  120.1630    3.2900 O.3   567  THR567     -0.2211
    145  CG2      110.4370  119.2640    5.4780 C.3   567  THR567      0.0375
    146  N        116.2730  117.4180    5.7450 N.3   570  LEU570     -0.1231
    147  CA       116.5740  118.5600    6.5990 C.3   570  LEU570      0.1693
    148  C        116.3330  118.2240    8.0650 C.2   570  LEU570      0.2592
    149  O        117.2420  118.3330    8.8950 O.2   570  LEU570     -0.2718
    150  CB       115.7100  119.7430    6.1750 C.3   570  LEU570      0.0284
    151  CG       115.9170  121.0320    6.9550 C.3   570  LEU570      0.0019
    152  CD1      117.1860  121.7000    6.5140 C.3   570  LEU570      0.0001
    153  CD2      114.7250  121.9160    6.7350 C.3   570  LEU570      0.0001
    154  N        115.1050  117.7960    8.3930 N.am  571  PHE571     -0.1976
    155  CA       114.7490  117.4700    9.7710 C.3   571  PHE571      0.1639
    156  C        115.7080  116.4420   10.3420 C.2   571  PHE571      0.2290
    157  O        116.2610  116.6170   11.4360 O.2   571  PHE571     -0.2864
    158  CB       113.3130  116.9260    9.8450 C.3   571  PHE571      0.0560
    159  CG       112.2190  117.9470    9.5520 C.ar  571  PHE571     -0.0200
    160  CD1      112.5150  119.2690    9.2680 C.ar  571  PHE571     -0.0042
    161  CD2      110.8820  117.5570    9.5660 C.ar  571  PHE571     -0.0042
    162  CE1      111.4870  120.1990    9.0150 C.ar  571  PHE571     -0.0003
    163  CE2      109.8560  118.4680    9.3230 C.ar  571  PHE571     -0.0003
    164  CZ       110.1560  119.7960    9.0450 C.ar  571  PHE571     -0.0000
    165  N        119.1080  117.3440   11.6300 N.3   574  TRP574     -0.1241
    166  CA       119.1410  117.9510   12.9590 C.3   574  TRP574      0.1605
    167  C        119.1520  116.9310   14.0870 C.2   574  TRP574      0.2264
    168  O        119.4730  117.2960   15.2260 O.2   574  TRP574     -0.2867
    169  CB       117.9350  118.8470   13.1880 C.3   574  TRP574      0.0550
    170  CG       117.8210  119.9590   12.2440 C.ar  574  TRP574      0.0003
    171  CD1      118.8280  120.5530   11.5900 C.ar  574  TRP574      0.0946
    172  CD2      116.6160  120.6200   11.8400 C.ar  574  TRP574      0.0152
    173  NE1      118.3460  121.5590   10.7960 N.ar  574  TRP574     -0.2442
    174  CE2      116.9870  121.6250   10.9300 C.ar  574  TRP574      0.0810
    175  CE3      115.2570  120.4550   12.1550 C.ar  574  TRP574      0.0012
    176  CZ2      116.0580  122.4660   10.3170 C.ar  574  TRP574      0.0191
    177  CZ3      114.3320  121.2860   11.5560 C.ar  574  TRP574      0.0001
    178  CH2      114.7400  122.2850   10.6430 C.ar  574  TRP574      0.0015
    179  N        105.7090  112.7330   -1.9150 N.3   585  SER585     -0.1217
    180  CA       105.3830  113.0190   -3.3170 C.3   585  SER585      0.1889
    181  C        105.7330  111.8580   -4.2530 C.2   585  SER585      0.2288
    182  O        106.3680  110.8840   -3.8380 O.2   585  SER585     -0.2866
    183  CB       106.0800  114.3130   -3.7670 C.3   585  SER585      0.2089
    184  OG       105.7380  114.6750   -5.0940 O.3   585  SER585     -0.2183
    185  N        100.3520  114.3010   -4.3200 N.3   617  CYS617     -0.1235
    186  CA       101.4090  113.2990   -4.3510 C.3   617  CYS617      0.1677
    187  C        101.0780  112.1730   -5.3290 C.2   617  CYS617      0.2270
    188  O        101.9740  111.5820   -5.9390 O.2   617  CYS617     -0.2867
    189  CB       101.6230  112.7450   -2.9430 C.3   617  CYS617      0.0956
    190  SG       102.1020  113.9770   -1.7180 S.3   617  CYS617     -0.0801
    191  N        108.7320  115.8750  -10.3200 N.3   711  GLU711     -0.1245
    192  CA       107.3340  116.1440  -10.0050 C.3   711  GLU711      0.1567
    193  C        107.1400  117.6440   -9.8930 C.2   711  GLU711      0.2260
    194  O        107.7690  118.2860   -9.0470 O.2   711  GLU711     -0.2867
    195  CB       106.9000  115.4380   -8.7170 C.3   711  GLU711      0.0388
    196  CG       107.9260  115.3920   -7.5720 C.3   711  GLU711      0.1160
    197  CD       107.8020  116.5300   -6.5600 C.2   711  GLU711      0.3649
    198  OE1      106.6600  116.9150   -6.2470 O.co2 711  GLU711     -0.2457
    199  OE2      108.8470  117.0290   -6.0690 O.co2 711  GLU711     -0.2457
    200  N        103.9870  119.1010   -9.4550 N.3   713  PHE713     -0.1241
    201  CA       102.9150  119.4200   -8.5170 C.3   713  PHE713      0.1605
    202  C        102.0140  120.5280   -9.0590 C.2   713  PHE713      0.2264
    203  O        101.7030  121.5020   -8.3750 O.2   713  PHE713     -0.2867
    204  CB       103.4940  119.8020   -7.1520 C.3   713  PHE713      0.0534
    205  CG       102.8610  119.0830   -6.0050 C.ar  713  PHE713     -0.0203
    206  CD1      103.1070  117.7310   -5.8040 C.ar  713  PHE713     -0.0042
    207  CD2      102.0250  119.7460   -5.1170 C.ar  713  PHE713     -0.0042
    208  CE1      102.5260  117.0300   -4.7400 C.ar  713  PHE713     -0.0003
    209  CE2      101.4500  119.0530   -4.0530 C.ar  713  PHE713     -0.0003
    210  CZ       101.7030  117.6880   -3.8730 C.ar  713  PHE713     -0.0000
@<TRIPOS>BOND
     1   191   192    1
     2   192   193    1
     3   192   195    1
     4   193   194    2
     5   200   201    1
     6   202   201    1
     7   202   203    2
     8   195   196    1
     9   201   204    1
    10   196   197    1
    11   204   205    1
    12   197   198   ar
    13   197   199   ar
    14   205   206   ar
    15   205   207   ar
    16   188   187    2
    17   206   208   ar
    18   187   186    1
    19   207   209   ar
    20   184   183    1
    21   208   210   ar
    22   186   185    1
    23   186   189    1
    24   181   182    2
    25   181   180    1
    26   209   210   ar
    27   183   180    1
    28   180   179    1
    29    32    31   ar
    30    32    30   ar
    31   189   190    1
    32    31    29   ar
    33    30    28   ar
    34    29    26   ar
    35    28    26   ar
    36    28    27   ar
    37    26    24   ar
    38    27    25   ar
    39   138   135    1
    40   135   136    1
    41   135   134    1
    42   133   132    2
    43    24    25   ar
    44    24    23    1
    45   136   137    2
    46   134   132   am
    47   132   131    1
    48    21    22    2
    49    21    20    1
    50    62    60   ar
    51    59    60    1
    52    59    58    1
    53    23    20    1
    54    60    61   ar
    55   131   130    1
    56    20    19    1
    57    58    55    1
    58    19    14   am
    59   139   140    1
    60   130   125   am
    61   129   127    1
    62    16    17    1
    63    16    13    1
    64   144   143    1
    65    17    18    1
    66   125   126    2
    67   125   124    1
    68    14    13    1
    69    14    15    2
    70    55    56    1
    71    55    54    1
    72    57    56    2
    73    13    12    1
    74   143   140    1
    75   143   145    1
    76   140   141    1
    77   127   124    1
    78   127   128    1
    79   124   123    1
    80    54    49   am
    81    18    12    1
    82   141   142    2
    83    12     8   am
    84    46    43    1
    85   146   147    1
    86   123   117   am
    87   118   117    2
    88    49    50    2
    89    49    48    1
    90    52    53    1
    91    52    51    1
    92    86    84   ar
    93   150   147    1
    94   150   151    1
    95    53    47    1
    96     8     9    2
    97     8     7    1
    98   117   116    1
    99   152   151    1
   100   122   120    1
   101    85    84   ar
   102   120   121    1
   103   120   119    1
   104   147   148    1
   105    47    44   am
   106    47    48    1
   107   153   151    1
   108    43    44    1
   109    43    42    1
   110    51    48    1
   111    44    45    2
   112    84    83    1
   113     7    10    1
   114     7     6    1
   115   119   116    1
   116   116   115    1
   117   148   154   am
   118   148   149    2
   119    10    11    1
   120     4     3    2
   121    83    82    1
   122   154   155    1
   123    82    79    1
   124     6     3   am
   125     3     2    1
   126   162   164   ar
   127   162   160   ar
   128   164   163   ar
   129   160   159   ar
   130   163   161   ar
   131   159   161   ar
   132   159   158    1
   133    81    80    2
   134    41    40    1
   135   155   158    1
   136   155   156    1
   137     5     2    1
   138    79    80    1
   139    79    78    1
   140     2     1    1
   141   176   178   ar
   142   176   174   ar
   143   156   157    2
   144    80    87   am
   145   178   177   ar
   146    78    72   am
   147   173   174   ar
   148   173   171   ar
   149    36    35    2
   150   174   172   ar
   151    40    39    1
   152    87    88    1
   153   177   175   ar
   154   171   170   ar
   155   165   166    1
   156    39    38    1
   157    35    34    1
   158    72    73    2
   159    72    71    1
   160   172   175   ar
   161   172   170   ar
   162    88    91    1
   163    88    89    1
   164   170   169    1
   165    71    74    1
   166    71    70    1
   167   114   113    1
   168    66    65    2
   169    74    75    1
   170   105   104    1
   171   112   113    1
   172   112   111    1
   173   166   169    1
   174   166   167    1
   175    38    37    1
   176    34    37    1
   177    34    33    1
   178   104   106    1
   179   104   103    2
   180    89    90    2
   181    65    70   am
   182    65    64    1
   183   102   103    1
   184   102   101    1
   185   111   108    1
   186    75    76   ar
   187    75    77   ar
   188   100    97    1
   189   100   101    1
   190   167   168    2
   191    68    67    1
   192    96    97    1
   193    96    94   am
   194    93    94    1
   195    93    92    1
   196    97    98    1
   197    94    95    2
   198    63    64    1
   199    64    67    1
   200   108   109    1
   201   108   107    1
   202    67    69    1
   203   110   109    2
   204    98    99    2
