@<TRIPOS>MOLECULE
tmp/5ux9D01.pdb
 82 81 0 0 0
SMALL
GASTEIGER

@<TRIPOS>ATOM
      1  N         66.2470   29.0620   52.9430 N.3    45  TYR45      -0.1241
      2  CA        66.4050   27.6360   53.2310 C.3    45  TYR45       0.1605
      3  C         65.0580   26.9320   53.3830 C.2    45  TYR45       0.2264
      4  O         64.9050   26.0150   54.1910 O.2    45  TYR45      -0.2867
      5  CB        67.2690   27.4130   54.4740 C.3    45  TYR45       0.0534
      6  CG        68.5600   28.1970   54.4760 C.ar   45  TYR45      -0.0201
      7  CD1       68.6830   29.3660   55.2150 C.ar   45  TYR45      -0.0009
      8  CD2       69.6570   27.7670   53.7410 C.ar   45  TYR45      -0.0009
      9  CE1       69.8600   30.0860   55.2220 C.ar   45  TYR45       0.0417
     10  CE2       70.8390   28.4810   53.7420 C.ar   45  TYR45       0.0417
     11  CZ        70.9360   29.6390   54.4830 C.ar   45  TYR45       0.1957
     12  OH        72.1140   30.3520   54.4860 O.3    45  TYR45      -0.2866
     13  N         62.8260   14.7920   51.1380 N.3    61  PHE61      -0.1241
     14  CA        62.8860   15.1460   52.5470 C.3    61  PHE61       0.1605
     15  C         61.5130   15.2150   53.2060 C.2    61  PHE61       0.2264
     16  O         61.4090   15.6850   54.3450 O.2    61  PHE61      -0.2867
     17  CB        63.6260   16.4750   52.7090 C.3    61  PHE61       0.0534
     18  CG        64.9810   16.4900   52.0560 C.ar   61  PHE61      -0.0203
     19  CD1       65.2190   17.2660   50.9330 C.ar   61  PHE61      -0.0042
     20  CD2       66.0130   15.7150   52.5580 C.ar   61  PHE61      -0.0042
     21  CE1       66.4650   17.2760   50.3310 C.ar   61  PHE61      -0.0003
     22  CE2       67.2600   15.7200   51.9600 C.ar   61  PHE61      -0.0003
     23  CZ        67.4850   16.5020   50.8450 C.ar   61  PHE61      -0.0000
     24  N         64.5390   25.4430   57.6040 N.3    82  ALA82      -0.1245
     25  CA        65.3630   24.2360   57.5160 C.3    82  ALA82       0.1562
     26  C         66.0570   23.8960   58.8310 C.2    82  ALA82       0.2260
     27  O         67.0610   23.1750   58.8340 O.2    82  ALA82      -0.2867
     28  CB        66.3990   24.3420   56.3900 C.3    82  ALA82       0.0290
     29  N         69.7760   22.5840   59.7070 N.3    85  GLN85      -0.1231
     30  CA        70.4670   22.4310   58.4270 C.3    85  GLN85       0.1698
     31  C         71.5170   21.3220   58.4670 C.2    85  GLN85       0.2592
     32  O         72.5560   21.4110   57.8070 O.2    85  GLN85      -0.2718
     33  CB        71.0910   23.7530   57.9710 C.3    85  GLN85       0.0381
     34  CG        70.0600   24.7790   57.5260 C.3    85  GLN85       0.0905
     35  CD        70.6750   26.1100   57.1460 C.2    85  GLN85       0.2608
     36  OE1       70.3050   27.1530   57.6860 O.2    85  GLN85      -0.2717
     37  NE2       71.6140   26.0830   56.2080 N.am   85  GLN85      -0.0878
     38  N         71.2500   20.2650   59.2340 N.am   86  GLY86      -0.1957
     39  CA        72.1160   19.1110   59.2910 C.3    86  GLY86       0.1869
     40  C         73.1710   19.1460   60.3770 C.2    86  GLY86       0.2309
     41  O         73.7150   18.0910   60.7230 O.2    86  GLY86      -0.2863
     42  N         78.3660   18.2650   58.1060 N.3    96  PRO96      -0.2102
     43  CA        77.4080   17.3780   57.4180 C.3    96  PRO96       0.1504
     44  C         78.0950   16.5150   56.3610 C.2    96  PRO96       0.2575
     45  O         78.1310   16.8210   55.1710 O.2    96  PRO96      -0.2718
     46  CB        76.4180   18.3700   56.8050 C.3    96  PRO96       0.0282
     47  CG        77.2540   19.5790   56.5140 C.3    96  PRO96       0.0208
     48  CD        78.3180   19.6430   57.5860 C.3    96  PRO96       0.0893
     49  N         78.6620   15.3980   56.8160 N.am   97  PHE97      -0.1977
     50  CA        79.4130   14.5180   55.9300 C.3    97  PHE97       0.1639
     51  C         78.5320   13.9930   54.8020 C.2    97  PHE97       0.2290
     52  O         77.3540   13.6850   55.0010 O.2    97  PHE97      -0.2864
     53  CB        79.9970   13.3440   56.7160 C.3    97  PHE97       0.0560
     54  CG        80.8790   13.7550   57.8570 C.ar   97  PHE97      -0.0200
     55  CD1       82.2210   14.0270   57.6500 C.ar   97  PHE97      -0.0042
     56  CD2       80.3690   13.8610   59.1400 C.ar   97  PHE97      -0.0042
     57  CE1       83.0370   14.4040   58.7000 C.ar   97  PHE97      -0.0003
     58  CE2       81.1790   14.2360   60.1940 C.ar   97  PHE97      -0.0003
     59  CZ        82.5140   14.5090   59.9740 C.ar   97  PHE97      -0.0000
     60  N         72.1650   11.1570   58.8690 N.3   108  ASP108     -0.1225
     61  CA        71.7020   12.5040   58.5670 C.3   108  ASP108      0.1805
     62  C         71.1580   13.1500   59.8350 C.2   108  ASP108      0.2598
     63  O         70.2190   12.6320   60.4500 O.2   108  ASP108     -0.2718
     64  CB        70.6400   12.4770   57.4710 C.3   108  ASP108      0.1424
     65  CG        70.1830   13.8640   57.0780 C.2   108  ASP108      0.3668
     66  OD1       71.0380   14.6780   56.6670 O.co2 108  ASP108     -0.2456
     67  OD2       68.9710   14.1420   57.1820 O.co2 108  ASP108     -0.2456
     68  N         71.7380   14.2930   60.1850 N.am  109  GLY109     -0.1942
     69  CA        71.4150   14.9840   61.4130 C.3   109  GLY109      0.2014
     70  C         70.3480   16.0490   61.3120 C.2   109  GLY109      0.2638
     71  O         70.1800   16.8210   62.2620 O.2   109  GLY109     -0.2714
     72  N         69.6170   16.1210   60.2010 N.am  110  PHE110     -0.1973
     73  CA        68.5780   17.1330   60.0710 C.3   110  PHE110      0.1639
     74  C         67.4660   16.8900   61.0810 C.2   110  PHE110      0.2290
     75  O         67.0640   15.7500   61.3290 O.2   110  PHE110     -0.2864
     76  CB        67.9990   17.1440   58.6560 C.3   110  PHE110      0.0560
     77  CG        66.8350   18.0840   58.4900 C.ar  110  PHE110     -0.0200
     78  CD1       65.5310   17.6160   58.5370 C.ar  110  PHE110     -0.0042
     79  CD2       67.0460   19.4410   58.3030 C.ar  110  PHE110     -0.0042
     80  CE1       64.4620   18.4810   58.3920 C.ar  110  PHE110     -0.0003
     81  CE2       65.9810   20.3100   58.1570 C.ar  110  PHE110     -0.0003
     82  CZ        64.6880   19.8290   58.2020 C.ar  110  PHE110     -0.0000
@<TRIPOS>BOND
     1    21    23   ar
     2    21    19   ar
     3    23    22   ar
     4    19    18   ar
     5    13    14    1
     6    22    20   ar
     7    18    20   ar
     8    18    17    1
     9    14    17    1
    10    14    15    1
    11     1     2    1
    12    15    16    2
    13     2     3    1
    14     2     5    1
    15     3     4    2
    16     8    10   ar
    17     8     6   ar
    18    10    11   ar
    19     5     6    1
    20     6     7   ar
    21    11    12    1
    22    11     9   ar
    23    51    52    2
    24    51    50    1
    25    45    44    2
    26     7     9   ar
    27    50    53    1
    28    50    49    1
    29    37    35   am
    30    44    49   am
    31    44    43    1
    32    28    25    1
    33    47    46    1
    34    47    48    1
    35    66    65   ar
    36    53    54    1
    37    46    43    1
    38    65    67   ar
    39    65    64    1
    40    35    34    1
    41    35    36    2
    42    43    42    1
    43    64    61    1
    44    25    24    1
    45    25    26    1
    46    34    33    1
    47    48    42    1
    48    55    54   ar
    49    55    57   ar
    50    32    31    2
    51    54    56   ar
    52    33    30    1
    53    81    82   ar
    54    81    79   ar
    55    82    80   ar
    56    79    77   ar
    57    80    78   ar
    58    30    31    1
    59    30    29    1
    60    31    38   am
    61    77    78   ar
    62    77    76    1
    63    61    60    1
    64    61    62    1
    65    76    73    1
    66    57    59   ar
    67    26    27    2
    68    56    58   ar
    69    38    39    1
    70    39    40    1
    71    62    68   am
    72    62    63    2
    73    59    58   ar
    74    73    72    1
    75    73    74    1
    76    68    69    1
    77    72    70   am
    78    40    41    2
    79    74    75    2
    80    70    69    1
    81    70    71    2
