@<TRIPOS>MOLECULE
tmp/5ux9C02.pdb
 88 83 0 0 0
SMALL
GASTEIGER

@<TRIPOS>ATOM
      1  N         57.0880   76.4800  101.7300 N.3    44  TYR44      -0.1241
      2  CA        55.8750   76.4170  100.9140 C.3    44  TYR44       0.1605
      3  C         54.6670   75.9390  101.7150 C.2    44  TYR44       0.2264
      4  O         53.7140   75.3930  101.1550 O.2    44  TYR44      -0.2867
      5  CB        56.0810   75.5350   99.6790 C.3    44  TYR44       0.0534
      6  CG        57.3690   75.8140   98.9400 C.ar   44  TYR44      -0.0201
      7  CD1       57.5070   76.9480   98.1530 C.ar   44  TYR44      -0.0009
      8  CD2       58.4460   74.9420   99.0270 C.ar   44  TYR44      -0.0009
      9  CE1       58.6790   77.2090   97.4750 C.ar   44  TYR44       0.0417
     10  CE2       59.6240   75.1960   98.3520 C.ar   44  TYR44       0.0417
     11  CZ        59.7370   76.3290   97.5770 C.ar   44  TYR44       0.1957
     12  OH        60.9110   76.5820   96.9020 O.3    44  TYR44      -0.2866
     13  N         51.4380   76.9170  103.4760 N.3    46  LEU46      -0.1245
     14  CA        50.4600   77.9890  103.5940 C.3    46  LEU46       0.1561
     15  C         50.1440   78.2450  105.0610 C.2    46  LEU46       0.2260
     16  O         49.8890   77.3110  105.8250 O.2    46  LEU46      -0.2867
     17  CB        49.1890   77.6190  102.8310 C.3    46  LEU46       0.0270
     18  CG        48.5750   78.6660  101.9050 C.3    46  LEU46       0.0019
     19  CD1       49.6490   79.4550  101.1780 C.3    46  LEU46       0.0001
     20  CD2       47.6520   77.9820  100.9130 C.3    46  LEU46       0.0001
     21  N         40.9870   81.5340   99.8040 N.3    59  GLN59      -0.1231
     22  CA        40.8630   81.3000   98.3700 C.3    59  GLN59       0.1698
     23  C         41.4680   79.9620   97.9660 C.2    59  GLN59       0.2592
     24  O         40.9700   79.3130   97.0400 O.2    59  GLN59      -0.2718
     25  CB        41.5140   82.4440   97.5890 C.3    59  GLN59       0.0381
     26  CG        42.9830   82.6750   97.9100 C.3    59  GLN59       0.0905
     27  CD        43.5990   83.7860   97.0770 C.2    59  GLN59       0.2608
     28  OE1       43.6110   84.9480   97.4830 O.2    59  GLN59      -0.2717
     29  NE2       44.1130   83.4310   95.9040 N.am   59  GLN59      -0.0878
     30  N         42.5310   79.5340   98.6420 N.am   60  PHE60      -0.1962
     31  CA        43.0880   78.2150   98.4000 C.3    60  PHE60       0.1771
     32  C         42.2990   77.1620   99.1720 C.2    60  PHE60       0.2620
     33  O         41.6360   77.4510  100.1720 O.2    60  PHE60      -0.2715
     34  CB        44.5620   78.1620   98.8060 C.3    60  PHE60       0.0574
     35  CG        45.3680   79.3470   98.3470 C.ar   60  PHE60      -0.0200
     36  CD1       45.7970   79.4460   97.0340 C.ar   60  PHE60      -0.0042
     37  CD2       45.7040   80.3570   99.2310 C.ar   60  PHE60      -0.0042
     38  CE1       46.5440   80.5270   96.6100 C.ar   60  PHE60      -0.0003
     39  CE2       46.4500   81.4420   98.8130 C.ar   60  PHE60      -0.0003
     40  CZ        46.8690   81.5270   97.4990 C.ar   60  PHE60      -0.0000
     41  N         42.3750   75.9250   98.6930 N.am   61  GLY61      -0.1954
     42  CA        41.7290   74.8150   99.3560 C.3    61  GLY61       0.1869
     43  C         42.4970   74.3720  100.5860 C.2    61  GLY61       0.2309
     44  O         43.4220   75.0340  101.0600 O.2    61  GLY61      -0.2863
     45  N         45.2060   72.3850  102.5930 N.3    63  VAL63      -0.1245
     46  CA        46.5780   72.0330  102.2600 C.3    63  VAL63       0.1561
     47  C         47.0890   71.0100  103.2640 C.2    63  VAL63       0.2260
     48  O         46.5390   70.8380  104.3560 O.2    63  VAL63      -0.2867
     49  CB        47.5060   73.2660  102.2220 C.3    63  VAL63       0.0252
     50  CG1       46.9970   74.2830  101.2120 C.3    63  VAL63       0.0019
     51  CG2       47.6260   73.8890  103.6080 C.3    63  VAL63       0.0019
     52  N         53.4220   71.9560  100.1090 N.3    81  ALA81      -0.1245
     53  CA        52.6550   72.4290   98.9570 C.3    81  ALA81       0.1562
     54  C         52.5730   71.4010   97.8310 C.2    81  ALA81       0.2260
     55  O         52.1900   71.7460   96.7090 O.2    81  ALA81      -0.2867
     56  CB        53.2110   73.7510   98.4170 C.3    81  ALA81       0.0290
     57  N         52.8830   71.8570   93.8190 N.3    84  GLN84      -0.1231
     58  CA        52.9180   73.3030   93.5920 C.3    84  GLN84       0.1698
     59  C         52.3670   73.6870   92.2210 C.2    84  GLN84       0.2592
     60  O         52.8140   74.6630   91.6120 O.2    84  GLN84      -0.2718
     61  CB        54.3350   73.8560   93.7670 C.3    84  GLN84       0.0381
     62  CG        54.9340   73.5820   95.1310 C.3    84  GLN84       0.0905
     63  CD        56.2500   74.3010   95.3430 C.2    84  GLN84       0.2608
     64  OE1       56.4270   75.4390   94.9080 O.2    84  GLN84      -0.2717
     65  NE2       57.1820   73.6390   96.0170 N.am   84  GLN84      -0.0878
     66  N         51.3910   72.9300   91.7230 N.am   85  GLY85      -0.1957
     67  CA        50.7780   73.2140   90.4460 C.3    85  GLY85       0.1869
     68  C         51.4740   72.6110   89.2450 C.2    85  GLY85       0.2309
     69  O         50.8870   72.5910   88.1570 O.2    85  GLY85      -0.2863
     70  N         43.7050   74.5190   87.0820 N.3   107  ASP107     -0.1239
     71  CA        44.6410   74.5060   88.1990 C.3   107  ASP107      0.1674
     72  C         45.2280   73.1090   88.3600 C.2   107  ASP107      0.2266
     73  O         44.4890   72.1310   88.5150 O.2   107  ASP107     -0.2867
     74  CB        43.9410   74.9530   89.4780 C.3   107  ASP107      0.1410
     75  CG        44.9130   75.3790   90.5530 C.2   107  ASP107      0.3668
     76  OD1       46.0780   75.6860   90.2210 O.co2 107  ASP107     -0.2456
     77  OD2       44.5090   75.4120   91.7320 O.co2 107  ASP107     -0.2456
     78  N         47.4330   72.0800   90.7960 N.3   109  PHE109     -0.1241
     79  CA        47.8850   71.6680   92.1160 C.3   109  PHE109      0.1605
     80  C         47.1080   70.4440   92.5870 C.2   109  PHE109      0.2264
     81  O         45.8980   70.3350   92.3750 O.2   109  PHE109     -0.2867
     82  CB        47.7290   72.8120   93.1190 C.3   109  PHE109      0.0534
     83  CG        47.7970   72.3710   94.5560 C.ar  109  PHE109     -0.0203
     84  CD1       49.0080   72.3340   95.2310 C.ar  109  PHE109     -0.0042
     85  CD2       46.6460   72.0130   95.2360 C.ar  109  PHE109     -0.0042
     86  CE1       49.0680   71.9370   96.5540 C.ar  109  PHE109     -0.0003
     87  CE2       46.7010   71.6160   96.5590 C.ar  109  PHE109     -0.0003
     88  CZ        47.9130   71.5770   97.2190 C.ar  109  PHE109     -0.0000
@<TRIPOS>BOND
     1    70    71    1
     2    69    68    2
     3    71    72    1
     4    71    74    1
     5    72    73    2
     6    68    67    1
     7    74    75    1
     8    76    75   ar
     9    67    66    1
    10    75    77   ar
    11    78    79    1
    12    60    59    2
    13    66    59   am
    14    79    80    1
    15    79    82    1
    16    59    58    1
    17    81    80    2
    18    82    83    1
    19    58    61    1
    20    58    57    1
    21    61    62    1
    22    83    84   ar
    23    83    85   ar
    24    64    63    2
    25    62    63    1
    26    84    86   ar
    27    85    87   ar
    28    63    65   am
    29    29    27   am
    30    86    88   ar
    31    87    88   ar
    32    38    36   ar
    33    38    40   ar
    34    55    54    2
    35    12    11    1
    36    36    35   ar
    37    24    23    2
    38    27    28    2
    39    27    26    1
    40     9    11   ar
    41     9     7   ar
    42    40    39   ar
    43    11    10   ar
    44    25    26    1
    45    25    22    1
    46    54    53    1
    47    23    22    1
    48    23    30   am
    49     7     6   ar
    50    35    34    1
    51    35    37   ar
    52    10     8   ar
    53    22    21    1
    54    31    30    1
    55    31    34    1
    56    31    32    1
    57    56    53    1
    58    41    32   am
    59    41    42    1
    60    39    37   ar
    61     6     8   ar
    62     6     5    1
    63    53    52    1
    64    32    33    2
    65    42    43    1
    66     5     2    1
    67    43    44    2
    68    20    18    1
    69     2     3    1
    70     2     1    1
    71     4     3    2
    72    19    18    1
    73    50    49    1
    74    18    17    1
    75    49    46    1
    76    49    51    1
    77    46    45    1
    78    46    47    1
    79    17    14    1
    80    47    48    2
    81    13    14    1
    82    14    15    1
    83    15    16    2
