@<TRIPOS>MOLECULE
tmp/5uxcA00.pdb
 170 160 0 0 0
SMALL
GASTEIGER

@<TRIPOS>ATOM
      1  N          1.3510   46.2960   31.6430 N.3    27  GLU27      -0.1231
      2  CA         1.3900   45.0340   30.9100 C.3    27  GLU27       0.1699
      3  C          1.7110   43.8400   31.8080 C.2    27  GLU27       0.2592
      4  O          1.0860   42.7590   31.7000 O.2    27  GLU27      -0.2718
      5  CB         2.4150   45.1400   29.7660 C.3    27  GLU27       0.0402
      6  CG         2.5560   43.8670   28.8780 C.3    27  GLU27       0.1161
      7  CD         1.2600   43.4950   28.1550 C.2    27  GLU27       0.3649
      8  OE1        0.3450   44.3570   28.0520 O.co2  27  GLU27      -0.2457
      9  OE2        1.1540   42.3220   27.7040 O.co2  27  GLU27      -0.2457
     10  N          2.6560   43.9990   32.7160 N.am   28  GLU28      -0.1979
     11  CA         3.1270   42.8760   33.5140 C.3    28  GLU28       0.1602
     12  C          3.7980   43.4270   34.7620 C.2    28  GLU28       0.2287
     13  O          4.5380   44.4210   34.7010 O.2    28  GLU28      -0.2864
     14  CB         4.1150   42.0100   32.7060 C.3    28  GLU28       0.0415
     15  CG         4.6250   40.8080   33.4550 C.3    28  GLU28       0.1163
     16  CD         5.3160   39.7860   32.5180 C.2    28  GLU28       0.3649
     17  OE1        6.5240   39.5150   32.7320 O.co2  28  GLU28      -0.2457
     18  OE2        4.6530   39.2350   31.6080 O.co2  28  GLU28      -0.2457
     19  N          6.4450   42.3340   37.2920 N.3    30  GLY30      -0.1225
     20  CA         7.4670   41.3620   37.6050 C.3    30  GLY30       0.1811
     21  C          7.9440   41.4550   39.0440 C.2    30  GLY30       0.2280
     22  O          7.5140   42.2950   39.8280 O.2    30  GLY30      -0.2866
     23  N         10.8650   42.4230   39.9250 N.3    32  ASP32      -0.1225
     24  CA        11.7490   43.5800   40.0250 C.3    32  ASP32       0.1805
     25  C         11.2260   44.8240   39.3350 C.2    32  ASP32       0.2597
     26  O         11.4830   45.9280   39.8230 O.2    32  ASP32      -0.2718
     27  CB        13.1350   43.2700   39.4330 C.3    32  ASP32       0.1424
     28  CG        13.9010   42.2400   40.2390 C.2    32  ASP32       0.3668
     29  OD1       14.5340   41.3480   39.6380 O.co2  32  ASP32      -0.2456
     30  OD2       13.8710   42.3280   41.4820 O.co2  32  ASP32      -0.2456
     31  N         10.5550   44.6720   38.1930 N.am   33  PHE33      -0.1976
     32  CA        10.0520   45.8020   37.4220 C.3    33  PHE33       0.1639
     33  C          8.5620   45.6620   37.1380 C.2    33  PHE33       0.2290
     34  O          8.0800   44.5740   36.7870 O.2    33  PHE33      -0.2864
     35  CB        10.7890   45.9350   36.0920 C.3    33  PHE33       0.0560
     36  CG        12.2840   45.8120   36.2050 C.ar   33  PHE33      -0.0200
     37  CD1       12.8990   44.5630   36.2180 C.ar   33  PHE33      -0.0042
     38  CD2       13.0720   46.9420   36.2910 C.ar   33  PHE33      -0.0042
     39  CE1       14.2700   44.4400   36.2920 C.ar   33  PHE33      -0.0003
     40  CE2       14.4460   46.8370   36.3850 C.ar   33  PHE33      -0.0003
     41  CZ        15.0520   45.5790   36.3870 C.ar   33  PHE33      -0.0000
     42  N          6.1130   46.7230   34.2890 N.3    35  VAL35      -0.1245
     43  CA         6.2980   47.0280   32.8700 C.3    35  VAL35       0.1561
     44  C          4.9780   47.5330   32.3160 C.2    35  VAL35       0.2260
     45  O          3.9380   46.9230   32.5670 O.2    35  VAL35      -0.2867
     46  CB         6.7680   45.7810   32.0970 C.3    35  VAL35       0.0252
     47  CG1        6.9260   46.1250   30.6100 C.3    35  VAL35       0.0019
     48  CG2        8.1010   45.3380   32.6430 C.3    35  VAL35       0.0019
     49  N          3.0380   49.7500   28.7600 N.3    37  PHE37      -0.1241
     50  CA         3.1400   50.2170   27.3760 C.3    37  PHE37       0.1605
     51  C          2.5500   51.6220   27.3160 C.2    37  PHE37       0.2264
     52  O          1.5880   51.9040   28.0310 O.2    37  PHE37      -0.2867
     53  CB         2.3290   49.3530   26.4090 C.3    37  PHE37       0.0534
     54  CG         2.8820   47.9730   26.1770 C.ar   37  PHE37      -0.0203
     55  CD1        4.1970   47.7210   26.3430 C.ar   37  PHE37      -0.0042
     56  CD2        2.0290   46.9490   25.7820 C.ar   37  PHE37      -0.0042
     57  CE1        4.6880   46.4170   26.0870 C.ar   37  PHE37      -0.0003
     58  CE2        2.4890   45.6780   25.5490 C.ar   37  PHE37      -0.0003
     59  CZ         3.8060   45.4240   25.6840 C.ar   37  PHE37      -0.0000
     60  N          7.9160   51.2960   25.8290 N.3    47  VAL47      -0.1245
     61  CA         7.8260   50.4240   26.9940 C.3    47  VAL47       0.1561
     62  C          8.4600   51.1330   28.1730 C.2    47  VAL47       0.2260
     63  O          9.5690   51.6770   28.0460 O.2    47  VAL47      -0.2867
     64  CB         8.5380   49.0660   26.7610 C.3    47  VAL47       0.0252
     65  CG1        8.3850   48.1700   27.9900 C.3    47  VAL47       0.0019
     66  CG2        8.0280   48.3990   25.5260 C.3    47  VAL47       0.0019
     67  N          9.7980   50.6220   32.0860 N.3    49  ARG49      -0.1245
     68  CA        10.1720   49.7090   33.1620 C.3    49  ARG49       0.1563
     69  C         10.3010   50.5120   34.4460 C.2    49  ARG49       0.2260
     70  O         11.1360   51.4220   34.5390 O.2    49  ARG49      -0.2867
     71  CB        11.4880   48.9950   32.8710 C.3    49  ARG49       0.0307
     72  CG        11.4630   48.1010   31.7030 C.3    49  ARG49       0.0489
     73  CD        12.8270   47.4240   31.5840 C.3    49  ARG49       0.2205
     74  NE        13.0360   46.3850   32.5820 N.pl3  49  ARG49      -0.0865
     75  CZ        12.4490   45.1920   32.5420 C.cat  49  ARG49       0.5346
     76  NH1       12.6970   44.2810   33.4620 N.pl3  49  ARG49       0.1354
     77  NH2       11.6130   44.9070   31.5690 N.pl3  49  ARG49       0.1354
     78  N         12.1160   52.3210   26.6600 N.3    90  TYR90      -0.1241
     79  CA        12.7190   51.9770   25.3920 C.3    90  TYR90       0.1605
     80  C         11.6190   51.9420   24.3560 C.2    90  TYR90       0.2264
     81  O         10.4690   51.6390   24.6920 O.2    90  TYR90      -0.2867
     82  CB        13.4700   50.6330   25.3900 C.3    90  TYR90       0.0534
     83  CG        12.7440   49.3760   25.8620 C.ar   90  TYR90      -0.0201
     84  CD1       12.7990   48.9780   27.2070 C.ar   90  TYR90      -0.0009
     85  CD2       12.0740   48.5500   24.9450 C.ar   90  TYR90      -0.0009
     86  CE1       12.2020   47.7480   27.6350 C.ar   90  TYR90       0.0417
     87  CE2       11.4790   47.3360   25.3440 C.ar   90  TYR90       0.0417
     88  CZ        11.5680   46.9520   26.6900 C.ar   90  TYR90       0.1957
     89  OH        11.0140   45.7380   27.1200 O.3    90  TYR90      -0.2866
     90  N          9.1180   50.6030   21.7470 N.3    92  LEU92      -0.1231
     91  CA         8.4760   49.2890   21.6230 C.3    92  LEU92       0.1693
     92  C          9.0720   48.5420   20.4580 C.2    92  LEU92       0.2591
     93  O          9.1350   49.0530   19.3280 O.2    92  LEU92      -0.2718
     94  CB         6.9610   49.5110   21.3840 C.3    92  LEU92       0.0284
     95  CG         6.2900   48.1450   21.0310 C.3    92  LEU92       0.0019
     96  CD1        5.8090   47.6230   22.3310 C.3    92  LEU92       0.0001
     97  CD2        5.1400   48.3420   20.0460 C.3    92  LEU92       0.0001
     98  N          9.5150   47.2140   20.7700 N.am   93  LEU93      -0.1980
     99  CA        10.1810   46.4350   19.7460 C.3    93  LEU93       0.1596
    100  C          9.1240   45.7110   18.9080 C.2    93  LEU93       0.2287
    101  O          8.0570   45.3660   19.4170 O.2    93  LEU93      -0.2864
    102  CB        11.1140   45.3940   20.3980 C.3    93  LEU93       0.0297
    103  CG        12.2420   46.1080   21.1600 C.3    93  LEU93       0.0022
    104  CD1       12.9750   45.1420   22.0580 C.3    93  LEU93       0.0001
    105  CD2       13.1890   46.7670   20.1740 C.3    93  LEU93       0.0001
    106  N          7.0770   42.9090   16.5200 N.3    95  GLY95      -0.1225
    107  CA         6.7420   41.4840   16.6170 C.3    95  GLY95       0.1811
    108  C          5.8130   41.2090   17.7820 C.2    95  GLY95       0.2280
    109  O          5.4510   42.0950   18.5740 O.2    95  GLY95      -0.2866
    110  N          4.9730   38.5720   21.1130 N.3    97  PRO97      -0.2116
    111  CA         5.5790   37.5670   22.0070 C.3    97  PRO97       0.1372
    112  C          5.1580   36.1610   21.5900 C.2    97  PRO97       0.2244
    113  O          3.9920   35.9180   21.2500 O.2    97  PRO97      -0.2868
    114  CB         5.0130   37.9270   23.3750 C.3    97  PRO97       0.0268
    115  CG         4.6040   39.4190   23.2430 C.3    97  PRO97       0.0207
    116  CD         4.1410   39.5500   21.8270 C.3    97  PRO97       0.0892
    117  N          4.8500   33.5700   23.4060 N.3    99  LEU99      -0.1231
    118  CA         3.7440   33.2470   24.2930 C.3    99  LEU99       0.1693
    119  C          3.5850   34.3740   25.2990 C.2    99  LEU99       0.2592
    120  O          4.4800   35.1970   25.4710 O.2    99  LEU99      -0.2718
    121  CB         3.9520   31.8810   24.9900 C.3    99  LEU99       0.0284
    122  CG         5.1550   31.7420   25.9340 C.3    99  LEU99       0.0019
    123  CD1        4.8310   32.3270   27.3040 C.3    99  LEU99       0.0001
    124  CD2        5.6680   30.2470   26.0620 C.3    99  LEU99       0.0001
    125  N          2.4320   34.4100   25.9680 N.am  100  THR100     -0.1953
    126  CA         2.2290   35.3730   27.0470 C.3   100  THR100      0.1897
    127  C          1.6800   34.6550   28.2730 C.2   100  THR100      0.2313
    128  O          0.8070   33.7970   28.1490 O.2   100  THR100     -0.2863
    129  CB         1.3150   36.5280   26.5990 C.3   100  THR100      0.1794
    130  OG1        0.0310   36.0260   26.2800 O.3   100  THR100     -0.2208
    131  CG2        1.8760   37.1600   25.3440 C.3   100  THR100      0.0378
    132  N          8.2260   33.8140   25.7980 N.3   198  ALA198     -0.1231
    133  CA         7.7310   35.0770   26.3420 C.3   198  ALA198      0.1694
    134  C          8.7040   36.2070   26.0690 C.2   198  ALA198      0.2592
    135  O          8.3080   37.3980   26.0940 O.2   198  ALA198     -0.2718
    136  CB         7.5360   35.0000   27.8540 C.3   198  ALA198      0.0304
    137  N          9.9800   35.8800   25.9060 N.am  199  HIS199     -0.1976
    138  CA        10.9680   36.9330   25.6900 C.3   199  HIS199      0.1656
    139  C         11.5080   36.9420   24.2570 C.2   199  HIS199      0.2291
    140  O         12.4610   37.6810   23.9870 O.2   199  HIS199     -0.2864
    141  CB        12.1200   36.7860   26.7300 C.3   199  HIS199      0.0771
    142  CG        11.6680   36.8280   28.1740 C.ar  199  HIS199      0.0820
    143  ND1       12.3920   36.2710   29.2060 N.ar  199  HIS199     -0.2267
    144  CD2       10.6100   37.4510   28.7640 C.ar  199  HIS199      0.1154
    145  CE1       11.7700   36.5100   30.3660 C.ar  199  HIS199      0.1986
    146  NE2       10.6770   37.2280   30.1390 N.ar  199  HIS199     -0.2212
    147  N         10.1810   37.9990   20.5900 N.3   201  LEU201     -0.1245
    148  CA         9.1160   38.4600   19.7200 C.3   201  LEU201      0.1561
    149  C          9.3020   37.8540   18.3400 C.2   201  LEU201      0.2260
    150  O         10.4380   37.7010   17.8630 O.2   201  LEU201     -0.2867
    151  CB         9.1490   39.9910   19.6000 C.3   201  LEU201      0.0270
    152  CG         9.1270   40.7580   20.9100 C.3   201  LEU201      0.0019
    153  CD1        9.0130   42.2950   20.6310 C.3   201  LEU201      0.0001
    154  CD2        7.8830   40.3210   21.7520 C.3   201  LEU201      0.0001
    155  N         13.8490   40.0620   24.4710 N.3   211  LEU211     -0.1231
    156  CA        13.5430   40.9410   25.5990 C.3   211  LEU211      0.1693
    157  C         14.2240   40.4520   26.8690 C.2   211  LEU211      0.2592
    158  O         14.6020   39.2850   26.9710 O.2   211  LEU211     -0.2718
    159  CB        12.0180   40.9690   25.8760 C.3   211  LEU211      0.0284
    160  CG        11.1460   41.2150   24.6640 C.3   211  LEU211      0.0019
    161  CD1        9.6580   41.0410   25.0320 C.3   211  LEU211      0.0001
    162  CD2       11.4450   42.6260   24.0810 C.3   211  LEU211      0.0001
    163  N         14.3360   41.3540   27.8500 N.am  212  ASP212     -0.1974
    164  CA        14.4930   41.0240   29.2860 C.3   212  ASP212      0.1709
    165  C         15.8170   40.3540   29.5810 C.2   212  ASP212      0.2293
    166  O         15.9040   39.1230   29.8290 O.2   212  ASP212     -0.2864
    167  CB        13.3200   40.1400   29.7940 C.3   212  ASP212      0.1436
    168  CG        13.2580   40.0280   31.3300 C.2   212  ASP212      0.3671
    169  OD1       13.8790   40.8750   31.9580 O.co2 212  ASP212     -0.2456
    170  OD2       12.4980   39.2280   31.9430 O.co2 212  ASP212     -0.2456
@<TRIPOS>BOND
     1   106   107    1
     2   107   108    1
     3   108   109    2
     4   150   149    2
     5   149   148    1
     6   100   101    2
     7   100    99    1
     8    93    92    2
     9   151   148    1
    10   151   152    1
    11   148   147    1
    12    99   102    1
    13    99    98    1
    14    97    95    1
    15   105   103    1
    16   102   103    1
    17    92    98   am
    18    92    91    1
    19   153   152    1
    20   152   154    1
    21    95    94    1
    22    95    96    1
    23   110   116    1
    24   110   111    1
    25   103   104    1
    26   113   112    2
    27    94    91    1
    28   112   111    1
    29    91    90    1
    30   116   115    1
    31   111   114    1
    32   115   114    1
    33   117   118    1
    34   140   139    2
    35   162   160    1
    36   139   138    1
    37   118   121    1
    38   118   119    1
    39    80    81    2
    40    80    79    1
    41   155   156    1
    42   160   161    1
    43   160   159    1
    44    85    87   ar
    45    85    83   ar
    46   121   122    1
    47   119   120    2
    48   119   125   am
    49   131   129    1
    50    87    88   ar
    51    82    79    1
    52    82    83    1
    53    79    78    1
    54    66    64    1
    55    58    59   ar
    56    58    56   ar
    57   156   159    1
    58   156   157    1
    59    59    57   ar
    60   138   137    1
    61   138   141    1
    62    56    54   ar
    63   132   133    1
    64    60    61    1
    65    83    84   ar
    66   137   134   am
    67   122   124    1
    68   122   123    1
    69   125   126    1
    70   134   135    2
    71   134   133    1
    72    57    55   ar
    73    54    55   ar
    74    54    53    1
    75   130   129    1
    76   133   136    1
    77    53    50    1
    78   129   126    1
    79    88    89    1
    80    88    86   ar
    81   141   142    1
    82    64    61    1
    83    64    65    1
    84   157   158    2
    85   157   163   am
    86    61    62    1
    87   126   127    1
    88    84    86   ar
    89    51    50    1
    90    51    52    2
    91    50    49    1
    92     9     7   ar
    93   163   164    1
    94    63    62    2
    95     8     7   ar
    96   128   127    2
    97     7     6    1
    98   142   144   ar
    99   142   143   ar
   100   144   146   ar
   101     6     5    1
   102   143   145   ar
   103   164   165    1
   104   164   167    1
   105   165   166    2
   106     5     2    1
   107   167   168    1
   108   146   145   ar
   109    47    46    1
   110     2     1    1
   111     2     3    1
   112   168   170   ar
   113   168   169   ar
   114    77    75    1
   115    73    72    1
   116    73    74    1
   117    18    16   ar
   118     4     3    2
   119    72    71    1
   120     3    10   am
   121    67    68    1
   122    46    48    1
   123    46    43    1
   124    44    45    2
   125    44    43    1
   126    16    17   ar
   127    16    15    1
   128    75    74    2
   129    75    76    1
   130    14    15    1
   131    14    11    1
   132    10    11    1
   133    43    42    1
   134    71    68    1
   135    68    69    1
   136    11    12    1
   137    69    70    2
   138    13    12    2
   139    35    36    1
   140    35    32    1
   141    36    37   ar
   142    36    38   ar
   143    37    39   ar
   144    38    40   ar
   145    39    41   ar
   146    40    41   ar
   147    34    33    2
   148    33    32    1
   149    19    20    1
   150    32    31    1
   151    20    21    1
   152    31    25   am
   153    21    22    2
   154    25    26    2
   155    25    24    1
   156    27    24    1
   157    27    28    1
   158    29    28   ar
   159    23    24    1
   160    28    30   ar
