@<TRIPOS>MOLECULE
tmp/5uxeD02.pdb
 103 93 0 0 0
SMALL
GASTEIGER

@<TRIPOS>ATOM
      1  N         -1.0430  -38.8350   22.7760 N.3    99  VAL99      -0.1245
      2  CA         0.0930  -39.5690   22.2380 C.3    99  VAL99       0.1561
      3  C          0.7360  -40.2420   23.4470 C.2    99  VAL99       0.2260
      4  O          1.5300  -39.6430   24.1670 O.2    99  VAL99      -0.2867
      5  CB         1.0630  -38.6600   21.4830 C.3    99  VAL99       0.0252
      6  CG1        2.3240  -39.4290   21.1170 C.3    99  VAL99       0.0019
      7  CG2        0.3920  -38.0510   20.2430 C.3    99  VAL99       0.0019
      8  N         -3.0830  -32.6470   21.5710 N.3   122  THR122     -0.1203
      9  CA        -1.8290  -32.5510   22.3030 C.3   122  THR122      0.1994
     10  C         -1.3350  -31.1080   22.2540 C.2   122  THR122      0.2618
     11  O         -1.7500  -30.3200   21.4030 O.2   122  THR122     -0.2717
     12  CB        -0.7930  -33.4940   21.7100 C.3   122  THR122      0.1784
     13  OG1        0.2660  -33.6980   22.6600 O.3   122  THR122     -0.2211
     14  CG2       -0.2540  -32.9090   20.4170 C.3   122  THR122      0.0376
     15  N         -0.4430  -30.7690   23.1850 N.am  123  ALA123     -0.1965
     16  CA         0.0700  -29.4010   23.2470 C.3   123  ALA123      0.1728
     17  C          0.5990  -28.9500   21.8980 C.2   123  ALA123      0.2616
     18  O          0.2980  -27.8420   21.4400 O.2   123  ALA123     -0.2715
     19  CB         1.1710  -29.2960   24.3000 C.3   123  ALA123      0.0334
     20  N          1.3570  -29.8130   21.2260 N.am  124  HIS124     -0.1973
     21  CA         2.0490  -29.4620   19.9960 C.3   124  HIS124      0.1656
     22  C          1.6780  -30.5090   18.9400 C.2   124  HIS124      0.2291
     23  O          2.3140  -31.5600   18.8350 O.2   124  HIS124     -0.2864
     24  CB         3.5630  -29.3630   20.2630 C.3   124  HIS124      0.0771
     25  CG         4.3560  -28.8640   19.1030 C.ar  124  HIS124      0.0820
     26  ND1        3.8130  -28.0900   18.1030 N.ar  124  HIS124     -0.2267
     27  CD2        5.6630  -29.0340   18.7800 C.ar  124  HIS124      0.1154
     28  CE1        4.7480  -27.8100   17.2080 C.ar  124  HIS124      0.1986
     29  NE2        5.8780  -28.3810   17.5940 N.ar  124  HIS124     -0.2212
     30  N          3.9240  -32.4140   15.2900 N.3   127  SER127     -0.1217
     31  CA         5.0160  -33.1940   15.8410 C.3   127  SER127      0.1889
     32  C          4.9690  -34.6110   15.2860 C.2   127  SER127      0.2288
     33  O          3.9080  -35.1060   14.8930 O.2   127  SER127     -0.2866
     34  CB         4.9720  -33.2360   17.3760 C.3   127  SER127      0.2089
     35  OG         3.8190  -33.9370   17.8240 O.3   127  SER127     -0.2183
     36  N          5.2490  -37.4510   16.8030 N.3   129  GLY129     -0.1210
     37  CA         4.3600  -38.3430   17.5420 C.3   129  GLY129      0.1956
     38  C          2.9140  -38.2710   17.0710 C.2   129  GLY129      0.2611
     39  O          2.2500  -39.2960   16.9120 O.2   129  GLY129     -0.2717
     40  N          2.4100  -37.0620   16.8250 N.am  130  VAL130     -0.1979
     41  CA         1.0310  -36.9190   16.3670 C.3   130  VAL130      0.1595
     42  C          0.8850  -37.4230   14.9420 C.2   130  VAL130      0.2287
     43  O         -0.0850  -38.1180   14.6100 O.2   130  VAL130     -0.2864
     44  CB         0.5730  -35.4560   16.5020 C.3   130  VAL130      0.0276
     45  CG1       -0.7860  -35.2430   15.8400 C.3   130  VAL130      0.0022
     46  CG2        0.5160  -35.1030   17.9530 C.3   130  VAL130      0.0022
     47  N         -3.0420  -29.6590   18.7330 N.3   150  ASN150     -0.1240
     48  CA        -3.3780  -28.3570   18.1480 C.3   150  ASN150      0.1653
     49  C         -2.2260  -27.7850   17.3280 C.2   150  ASN150      0.2266
     50  O         -1.0590  -28.1280   17.5370 O.2   150  ASN150     -0.2867
     51  CB        -3.7820  -27.3620   19.2360 C.3   150  ASN150      0.1155
     52  CG        -5.2690  -27.4480   19.5830 C.2   150  ASN150      0.2627
     53  OD1       -5.8570  -26.4890   20.0820 O.2   150  ASN150     -0.2716
     54  ND2       -5.8740  -28.5950   19.3150 N.am  150  ASN150     -0.0877
     55  N         -4.8760  -20.7260   29.4800 N.3   178  CYS178     -0.1235
     56  CA        -3.6090  -21.1970   28.9310 C.3   178  CYS178      0.1677
     57  C         -2.4810  -20.2090   29.2260 C.2   178  CYS178      0.2270
     58  O         -2.6710  -18.9980   29.1050 O.2   178  CYS178     -0.2867
     59  CB        -3.7680  -21.3850   27.4230 C.3   178  CYS178      0.0956
     60  SG        -2.2280  -21.5760   26.5040 S.3   178  CYS178     -0.0801
     61  N          0.7120  -21.1750   27.8030 N.3   180  THR180     -0.1218
     62  CA         1.7180  -21.6110   26.8350 C.3   180  THR180      0.1862
     63  C          2.5510  -20.4530   26.2760 C.2   180  THR180      0.2287
     64  O          3.7850  -20.5310   26.2340 O.2   180  THR180     -0.2866
     65  CB         1.0520  -22.3710   25.6900 C.3   180  THR180      0.1770
     66  OG1        0.4740  -23.5820   26.2000 O.3   180  THR180     -0.2211
     67  CG2        2.0930  -22.7180   24.6100 C.3   180  THR180      0.0375
     68  N         -6.0750  -28.1360   31.1110 N.3   261  MET261     -0.1230
     69  CA        -5.6160  -29.5210   31.1890 C.3   261  MET261      0.1702
     70  C         -4.1090  -29.6180   31.4110 C.2   261  MET261      0.2592
     71  O         -3.6230  -30.6690   31.8410 O.2   261  MET261     -0.2718
     72  CB        -6.0390  -30.3060   29.9400 C.3   261  MET261      0.0401
     73  CG        -7.5700  -30.6090   29.8830 C.3   261  MET261      0.0596
     74  SD        -8.2560  -31.5540   31.2770 S.3   261  MET261     -0.1393
     75  CE        -7.3120  -33.1140   31.2960 C.3   261  MET261      0.0692
     76  N         -3.3700  -28.5410   31.1710 N.am  262  GLY262     -0.1957
     77  CA        -1.9650  -28.4930   31.5020 C.3   262  GLY262      0.1869
     78  C         -1.6750  -27.7590   32.7870 C.2   262  GLY262      0.2309
     79  O         -0.5190  -27.3800   33.0190 O.2   262  GLY262     -0.2863
     80  N         -3.1030  -32.1000   35.9550 N.3   267  MET267     -0.1245
     81  CA        -2.0660  -33.1160   35.7800 C.3   267  MET267      0.1570
     82  C         -1.8930  -34.0240   36.9920 C.2   267  MET267      0.2261
     83  O         -1.4500  -35.1590   36.8260 O.2   267  MET267     -0.2867
     84  CB        -0.7240  -32.4570   35.4260 C.3   267  MET267      0.0387
     85  CG        -0.7340  -31.8280   34.0450 C.3   267  MET267      0.0595
     86  SD         0.7890  -31.0170   33.5140 S.3   267  MET267     -0.1393
     87  CE         1.1250  -29.8580   34.8470 C.3   267  MET267      0.0692
     88  N          6.6950  -28.6980   33.9100 N.3   269  VAL269     -0.1245
     89  CA         6.1680  -27.3810   34.2660 C.3   269  VAL269      0.1561
     90  C          4.8150  -27.1450   33.5890 C.2   269  VAL269      0.2260
     91  O          4.6160  -27.5210   32.4370 O.2   269  VAL269     -0.2867
     92  CB         7.1920  -26.2720   33.9270 C.3   269  VAL269      0.0252
     93  CG1        8.5630  -26.6500   34.4820 C.3   269  VAL269      0.0019
     94  CG2        7.2730  -26.0080   32.4240 C.3   269  VAL269      0.0019
     95  N          1.3810  -25.5630   31.8310 N.3   271  GLU271     -0.1245
     96  CA         1.0370  -24.6020   30.7850 C.3   271  GLU271      0.1567
     97  C         -0.4170  -24.1330   30.8870 C.2   271  GLU271      0.2260
     98  O         -0.9910  -23.6600   29.8950 O.2   271  GLU271     -0.2867
     99  CB         1.3450  -25.1950   29.4060 C.3   271  GLU271      0.0388
    100  CG         2.8730  -25.4330   29.2430 C.3   271  GLU271      0.1160
    101  CD         3.3260  -25.8600   27.8530 C.2   271  GLU271      0.3649
    102  OE1        2.7270  -25.4290   26.8420 O.co2 271  GLU271     -0.2457
    103  OE2        4.3120  -26.6260   27.7750 O.co2 271  GLU271     -0.2457
@<TRIPOS>BOND
     1    43    42    2
     2    33    32    2
     3    42    41    1
     4    32    31    1
     5    30    31    1
     6    45    44    1
     7    31    34    1
     8    41    44    1
     9    41    40    1
    10    44    46    1
    11    36    37    1
    12    40    38   am
    13    39    38    2
    14    38    37    1
    15    28    29   ar
    16    28    26   ar
    17    49    50    2
    18    49    48    1
    19    34    35    1
    20    29    27   ar
    21    26    25   ar
    22    48    47    1
    23    48    51    1
    24    27    25   ar
    25    23    22    2
    26    22    21    1
    27    25    24    1
    28    51    52    1
    29    54    52   am
    30    52    53    2
    31    21    24    1
    32    21    20    1
    33     7     5    1
    34    14    12    1
    35     6     5    1
    36    20    17   am
    37    11    10    2
    38    18    17    2
    39     5     2    1
    40     8     9    1
    41    12     9    1
    42    12    13    1
    43    17    16    1
    44     2     1    1
    45     2     3    1
    46    10     9    1
    47    10    15   am
    48    15    16    1
    49    16    19    1
    50     3     4    2
    51    67    65    1
    52    65    66    1
    53    65    62    1
    54    64    63    2
    55    63    62    1
    56    60    59    1
    57    62    61    1
    58   102   101   ar
    59    59    56    1
    60   103   101   ar
    61   101   100    1
    62    56    57    1
    63    56    55    1
    64    58    57    2
    65   100    99    1
    66    99    96    1
    67    73    72    1
    68    73    74    1
    69    98    97    2
    70    72    69    1
    71    96    97    1
    72    96    95    1
    73    68    69    1
    74    76    70   am
    75    76    77    1
    76    69    70    1
    77    74    75    1
    78    70    71    2
    79    77    78    1
    80    94    92    1
    81    91    90    2
    82    78    79    2
    83    86    85    1
    84    86    87    1
    85    90    89    1
    86    88    89    1
    87    92    89    1
    88    92    93    1
    89    85    84    1
    90    84    81    1
    91    81    80    1
    92    81    82    1
    93    83    82    2
