@<TRIPOS>MOLECULE
tmp/5uxfA00.pdb
 197 190 0 0 0
SMALL
GASTEIGER

@<TRIPOS>ATOM
      1  N        109.2100   81.6710    4.0230 N.3    27  TYR27      -0.1241
      2  CA       110.3920   82.1520    4.7300 C.3    27  TYR27       0.1605
      3  C        111.4690   82.5490    3.7230 C.2    27  TYR27       0.2264
      4  O        111.7330   81.8230    2.7610 O.2    27  TYR27      -0.2867
      5  CB       110.9400   81.0870    5.6850 C.3    27  TYR27       0.0534
      6  CG       112.2950   81.4840    6.2200 C.ar   27  TYR27      -0.0201
      7  CD1      112.4110   82.4080    7.2500 C.ar   27  TYR27      -0.0009
      8  CD2      113.4570   80.9680    5.6680 C.ar   27  TYR27      -0.0009
      9  CE1      113.6610   82.7930    7.7240 C.ar   27  TYR27       0.0417
     10  CE2      114.6980   81.3460    6.1280 C.ar   27  TYR27       0.0417
     11  CZ       114.7990   82.2510    7.1500 C.ar   27  TYR27       0.1957
     12  OH       116.0510   82.6040    7.5960 O.3    27  TYR27      -0.2866
     13  N        115.4260   83.4260    3.1400 N.3    29  PRO29      -0.2116
     14  CA       116.7910   83.5010    3.6620 C.3    29  PRO29       0.1372
     15  C        117.4270   84.8410    3.3340 C.2    29  PRO29       0.2244
     16  O        117.0430   85.5220    2.3810 O.2    29  PRO29      -0.2868
     17  CB       117.5110   82.3510    2.9470 C.3    29  PRO29       0.0268
     18  CG       116.4100   81.4310    2.4880 C.3    29  PRO29       0.0207
     19  CD       115.2810   82.3580    2.1370 C.3    29  PRO29       0.0892
     20  N        118.5880   85.6440   -0.2740 N.3    32  VAL32      -0.1245
     21  CA       117.5860   85.6160   -1.3360 C.3    32  VAL32       0.1561
     22  C        116.9450   86.9990   -1.4240 C.2    32  VAL32       0.2260
     23  O        116.4160   87.4840   -0.4150 O.2    32  VAL32      -0.2867
     24  CB       116.5270   84.5350   -1.0730 C.3    32  VAL32       0.0252
     25  CG1      115.4470   84.5660   -2.1510 C.3    32  VAL32       0.0019
     26  CG2      117.1850   83.1570   -1.0020 C.3    32  VAL32       0.0019
     27  N        109.1100   87.7950    8.2840 N.3    58  TYR58      -0.1241
     28  CA       109.8500   87.4280    7.0760 C.3    58  TYR58       0.1605
     29  C        110.1080   88.6400    6.1850 C.2    58  TYR58       0.2264
     30  O        110.9520   88.5660    5.2790 O.2    58  TYR58      -0.2867
     31  CB       109.1000   86.3510    6.2590 C.3    58  TYR58       0.0534
     32  CG       108.7300   85.0460    6.9730 C.ar   58  TYR58      -0.0201
     33  CD1      109.2990   84.6870    8.1950 C.ar   58  TYR58      -0.0009
     34  CD2      107.8050   84.1620    6.3950 C.ar   58  TYR58      -0.0009
     35  CE1      108.9480   83.4890    8.8290 C.ar   58  TYR58       0.0417
     36  CE2      107.4500   82.9590    7.0120 C.ar   58  TYR58       0.0417
     37  CZ       108.0230   82.6280    8.2360 C.ar   58  TYR58       0.1957
     38  OH       107.6740   81.4470    8.8830 O.3    58  TYR58      -0.2866
     39  N        103.6150   83.9120   16.6460 N.3   120  HIS120     -0.1226
     40  CA       104.8000   83.3040   16.0470 C.3   120  HIS120      0.1752
     41  C        105.5830   82.4530   17.0510 C.2   120  HIS120      0.2596
     42  O        106.2290   81.4730   16.6650 O.2   120  HIS120     -0.2718
     43  CB       105.6720   84.4120   15.4640 C.3   120  HIS120      0.0759
     44  CG       106.5240   83.9950   14.3060 C.ar  120  HIS120      0.0818
     45  ND1      106.7060   84.8070   13.2080 N.ar  120  HIS120     -0.2268
     46  CD2      107.2760   82.8880   14.0890 C.ar  120  HIS120      0.1154
     47  CE1      107.5240   84.2160   12.3560 C.ar  120  HIS120      0.1986
     48  NE2      107.8820   83.0480   12.8620 N.ar  120  HIS120     -0.2212
     49  N        105.5470   82.8320   18.3220 N.am  121  TYR121     -0.1976
     50  CA       106.2550   82.1650   19.4060 C.3   121  TYR121      0.1639
     51  C        105.4430   82.4050   20.6660 C.2   121  TYR121      0.2290
     52  O        104.5420   83.2510   20.6720 O.2   121  TYR121     -0.2864
     53  CB       107.6750   82.7220   19.5830 C.3   121  TYR121      0.0560
     54  CG       108.6650   82.2400   18.5640 C.ar  121  TYR121     -0.0198
     55  CD1      109.2500   80.9940   18.6920 C.ar  121  TYR121     -0.0009
     56  CD2      109.0240   83.0320   17.4790 C.ar  121  TYR121     -0.0009
     57  CE1      110.1550   80.5180   17.7580 C.ar  121  TYR121      0.0417
     58  CE2      109.9490   82.5630   16.5310 C.ar  121  TYR121      0.0417
     59  CZ       110.5080   81.3070   16.6920 C.ar  121  TYR121      0.1957
     60  OH       111.4090   80.7910   15.7690 O.3   121  TYR121     -0.2866
     61  N        106.8930   73.3790    9.6100 N.3   219  TYR219     -0.1227
     62  CA       107.9120   74.0480    8.8080 C.3   219  TYR219      0.1736
     63  C        109.2490   73.3400    8.9800 C.2   219  TYR219      0.2596
     64  O        109.4150   72.4690    9.8420 O.2   219  TYR219     -0.2718
     65  CB       108.0350   75.5410    9.1500 C.3   219  TYR219      0.0548
     66  CG       108.5660   75.8770   10.5250 C.ar  219  TYR219     -0.0200
     67  CD1      109.9270   76.0440   10.7550 C.ar  219  TYR219     -0.0009
     68  CD2      107.6920   76.0640   11.5950 C.ar  219  TYR219     -0.0009
     69  CE1      110.4030   76.3660   12.0320 C.ar  219  TYR219      0.0417
     70  CE2      108.1610   76.3830   12.8590 C.ar  219  TYR219      0.0417
     71  CZ       109.5050   76.5330   13.0710 C.ar  219  TYR219      0.1957
     72  OH       109.9660   76.8500   14.3330 O.3   219  TYR219     -0.2866
     73  N        110.2060   73.6990    8.1240 N.am  220  GLY220     -0.1942
     74  CA       111.4420   72.9370    8.0800 C.3   220  GLY220      0.2014
     75  C        111.2280   71.4940    7.6910 C.2   220  GLY220      0.2639
     76  O        111.9980   70.6180    8.1060 O.2   220  GLY220     -0.2714
     77  N        110.2010   71.2260    6.8740 N.am  221  ALA221     -0.1963
     78  CA       109.7310   69.8660    6.6210 C.3   221  ALA221      0.1728
     79  C        110.7420   69.0100    5.8740 C.2   221  ALA221      0.2616
     80  O        110.6120   67.7840    5.8790 O.2   221  ALA221     -0.2715
     81  CB       108.4260   69.9160    5.8280 C.3   221  ALA221      0.0334
     82  N        111.7220   69.6230    5.2100 N.am  222  LEU222     -0.1977
     83  CA       112.7660   68.8980    4.4990 C.3   222  LEU222      0.1596
     84  C        114.1120   69.0120    5.2020 C.2   222  LEU222      0.2287
     85  O        115.1500   68.7090    4.6030 O.2   222  LEU222     -0.2864
     86  CB       112.8670   69.3870    3.0550 C.3   222  LEU222      0.0297
     87  CG       111.6020   69.2150    2.2130 C.3   222  LEU222      0.0022
     88  CD1      111.8450   69.6590    0.7690 C.3   222  LEU222      0.0001
     89  CD2      111.1180   67.7710    2.2540 C.3   222  LEU222      0.0001
     90  N        115.4250   71.8960    6.5740 N.3   224  THR224     -0.1218
     91  CA       116.0000   73.2400    6.3950 C.3   224  THR224      0.1862
     92  C        117.2490   73.2350    5.5130 C.2   224  THR224      0.2287
     93  O        117.5570   74.2460    4.8800 O.2   224  THR224     -0.2866
     94  CB       116.3550   73.9120    7.7420 C.3   224  THR224      0.1770
     95  OG1      117.4840   73.2530    8.3250 O.3   224  THR224     -0.2211
     96  CG2      115.1890   73.8570    8.6920 C.3   224  THR224      0.0375
     97  N        118.0460   65.3980    3.5830 N.3   229  LEU229     -0.1245
     98  CA       117.7480   64.9100    2.2410 C.3   229  LEU229      0.1561
     99  C        118.7900   63.9310    1.7140 C.2   229  LEU229      0.2260
    100  O        118.5030   63.2210    0.7460 O.2   229  LEU229     -0.2867
    101  CB       117.5880   66.0910    1.2800 C.3   229  LEU229      0.0270
    102  CG       116.2680   66.8340    1.5190 C.3   229  LEU229      0.0019
    103  CD1      116.1500   68.0730    0.6430 C.3   229  LEU229      0.0001
    104  CD2      115.0870   65.8930    1.3030 C.3   229  LEU229      0.0001
    105  N        111.2570   61.0940   -5.2110 N.3   244  SER244     -0.1217
    106  CA       112.4380   61.7580   -4.6870 C.3   244  SER244      0.1889
    107  C        112.4810   61.7100   -3.1610 C.2   244  SER244      0.2288
    108  O        111.4490   61.5710   -2.4990 O.2   244  SER244     -0.2866
    109  CB       112.4700   63.2080   -5.1490 C.3   244  SER244      0.2089
    110  OG       111.4490   63.9540   -4.5070 O.3   244  SER244     -0.2183
    111  N        112.8140   64.2040   -1.1900 N.3   246  ALA246     -0.1245
    112  CA       111.9590   65.2820   -0.6950 C.3   246  ALA246      0.1562
    113  C        110.5050   64.8460   -0.6390 C.2   246  ALA246      0.2260
    114  O        109.7990   65.1480    0.3280 O.2   246  ALA246     -0.2867
    115  CB       112.1000   66.5250   -1.5840 C.3   246  ALA246      0.0290
    116  N        104.4080   72.6630    5.2960 N.3   261  LEU261     -0.1231
    117  CA       104.6860   73.8160    4.4510 C.3   261  LEU261      0.1693
    118  C        105.8770   73.4480    3.5820 C.2   261  LEU261      0.2592
    119  O        106.9860   73.2470    4.0880 O.2   261  LEU261     -0.2718
    120  CB       104.9760   75.0560    5.2900 C.3   261  LEU261      0.0284
    121  CG       103.8740   75.3900    6.2920 C.3   261  LEU261      0.0019
    122  CD1      104.2660   76.6060    7.1290 C.3   261  LEU261      0.0001
    123  CD2      102.5480   75.6150    5.5810 C.3   261  LEU261      0.0001
    124  N        105.6430   73.2920    2.2930 N.am  262  ALA262     -0.1966
    125  CA       106.7180   72.9900    1.3600 C.3   262  ALA262      0.1728
    126  C        107.1580   74.2860    0.7080 C.2   262  ALA262      0.2616
    127  O        106.3200   75.0830    0.2760 O.2   262  ALA262     -0.2715
    128  CB       106.2610   71.9850    0.3020 C.3   262  ALA262      0.0334
    129  N        108.4620   74.5190    0.6430 N.am  263  GLN263     -0.1963
    130  CA       108.8650   75.6930   -0.1150 C.3   263  GLN263      0.1733
    131  C        110.1420   75.4560   -0.9000 C.2   263  GLN263      0.2617
    132  O        111.0390   74.7110   -0.4900 O.2   263  GLN263     -0.2715
    133  CB       109.0040   76.9460    0.7650 C.3   263  GLN263      0.0408
    134  CG       110.1320   76.9790    1.7670 C.3   263  GLN263      0.0908
    135  CD       110.1680   78.3330    2.4770 C.2   263  GLN263      0.2608
    136  OE1      109.6130   78.4920    3.5690 O.2   263  GLN263     -0.2717
    137  NE2      110.7710   79.3230    1.8260 N.am  263  GLN263     -0.0878
    138  N        110.1720   76.0850   -2.0630 N.am  264  SER264     -0.1936
    139  CA       111.3530   76.1820   -2.8870 C.3   264  SER264      0.2055
    140  C        111.2230   77.4730   -3.6680 C.2   264  SER264      0.2643
    141  O        110.1180   77.9850   -3.8700 O.2   264  SER264     -0.2714
    142  CB       111.4920   74.9840   -3.8360 C.3   264  SER264      0.2130
    143  OG       112.6640   75.1160   -4.6200 O.3   264  SER264     -0.2179
    144  N        112.3600   78.0070   -4.0870 N.am  265  PHE265     -0.1959
    145  CA       112.3550   79.0940   -5.0500 C.3   265  PHE265      0.1771
    146  C        112.5350   78.5820   -6.4690 C.2   265  PHE265      0.2619
    147  O        112.5630   79.3830   -7.4100 O.2   265  PHE265     -0.2715
    148  CB       113.4340   80.1250   -4.6850 C.3   265  PHE265      0.0574
    149  CG       113.2370   80.7450   -3.3150 C.ar  265  PHE265     -0.0200
    150  CD1      112.2200   81.6670   -3.0980 C.ar  265  PHE265     -0.0042
    151  CD2      114.0470   80.3900   -2.2450 C.ar  265  PHE265     -0.0042
    152  CE1      112.0140   82.2230   -1.8420 C.ar  265  PHE265     -0.0003
    153  CE2      113.8430   80.9480   -0.9780 C.ar  265  PHE265     -0.0003
    154  CZ       112.8220   81.8620   -0.7830 C.ar  265  PHE265     -0.0000
    155  N        112.6290   77.2630   -6.6420 N.am  266  LYS266     -0.1977
    156  CA       112.7900   76.6390   -7.9530 C.3   266  LYS266      0.1596
    157  C        111.4540   76.0670   -8.4160 C.2   266  LYS266      0.2287
    158  O        110.8660   75.2150   -7.7380 O.2   266  LYS266     -0.2864
    159  CB       113.8550   75.5400   -7.9100 C.3   266  LYS266      0.0298
    160  CG       115.2350   76.0090   -7.4330 C.3   266  LYS266      0.0038
    161  CD       116.2540   74.8730   -7.4300 C.3   266  LYS266      0.0206
    162  CE       117.6460   75.3850   -7.0760 C.3   266  LYS266      0.1093
    163  NZ       117.7310   75.8080   -5.6520 N.3   266  LYS266     -0.1314
    164  N        110.8480   72.2710   -8.3790 N.3   269  GLU269     -0.1245
    165  CA       110.6520   71.6760   -7.0570 C.3   269  GLU269      0.1567
    166  C        109.2660   71.9940   -6.5030 C.2   269  GLU269      0.2260
    167  O        108.6330   71.1220   -5.8970 O.2   269  GLU269     -0.2867
    168  CB       111.7610   72.1340   -6.1090 C.3   269  GLU269      0.0388
    169  CG       113.1200   71.5790   -6.5250 C.3   269  GLU269      0.1160
    170  CD       114.2840   72.0950   -5.7060 C.2   269  GLU269      0.3649
    171  OE1      114.0930   72.9760   -4.8380 O.co2 269  GLU269     -0.2457
    172  OE2      115.4060   71.6070   -5.9460 O.co2 269  GLU269     -0.2457
    173  N        107.0680   69.5230   -8.2070 N.3   272  GLU272     -0.1231
    174  CA       107.2930   68.1830   -7.6850 C.3   272  GLU272      0.1699
    175  C        106.6080   67.9980   -6.3410 C.2   272  GLU272      0.2592
    176  O        105.9860   66.9570   -6.0930 O.2   272  GLU272     -0.2718
    177  CB       108.7870   67.8850   -7.5650 C.3   272  GLU272      0.0402
    178  CG       108.9770   66.4100   -7.2210 C.3   272  GLU272      0.1161
    179  CD       110.3790   65.9820   -6.8200 C.2   272  GLU272      0.3649
    180  OE1      111.1900   66.7920   -6.3260 O.co2 272  GLU272     -0.2457
    181  OE2      110.6570   64.7710   -6.9650 O.co2 272  GLU272     -0.2457
    182  N        106.6780   69.0120   -5.4740 N.am  273  ASN273     -0.1974
    183  CA       106.1370   68.8540   -4.1270 C.3   273  ASN273      0.1688
    184  C        104.6300   68.6600   -4.1550 C.2   273  ASN273      0.2292
    185  O        104.0850   67.9600   -3.2940 O.2   273  ASN273     -0.2864
    186  CB       106.5320   70.0470   -3.2580 C.3   273  ASN273      0.1181
    187  CG       108.0220   70.1090   -3.0160 C.2   273  ASN273      0.2629
    188  OD1      108.7260   69.1170   -3.2090 O.2   273  ASN273     -0.2716
    189  ND2      108.5150   71.2670   -2.5760 N.am  273  ASN273     -0.0877
    190  N        116.1790   74.6220   14.0970 N.3   299  LEU299     -0.1245
    191  CA       115.7310   76.0010   14.2920 C.3   299  LEU299      0.1561
    192  C        115.3420   76.2180   15.7510 C.2   299  LEU299      0.2260
    193  O        114.1560   76.3260   16.0870 O.2   299  LEU299     -0.2867
    194  CB       114.5710   76.3180   13.3460 C.3   299  LEU299      0.0270
    195  CG       114.9510   76.1820   11.8650 C.3   299  LEU299      0.0019
    196  CD1      113.7410   76.2970   10.9400 C.3   299  LEU299      0.0001
    197  CD2      116.0070   77.2270   11.5030 C.3   299  LEU299      0.0001
@<TRIPOS>BOND
     1   157   156    1
     2   157   158    2
     3   164   165    1
     4   173   174    1
     5   156   159    1
     6   156   155    1
     7   159   160    1
     8   174   177    1
     9   174   175    1
    10   177   178    1
    11   160   161    1
    12   161   162    1
    13   147   146    2
    14   178   179    1
    15   162   163    1
    16   165   166    1
    17   165   168    1
    18   181   179   ar
    19   179   180   ar
    20   155   146   am
    21   169   168    1
    22   169   170    1
    23   166   167    2
    24   146   145    1
    25   175   176    2
    26   175   182   am
    27   172   170   ar
    28   170   171   ar
    29   182   183    1
    30   105   106    1
    31   109   106    1
    32   109   110    1
    33   145   148    1
    34   145   144    1
    35   106   107    1
    36   148   149    1
    37   143   142    1
    38   184   183    1
    39   184   185    2
    40   183   186    1
    41   144   140   am
    42   141   140    2
    43   142   139    1
    44   140   139    1
    45   149   150   ar
    46   149   151   ar
    47   186   187    1
    48   188   187    2
    49   107   108    2
    50   150   152   ar
    51   187   189   am
    52   139   138    1
    53   151   153   ar
    54    25    24    1
    55   138   131   am
    56   152   154   ar
    57   115   112    1
    58    22    21    1
    59    22    23    2
    60    21    24    1
    61    21    20    1
    62   111   112    1
    63    24    26    1
    64   153   154   ar
    65   131   132    2
    66   131   130    1
    67   112   113    1
    68   113   114    2
    69   130   129    1
    70   130   133    1
    71   127   126    2
    72   128   125    1
    73   129   126   am
    74   103   102    1
    75   126   125    1
    76   100    99    2
    77   133   134    1
    78    88    87    1
    79   101   102    1
    80   101    98    1
    81   104   102    1
    82   125   124    1
    83    99    98    1
    84   134   135    1
    85   137   135   am
    86    19    18    1
    87    19    13    1
    88    87    89    1
    89    87    86    1
    90    98    97    1
    91   124   118   am
    92    16    15    2
    93   135   136    2
    94    18    17    1
    95     4     3    2
    96    17    14    1
    97    86    83    1
    98    13    14    1
    99    15    14    1
   100   118   119    2
   101   118   117    1
   102     3     2    1
   103     1     2    1
   104   117   120    1
   105   117   116    1
   106    83    84    1
   107    83    82    1
   108    85    84    2
   109     2     5    1
   110    93    92    2
   111    82    79   am
   112    30    29    2
   113   120   121    1
   114    92    91    1
   115   123   121    1
   116     8    10   ar
   117     8     6   ar
   118     5     6    1
   119    81    78    1
   120    79    80    2
   121    79    78    1
   122    10    11   ar
   123    29    28    1
   124     6     7   ar
   125    31    32    1
   126    31    28    1
   127   121   122    1
   128    91    90    1
   129    91    94    1
   130    34    32   ar
   131    34    36   ar
   132    78    77    1
   133    77    75   am
   134    32    33   ar
   135    36    37   ar
   136    28    27    1
   137    11    12    1
   138    11     9   ar
   139     7     9   ar
   140    75    74    1
   141    75    76    2
   142    94    95    1
   143    94    96    1
   144    74    73    1
   145    73    63   am
   146    33    35   ar
   147    37    35   ar
   148    37    38    1
   149    62    63    1
   150    62    65    1
   151    62    61    1
   152    63    64    2
   153    65    66    1
   154    66    67   ar
   155    66    68   ar
   156    67    69   ar
   157   196   195    1
   158   197   195    1
   159    68    70   ar
   160   195   194    1
   161    69    71   ar
   162    47    48   ar
   163    47    45   ar
   164    70    71   ar
   165    48    46   ar
   166    71    72    1
   167    45    44   ar
   168   194   191    1
   169    46    44   ar
   170   190   191    1
   171   191   192    1
   172    44    43    1
   173    43    40    1
   174   192   193    2
   175    60    59    1
   176    40    39    1
   177    40    41    1
   178    58    59   ar
   179    58    56   ar
   180    42    41    2
   181    59    57   ar
   182    41    49   am
   183    56    54   ar
   184    57    55   ar
   185    49    50    1
   186    54    55   ar
   187    54    53    1
   188    50    53    1
   189    50    51    1
   190    51    52    2
