@<TRIPOS>MOLECULE
tmp/5uxiA01.pdb
 154 147 0 0 0
SMALL
GASTEIGER

@<TRIPOS>ATOM
      1  N          4.3040  -23.4730    7.2250 N.3    19  VAL19      -0.1245
      2  CA         5.4160  -22.5270    7.4070 C.3    19  VAL19       0.1561
      3  C          5.5510  -22.2820    8.8870 C.2    19  VAL19       0.2260
      4  O          6.6090  -22.3260    9.4410 O.2    19  VAL19      -0.2867
      5  CB         5.1570  -21.2540    6.6040 C.3    19  VAL19       0.0252
      6  CG1        6.2130  -20.1890    6.9460 C.3    19  VAL19       0.0019
      7  CG2        5.1560  -21.5690    5.1190 C.3    19  VAL19       0.0019
      8  N          8.8050  -23.4420   11.1720 N.3    23  GLU23      -0.1245
      9  CA         9.5980  -22.4710   11.9830 C.3    23  GLU23       0.1567
     10  C          9.7580  -23.0680   13.4000 C.2    23  GLU23       0.2260
     11  O         10.8440  -23.0170   14.0080 O.2    23  GLU23      -0.2867
     12  CB         8.9470  -21.0920   12.0460 C.3    23  GLU23       0.0388
     13  CG         9.0860  -20.1600   10.8540 C.3    23  GLU23       0.1160
     14  CD        10.5230  -19.7920   10.4790 C.2    23  GLU23       0.3649
     15  OE1       11.4810  -20.2290   11.1360 O.co2  23  GLU23      -0.2457
     16  OE2       10.7110  -19.0540    9.5050 O.co2  23  GLU23      -0.2457
     17  N         15.8090  -16.3550   16.3000 N.3    50  MET50      -0.1245
     18  CA        15.3090  -15.7800   15.0420 C.3    50  MET50       0.1570
     19  C         14.1030  -16.5860   14.4840 C.2    50  MET50       0.2261
     20  O         13.0340  -16.0480   14.0780 O.2    50  MET50      -0.2867
     21  CB        16.5090  -15.7280   14.0400 C.3    50  MET50       0.0387
     22  CG        16.1540  -15.1870   12.6680 C.3    50  MET50       0.0595
     23  SD        17.4990  -14.7220   11.5860 S.3    50  MET50      -0.1393
     24  CE        18.2720  -16.3250   11.3450 C.3    50  MET50       0.0692
     25  N          4.5100  -15.2450   10.8000 N.3    58  PHE58      -0.1241
     26  CA         3.6910  -16.0840    9.9550 C.3    58  PHE58       0.1605
     27  C          2.3410  -16.3710   10.6080 C.2    58  PHE58       0.2264
     28  O          1.3050  -16.4910    9.9010 O.2    58  PHE58      -0.2867
     29  CB         4.4510  -17.3540    9.5390 C.3    58  PHE58       0.0534
     30  CG         5.6220  -17.0740    8.6240 C.ar   58  PHE58      -0.0203
     31  CD1        5.4630  -16.2410    7.4920 C.ar   58  PHE58      -0.0042
     32  CD2        6.8760  -17.5950    8.8810 C.ar   58  PHE58      -0.0042
     33  CE1        6.5430  -15.9230    6.6660 C.ar   58  PHE58      -0.0003
     34  CE2        7.9610  -17.2870    8.0420 C.ar   58  PHE58      -0.0003
     35  CZ         7.7850  -16.4580    6.9340 C.ar   58  PHE58      -0.0000
     36  N         15.9990  -26.1640    4.4290 N.3   106  GLU106     -0.1245
     37  CA        16.4590  -24.8950    3.9420 C.3   106  GLU106      0.1567
     38  C         16.1020  -24.7160    2.4700 C.2   106  GLU106      0.2260
     39  O         15.5470  -23.6960    2.0920 O.2   106  GLU106     -0.2867
     40  CB        17.9560  -24.9010    4.0810 C.3   106  GLU106      0.0388
     41  CG        18.7160  -24.0460    3.0560 C.3   106  GLU106      0.1160
     42  CD        19.0940  -22.6920    3.6070 C.2   106  GLU106      0.3649
     43  OE1       19.6170  -21.8620    2.8170 O.co2 106  GLU106     -0.2457
     44  OE2       18.9020  -22.4980    4.8390 O.co2 106  GLU106     -0.2457
     45  N         12.5600  -24.3600    1.8250 N.3   109  ALA109     -0.1231
     46  CA        12.1010  -22.9980    2.1450 C.3   109  ALA109      0.1694
     47  C         12.4420  -21.9080    1.1060 C.2   109  ALA109      0.2591
     48  O         11.6220  -20.9760    0.8650 O.2   109  ALA109     -0.2718
     49  CB        12.6000  -22.5590    3.5170 C.3   109  ALA109      0.0304
     50  N         13.6600  -21.9180    0.5950 N.am  110  ILE110     -0.1980
     51  CA        14.0410  -20.9810   -0.4550 C.3   110  ILE110      0.1595
     52  C         13.1500  -21.1570   -1.6950 C.2   110  ILE110      0.2287
     53  O         12.6300  -20.1970   -2.2060 O.2   110  ILE110     -0.2864
     54  CB        15.5160  -21.1420   -0.8570 C.3   110  ILE110      0.0276
     55  CG1       16.4530  -20.7770    0.3270 C.3   110  ILE110      0.0022
     56  CG2       15.7990  -20.2860   -2.1200 C.3   110  ILE110      0.0022
     57  CD1       17.9010  -21.2050    0.1780 C.3   110  ILE110      0.0001
     58  N         10.0950  -22.5150   -1.8640 N.3   112  ALA112     -0.1231
     59  CA         8.7490  -22.0290   -1.4690 C.3   112  ALA112      0.1694
     60  C          8.6090  -20.5370   -1.5150 C.2   112  ALA112      0.2592
     61  O          7.6350  -19.9870   -2.0380 O.2   112  ALA112     -0.2718
     62  CB         8.4230  -22.5080   -0.0770 C.3   112  ALA112      0.0304
     63  N          9.5730  -19.8600   -0.9220 N.am  113  TYR113     -0.1976
     64  CA         9.7180  -18.4200   -1.0980 C.3   113  TYR113      0.1639
     65  C          9.7760  -18.0020   -2.5720 C.2   113  TYR113      0.2290
     66  O          8.9770  -17.1990   -3.0050 O.2   113  TYR113     -0.2864
     67  CB        10.9970  -17.9080   -0.3660 C.3   113  TYR113      0.0560
     68  CG        11.2830  -16.4680   -0.7000 C.ar  113  TYR113     -0.0198
     69  CD1       10.4230  -15.4900   -0.2280 C.ar  113  TYR113     -0.0009
     70  CD2       12.3580  -16.0730   -1.5260 C.ar  113  TYR113     -0.0009
     71  CE1       10.6100  -14.1670   -0.5200 C.ar  113  TYR113      0.0417
     72  CE2       12.5500  -14.7130   -1.8260 C.ar  113  TYR113      0.0417
     73  CZ        11.6610  -13.7730   -1.2920 C.ar  113  TYR113      0.1957
     74  OH        11.7340  -12.4000   -1.4820 O.3   113  TYR113     -0.2866
     75  N          6.2750  -18.6680   -4.0600 N.3   116  TYR116     -0.1241
     76  CA         5.1720  -17.9580   -3.4250 C.3   116  TYR116      0.1605
     77  C          5.2010  -16.4480   -3.5840 C.2   116  TYR116      0.2264
     78  O          4.1370  -15.8090   -3.6760 O.2   116  TYR116     -0.2867
     79  CB         5.1510  -18.2230   -1.9330 C.3   116  TYR116      0.0534
     80  CG         4.1640  -17.3970   -1.0820 C.ar  116  TYR116     -0.0201
     81  CD1        2.7820  -17.5870   -1.1800 C.ar  116  TYR116     -0.0009
     82  CD2        4.6100  -16.5030   -0.1260 C.ar  116  TYR116     -0.0009
     83  CE1        1.9030  -16.8920   -0.3860 C.ar  116  TYR116      0.0417
     84  CE2        3.7300  -15.8020    0.6870 C.ar  116  TYR116      0.0417
     85  CZ         2.3650  -15.9940    0.5370 C.ar  116  TYR116      0.1957
     86  OH         1.4590  -15.3440    1.3360 O.3   116  TYR116     -0.2866
     87  N          6.7580  -11.7580    4.8380 N.3   128  THR128     -0.1218
     88  CA         7.6370  -12.7500    4.2630 C.3   128  THR128      0.1862
     89  C          8.9540  -12.1660    3.6850 C.2   128  THR128      0.2287
     90  O         10.0180  -12.8030    3.7810 O.2   128  THR128     -0.2866
     91  CB         6.8920  -13.5340    3.1710 C.3   128  THR128      0.1770
     92  OG1        5.6730  -14.1270    3.7220 O.3   128  THR128     -0.2211
     93  CG2        7.8010  -14.5970    2.5950 C.3   128  THR128      0.0375
     94  N         11.1920  -11.3520    6.7500 N.3   131  VAL131     -0.1231
     95  CA        11.8210  -12.6030    7.1780 C.3   131  VAL131      0.1692
     96  C         12.9460  -13.0560    6.2460 C.2   131  VAL131      0.2588
     97  O         14.0550  -13.3890    6.7220 O.2   131  VAL131     -0.2718
     98  CB        10.7710  -13.7120    7.3180 C.3   131  VAL131      0.0266
     99  CG1       11.3970  -15.1190    7.2810 C.3   131  VAL131      0.0020
    100  CG2        9.9820  -13.4390    8.5810 C.3   131  VAL131      0.0020
    101  N         12.7040  -13.0540    4.9390 N.am  132  VAL132     -0.2033
    102  CA        13.7410  -13.5620    4.0180 C.3   132  VAL132      0.1282
    103  C         15.0100  -12.6780    3.9400 C.3   132  VAL132      0.2035
    104  O         16.1920  -13.1830    3.9420 O.3   132  VAL132     -0.2185
    105  CB        13.1270  -13.8530    2.6380 C.3   132  VAL132      0.0226
    106  CG1       14.1900  -14.2540    1.6400 C.3   132  VAL132      0.0018
    107  CG2       12.1000  -14.9830    2.7770 C.3   132  VAL132      0.0018
    108  N         16.9400  -13.5070    7.0270 N.3   135  GLU135     -0.1231
    109  CA        17.6140  -14.8060    6.8090 C.3   135  GLU135      0.1699
    110  C         18.8450  -14.6490    5.9140 C.2   135  GLU135      0.2592
    111  O         19.8920  -15.2770    6.1410 O.2   135  GLU135     -0.2718
    112  CB        16.6050  -15.8470    6.2500 C.3   135  GLU135      0.0402
    113  CG        15.4590  -16.2180    7.2270 C.3   135  GLU135      0.1161
    114  CD        15.8770  -17.2180    8.3590 C.2   135  GLU135      0.3649
    115  OE1       16.9250  -17.9300    8.2180 O.co2 135  GLU135     -0.2457
    116  OE2       15.1790  -17.2880    9.4200 O.co2 135  GLU135     -0.2457
    117  N         18.7310  -13.8210    4.8870 N.am  136  TYR136     -0.1976
    118  CA        19.7700  -13.7250    3.9030 C.3   136  TYR136      0.1639
    119  C         20.9180  -12.8330    4.3410 C.2   136  TYR136      0.2290
    120  O         21.9200  -12.7730    3.6550 O.2   136  TYR136     -0.2864
    121  CB        19.2130  -13.2490    2.5370 C.3   136  TYR136      0.0560
    122  CG        18.8070  -14.4340    1.6780 C.ar  136  TYR136     -0.0198
    123  CD1       19.7670  -15.2090    1.0160 C.ar  136  TYR136     -0.0009
    124  CD2       17.4700  -14.8330    1.6000 C.ar  136  TYR136     -0.0009
    125  CE1       19.3930  -16.3200    0.2590 C.ar  136  TYR136      0.0417
    126  CE2       17.0800  -15.9150    0.8260 C.ar  136  TYR136      0.0417
    127  CZ        18.0310  -16.6630    0.1660 C.ar  136  TYR136      0.1957
    128  OH        17.6060  -17.7500   -0.5880 O.3   136  TYR136     -0.2866
    129  N         22.3720  -13.7530    6.9200 N.3   138  HIS138     -0.1226
    130  CA        23.2010  -14.8010    7.4850 C.3   138  HIS138      0.1752
    131  C         23.7090  -15.6980    6.4010 C.2   138  HIS138      0.2596
    132  O         23.1120  -15.8380    5.3220 O.2   138  HIS138     -0.2718
    133  CB        22.4450  -15.7000    8.4700 C.3   138  HIS138      0.0759
    134  CG        22.0100  -15.0270    9.7340 C.ar  138  HIS138      0.0818
    135  ND1       20.9520  -14.1360    9.7890 N.ar  138  HIS138     -0.2268
    136  CD2       22.4820  -15.1190   10.9940 C.ar  138  HIS138      0.1154
    137  CE1       20.7760  -13.7350   11.0350 C.ar  138  HIS138      0.1986
    138  NE2       21.7000  -14.3140   11.7850 N.ar  138  HIS138     -0.2212
    139  N         24.7870  -16.3900    6.7410 N.am  139  LEU139     -0.1966
    140  CA        25.2380  -17.5450    5.9650 C.3   139  LEU139      0.1728
    141  C         24.4410  -18.7340    6.4570 C.2   139  LEU139      0.2616
    142  O         23.8870  -18.6840    7.5600 O.2   139  LEU139     -0.2715
    143  CB        26.7130  -17.7830    6.1930 C.3   139  LEU139      0.0311
    144  CG        27.6080  -16.6930    5.5930 C.3   139  LEU139      0.0022
    145  CD1       29.0620  -17.0390    5.8490 C.3   139  LEU139      0.0001
    146  CD2       27.3800  -16.5280    4.0980 C.3   139  LEU139      0.0001
    147  N         24.4560  -19.8280    5.7140 N.am  140  ASN140     -0.1972
    148  CA        23.7650  -21.0520    6.1790 C.3   140  ASN140      0.1688
    149  C         24.6770  -21.8550    7.0970 C.2   140  ASN140      0.2292
    150  O         25.6190  -22.4810    6.6280 O.2   140  ASN140     -0.2864
    151  CB        23.3650  -21.8960    4.9690 C.3   140  ASN140      0.1181
    152  CG        22.6060  -23.1970    5.3580 C.2   140  ASN140      0.2629
    153  OD1       22.8350  -23.7760    6.3910 O.2   140  ASN140     -0.2716
    154  ND2       21.7650  -23.6390    4.5080 N.am  140  ASN140     -0.0877
@<TRIPOS>BOND
     1    75    76    1
     2    78    77    2
     3    77    76    1
     4    76    79    1
     5    66    65    2
     6    65    64    1
     7    53    52    2
     8    56    54    1
     9    61    60    2
    10    79    80    1
    11    58    59    1
    12    72    70   ar
    13    72    73   ar
    14    52    51    1
    15    70    68   ar
    16    60    59    1
    17    60    63   am
    18    74    73    1
    19    59    62    1
    20    73    71   ar
    21    81    80   ar
    22    81    83   ar
    23    64    63    1
    24    64    67    1
    25    80    82   ar
    26    54    51    1
    27    54    55    1
    28    68    67    1
    29    68    69   ar
    30   128   127    1
    31    71    69   ar
    32    51    50    1
    33    83    85   ar
    34    82    84   ar
    35   127   125   ar
    36   127   126   ar
    37    57    55    1
    38   125   123   ar
    39    85    84   ar
    40    85    86    1
    41    50    47   am
    42   126   124   ar
    43    48    47    2
    44   123   122   ar
    45    47    46    1
    46   124   122   ar
    47   106   105    1
    48   122   121    1
    49    45    46    1
    50    39    38    2
    51    46    49    1
    52    38    37    1
    53   121   118    1
    54    93    91    1
    55   105   107    1
    56   105   102    1
    57    43    42   ar
    58    41    42    1
    59    41    40    1
    60    91    92    1
    61    91    88    1
    62    42    44   ar
    63   120   119    2
    64    89    90    2
    65    89    88    1
    66   118   119    1
    67   118   117    1
    68   103   104    1
    69   103   102    1
    70    37    40    1
    71    37    36    1
    72   102   101    1
    73   146   144    1
    74    88    87    1
    75   154   152   am
    76   117   110   am
    77   101    96   am
    78   151   152    1
    79   151   148    1
    80     7     5    1
    81   132   131    2
    82   152   153    2
    83   144   145    1
    84   144   143    1
    85   147   148    1
    86   147   141   am
    87   110   111    2
    88   110   109    1
    89   140   143    1
    90   140   141    1
    91   140   139    1
    92   148   149    1
    93    96    97    2
    94    96    95    1
    95   112   109    1
    96   112   113    1
    97   131   139   am
    98   131   130    1
    99   141   142    2
   100     5     6    1
   101     5     2    1
   102   150   149    2
   103    33    35   ar
   104    33    31   ar
   105    94    95    1
   106   109   108    1
   107   129   130    1
   108    35    34   ar
   109    95    98    1
   110     1     2    1
   111   113   114    1
   112    99    98    1
   113    98   100    1
   114     2     3    1
   115   130   133    1
   116    31    30   ar
   117    34    32   ar
   118   115   114   ar
   119   114   116   ar
   120   133   134    1
   121    30    32   ar
   122    30    29    1
   123     3     4    2
   124    16    14   ar
   125    29    26    1
   126   134   135   ar
   127   134   136   ar
   128   135   137   ar
   129    28    27    2
   130    26    27    1
   131    26    25    1
   132    14    13    1
   133    14    15   ar
   134    13    12    1
   135   136   138   ar
   136   137   138   ar
   137     8     9    1
   138    24    23    1
   139    23    22    1
   140     9    12    1
   141     9    10    1
   142    22    21    1
   143    10    11    2
   144    21    18    1
   145    20    19    2
   146    19    18    1
   147    18    17    1
