@<TRIPOS>MOLECULE
tmp/5uxiA02.pdb
 159 149 0 0 0
SMALL
GASTEIGER

@<TRIPOS>ATOM
      1  N         -4.7660  -21.9050    2.2990 N.3    12  TYR12      -0.1241
      2  CA        -3.9230  -21.1130    3.2090 C.3    12  TYR12       0.1605
      3  C         -3.7920  -21.7070    4.5970 C.2    12  TYR12       0.2264
      4  O         -2.7170  -21.6410    5.1980 O.2    12  TYR12      -0.2867
      5  CB        -4.5190  -19.7330    3.4020 C.3    12  TYR12       0.0534
      6  CG        -3.5060  -18.6690    3.7570 C.ar   12  TYR12      -0.0201
      7  CD1       -2.5560  -18.3010    2.8410 C.ar   12  TYR12      -0.0009
      8  CD2       -3.5320  -17.9990    4.9950 C.ar   12  TYR12      -0.0009
      9  CE1       -1.6490  -17.2860    3.1070 C.ar   12  TYR12       0.0417
     10  CE2       -2.6190  -16.9720    5.2840 C.ar   12  TYR12       0.0417
     11  CZ        -1.6750  -16.6180    4.3300 C.ar   12  TYR12       0.1957
     12  OH        -0.7100  -15.6290    4.5390 O.3    12  TYR12      -0.2866
     13  N         -1.2320  -24.3690    4.0640 N.3    15  ILE15      -0.1231
     14  CA         0.0340  -23.8570    3.5770 C.3    15  ILE15       0.1692
     15  C          0.7520  -22.9560    4.5820 C.2    15  ILE15       0.2592
     16  O          1.9470  -23.1710    4.8350 O.2    15  ILE15      -0.2718
     17  CB        -0.1170  -23.1660    2.2100 C.3    15  ILE15       0.0266
     18  CG1       -0.5570  -24.2050    1.1640 C.3    15  ILE15       0.0019
     19  CG2        1.1870  -22.4800    1.8250 C.3    15  ILE15       0.0020
     20  CD1        0.4150  -25.3350    0.9240 C.3    15  ILE15       0.0001
     21  N          0.0290  -22.0060    5.1680 N.am   16  ASN16      -0.1974
     22  CA         0.5410  -21.1970    6.2620 C.3    16  ASN16       0.1688
     23  C          0.8220  -22.0200    7.5230 C.2    16  ASN16       0.2292
     24  O          1.7600  -21.7190    8.2210 O.2    16  ASN16      -0.2864
     25  CB        -0.4270  -20.0830    6.6250 C.3    16  ASN16       0.1181
     26  CG         0.1860  -19.0560    7.5670 C.2    16  ASN16       0.2629
     27  OD1        1.2770  -18.6220    7.3450 O.2    16  ASN16      -0.2716
     28  ND2       -0.5480  -18.6290    8.5650 N.am   16  ASN16      -0.0877
     29  N          2.0440  -25.0010    7.4680 N.3    18  ILE18      -0.1231
     30  CA         3.2620  -25.6990    7.1520 C.3    18  ILE18       0.1692
     31  C          4.4520  -24.7580    7.5060 C.2    18  ILE18       0.2591
     32  O          5.4050  -25.1640    8.1350 O.2    18  ILE18      -0.2718
     33  CB         3.2530  -26.1500    5.6790 C.3    18  ILE18       0.0266
     34  CG1        2.5010  -27.4800    5.5590 C.3    18  ILE18       0.0019
     35  CG2        4.6700  -26.2970    5.1470 C.3    18  ILE18       0.0020
     36  CD1        2.1890  -27.9030    4.1320 C.3    18  ILE18       0.0001
     37  N          4.3040  -23.4730    7.2250 N.am   19  VAL19      -0.1980
     38  CA         5.4160  -22.5270    7.4070 C.3    19  VAL19       0.1595
     39  C          5.5510  -22.2820    8.8870 C.2    19  VAL19       0.2287
     40  O          6.6090  -22.3260    9.4410 O.2    19  VAL19      -0.2864
     41  CB         5.1570  -21.2540    6.6040 C.3    19  VAL19       0.0276
     42  CG1        6.2130  -20.1890    6.9460 C.3    19  VAL19       0.0022
     43  CG2        5.1560  -21.5690    5.1190 C.3    19  VAL19       0.0022
     44  N          4.5100  -15.2450   10.8000 N.3    58  PHE58      -0.1241
     45  CA         3.6910  -16.0840    9.9550 C.3    58  PHE58       0.1605
     46  C          2.3410  -16.3710   10.6080 C.2    58  PHE58       0.2264
     47  O          1.3050  -16.4910    9.9010 O.2    58  PHE58      -0.2867
     48  CB         4.4510  -17.3540    9.5390 C.3    58  PHE58       0.0534
     49  CG         5.6220  -17.0740    8.6240 C.ar   58  PHE58      -0.0203
     50  CD1        5.4630  -16.2410    7.4920 C.ar   58  PHE58      -0.0042
     51  CD2        6.8760  -17.5950    8.8810 C.ar   58  PHE58      -0.0042
     52  CE1        6.5430  -15.9230    6.6660 C.ar   58  PHE58      -0.0003
     53  CE2        7.9610  -17.2870    8.0420 C.ar   58  PHE58      -0.0003
     54  CZ         7.7850  -16.4580    6.9340 C.ar   58  PHE58      -0.0000
     55  N          0.1820  -13.3980    9.6680 N.3    61  CYS61      -0.1235
     56  CA        -0.4030  -13.5660    8.3280 C.3    61  CYS61       0.1677
     57  C         -1.6770  -14.4130    8.3100 C.2    61  CYS61       0.2270
     58  O         -2.6170  -14.1370    7.5540 O.2    61  CYS61      -0.2867
     59  CB         0.5790  -14.2420    7.3990 C.3    61  CYS61       0.0956
     60  SG         2.0650  -13.2680    7.0840 S.3    61  CYS61      -0.0801
     61  N          2.7200  -33.4050    7.5230 N.3    77  PHE77      -0.1241
     62  CA         3.6030  -33.0020    6.4510 C.3    77  PHE77       0.1605
     63  C          5.0680  -33.1420    6.8530 C.2    77  PHE77       0.2264
     64  O          5.8560  -33.6970    6.0820 O.2    77  PHE77      -0.2867
     65  CB         3.2730  -31.5510    6.0970 C.3    77  PHE77       0.0534
     66  CG         4.0700  -30.9740    4.9820 C.ar   77  PHE77      -0.0203
     67  CD1        3.7550  -31.2430    3.6660 C.ar   77  PHE77      -0.0042
     68  CD2        5.1310  -30.1210    5.2480 C.ar   77  PHE77      -0.0042
     69  CE1        4.4310  -30.6470    2.6300 C.ar   77  PHE77      -0.0003
     70  CE2        5.8410  -29.5310    4.2100 C.ar   77  PHE77      -0.0003
     71  CZ         5.4860  -29.7930    2.8870 C.ar   77  PHE77      -0.0000
     72  N         14.0320  -26.3360    0.6220 N.3   108  PHE108     -0.1241
     73  CA        12.5730  -26.4110    0.5170 C.3   108  PHE108      0.1605
     74  C         12.0310  -25.0340    0.8000 C.2   108  PHE108      0.2264
     75  O         11.1690  -24.5630    0.0800 O.2   108  PHE108     -0.2867
     76  CB        12.0080  -27.4350    1.5210 C.3   108  PHE108      0.0534
     77  CG        10.6650  -28.0110    1.1440 C.ar  108  PHE108     -0.0203
     78  CD1        9.5000  -27.3040    1.3930 C.ar  108  PHE108     -0.0042
     79  CD2       10.5700  -29.2620    0.5710 C.ar  108  PHE108     -0.0042
     80  CE1        8.2490  -27.8260    1.0370 C.ar  108  PHE108     -0.0003
     81  CE2        9.3370  -29.8010    0.2180 C.ar  108  PHE108     -0.0003
     82  CZ         8.1730  -29.0830    0.4430 C.ar  108  PHE108     -0.0000
     83  N         10.0950  -22.5150   -1.8640 N.3   112  ALA112     -0.1231
     84  CA         8.7490  -22.0290   -1.4690 C.3   112  ALA112      0.1694
     85  C          8.6090  -20.5370   -1.5150 C.2   112  ALA112      0.2592
     86  O          7.6350  -19.9870   -2.0380 O.2   112  ALA112     -0.2718
     87  CB         8.4230  -22.5080   -0.0770 C.3   112  ALA112      0.0304
     88  N          9.5730  -19.8600   -0.9220 N.am  113  TYR113     -0.1976
     89  CA         9.7180  -18.4200   -1.0980 C.3   113  TYR113      0.1639
     90  C          9.7760  -18.0020   -2.5720 C.2   113  TYR113      0.2290
     91  O          8.9770  -17.1990   -3.0050 O.2   113  TYR113     -0.2864
     92  CB        10.9970  -17.9080   -0.3660 C.3   113  TYR113      0.0560
     93  CG        11.2830  -16.4680   -0.7000 C.ar  113  TYR113     -0.0198
     94  CD1       10.4230  -15.4900   -0.2280 C.ar  113  TYR113     -0.0009
     95  CD2       12.3580  -16.0730   -1.5260 C.ar  113  TYR113     -0.0009
     96  CE1       10.6100  -14.1670   -0.5200 C.ar  113  TYR113      0.0417
     97  CE2       12.5500  -14.7130   -1.8260 C.ar  113  TYR113      0.0417
     98  CZ        11.6610  -13.7730   -1.2920 C.ar  113  TYR113      0.1957
     99  OH        11.7340  -12.4000   -1.4820 O.3   113  TYR113     -0.2866
    100  N          6.2750  -18.6680   -4.0600 N.3   116  TYR116     -0.1241
    101  CA         5.1720  -17.9580   -3.4250 C.3   116  TYR116      0.1605
    102  C          5.2010  -16.4480   -3.5840 C.2   116  TYR116      0.2264
    103  O          4.1370  -15.8090   -3.6760 O.2   116  TYR116     -0.2867
    104  CB         5.1510  -18.2230   -1.9330 C.3   116  TYR116      0.0534
    105  CG         4.1640  -17.3970   -1.0820 C.ar  116  TYR116     -0.0201
    106  CD1        2.7820  -17.5870   -1.1800 C.ar  116  TYR116     -0.0009
    107  CD2        4.6100  -16.5030   -0.1260 C.ar  116  TYR116     -0.0009
    108  CE1        1.9030  -16.8920   -0.3860 C.ar  116  TYR116      0.0417
    109  CE2        3.7300  -15.8020    0.6870 C.ar  116  TYR116      0.0417
    110  CZ         2.3650  -15.9940    0.5370 C.ar  116  TYR116      0.1957
    111  OH         1.4590  -15.3440    1.3360 O.3   116  TYR116     -0.2866
    112  N          0.9930  -10.4670    3.7570 N.3   124  ALA124     -0.1245
    113  CA         1.9470  -11.6030    3.7860 C.3   124  ALA124      0.1562
    114  C          3.2250  -11.3270    2.9950 C.2   124  ALA124      0.2260
    115  O          4.2790  -11.7730    3.3990 O.2   124  ALA124     -0.2867
    116  CB         1.2910  -12.8960    3.2780 C.3   124  ALA124      0.0290
    117  N          6.7580  -11.7580    4.8380 N.3   128  THR128     -0.1218
    118  CA         7.6370  -12.7500    4.2630 C.3   128  THR128      0.1862
    119  C          8.9540  -12.1660    3.6850 C.2   128  THR128      0.2287
    120  O         10.0180  -12.8030    3.7810 O.2   128  THR128     -0.2866
    121  CB         6.8920  -13.5340    3.1710 C.3   128  THR128      0.1770
    122  OG1        5.6730  -14.1270    3.7220 O.3   128  THR128     -0.2211
    123  CG2        7.8010  -14.5970    2.5950 C.3   128  THR128      0.0375
    124  N          5.8760  -32.7210   -1.3940 N.3   172  LEU172     -0.1245
    125  CA         5.3490  -31.9820   -2.5570 C.3   172  LEU172      0.1561
    126  C          4.0320  -32.5400   -3.1290 C.2   172  LEU172      0.2260
    127  O          3.0860  -31.7910   -3.3570 O.2   172  LEU172     -0.2867
    128  CB         6.3970  -31.8930   -3.6520 C.3   172  LEU172      0.0270
    129  CG         7.4700  -30.9160   -3.1820 C.3   172  LEU172      0.0019
    130  CD1        8.6940  -30.9240   -4.0610 C.3   172  LEU172      0.0001
    131  CD2        6.8930  -29.5020   -3.1030 C.3   172  LEU172      0.0001
    132  N          0.7750  -31.4130   -1.2430 N.3   175  VAL175     -0.1245
    133  CA         0.3060  -30.0260   -1.3170 C.3   175  VAL175      0.1561
    134  C          0.1410  -29.5320   -2.7650 C.2   175  VAL175      0.2260
    135  O          0.0320  -28.3440   -2.9930 O.2   175  VAL175     -0.2867
    136  CB         1.2660  -29.0970   -0.5310 C.3   175  VAL175      0.0252
    137  CG1        1.2380  -29.4420    0.9640 C.3   175  VAL175      0.0019
    138  CG2        2.6970  -29.1950   -1.0260 C.3   175  VAL175      0.0019
    139  N         -1.0880  -25.7700   -3.4560 N.3   179  ALA179     -0.1245
    140  CA        -0.1140  -24.8970   -4.1310 C.3   179  ALA179      0.1562
    141  C         -0.7930  -24.2930   -5.3740 C.2   179  ALA179      0.2260
    142  O         -0.7660  -23.0640   -5.5820 O.2   179  ALA179     -0.2867
    143  CB         1.1320  -25.6900   -4.5190 C.3   179  ALA179      0.0290
    144  N          0.7680  -21.4010   -7.2870 N.3   184  MET184     -0.1245
    145  CA         2.1460  -21.8700   -7.2240 C.3   184  MET184      0.1570
    146  C          2.1130  -23.2570   -7.8630 C.2   184  MET184      0.2261
    147  O          1.3370  -24.0920   -7.4240 O.2   184  MET184     -0.2867
    148  CB         2.6200  -22.0060   -5.7620 C.3   184  MET184      0.0387
    149  CG         2.6590  -20.7450   -4.9050 C.3   184  MET184      0.0595
    150  SD         2.8600  -21.0760   -3.1310 S.3   184  MET184     -0.1393
    151  CE         4.4420  -21.8860   -3.1950 C.3   184  MET184      0.0692
    152  N          8.0430  -25.8300   -8.0710 N.3   189  LEU189     -0.1245
    153  CA         8.6020  -26.0060   -6.7540 C.3   189  LEU189      0.1561
    154  C          9.6430  -27.0710   -6.8320 C.2   189  LEU189      0.2260
    155  O         10.7000  -26.8780   -6.2780 O.2   189  LEU189     -0.2867
    156  CB         7.5220  -26.4110   -5.7520 C.3   189  LEU189      0.0270
    157  CG         6.6030  -25.2800   -5.2740 C.3   189  LEU189      0.0019
    158  CD1        5.4760  -25.9170   -4.4730 C.3   189  LEU189      0.0001
    159  CD2        7.3690  -24.2610   -4.4010 C.3   189  LEU189      0.0001
@<TRIPOS>BOND
     1   152   153    1
     2   146   147    2
     3   146   145    1
     4   144   145    1
     5   145   148    1
     6   154   153    1
     7   154   155    2
     8   153   156    1
     9   148   149    1
    10   156   157    1
    11   142   141    2
    12   141   140    1
    13   157   158    1
    14   157   159    1
    15   149   150    1
    16   143   140    1
    17   140   139    1
    18   130   129    1
    19   100   101    1
    20   103   102    2
    21   128   129    1
    22   128   125    1
    23   102   101    1
    24   101   104    1
    25   127   126    2
    26   151   150    1
    27   129   131    1
    28   126   125    1
    29    91    90    2
    30   135   134    2
    31   134   133    1
    32    90    89    1
    33   125   124    1
    34    86    85    2
    35   104   105    1
    36    83    84    1
    37    97    95   ar
    38    97    98   ar
    39    95    93   ar
    40    85    84    1
    41    85    88   am
    42    99    98    1
    43    84    87    1
    44   133   132    1
    45   133   136    1
    46    98    96   ar
    47   106   105   ar
    48   106   108   ar
    49    89    88    1
    50    89    92    1
    51   105   107   ar
    52   138   136    1
    53    93    92    1
    54    93    94   ar
    55   136   137    1
    56    96    94   ar
    57   108   110   ar
    58   107   109   ar
    59    75    74    2
    60    81    82   ar
    61    81    79   ar
    62    82    80   ar
    63    73    72    1
    64    73    74    1
    65    73    76    1
    66   110   109   ar
    67   110   111    1
    68    79    77   ar
    69    20    18    1
    70    80    78   ar
    71    77    78   ar
    72    77    76    1
    73    18    17    1
    74    19    17    1
    75    17    14    1
    76     1     2    1
    77   123   121    1
    78    69    71   ar
    79    69    67   ar
    80     7     9   ar
    81     7     6   ar
    82    71    70   ar
    83   114   115    2
    84   114   113    1
    85     9    11   ar
    86   121   122    1
    87   121   118    1
    88     2     5    1
    89     2     3    1
    90   116   113    1
    91     5     6    1
    92    14    13    1
    93    14    15    1
    94    67    66   ar
    95   119   120    2
    96   119   118    1
    97   112   113    1
    98     6     8   ar
    99    36    34    1
   100    70    68   ar
   101   118   117    1
   102    11    12    1
   103    11    10   ar
   104    15    16    2
   105    15    21   am
   106     3     4    2
   107    66    68   ar
   108    66    65    1
   109     8    10   ar
   110    43    41    1
   111    35    33    1
   112    21    22    1
   113    34    33    1
   114    33    30    1
   115    64    63    2
   116    65    62    1
   117    22    25    1
   118    22    23    1
   119    62    63    1
   120    62    61    1
   121    41    42    1
   122    41    38    1
   123    25    26    1
   124    52    54   ar
   125    52    50   ar
   126    54    53   ar
   127    60    59    1
   128    30    29    1
   129    30    31    1
   130    37    38    1
   131    37    31   am
   132    27    26    2
   133    59    56    1
   134    38    39    1
   135    50    49   ar
   136    31    32    2
   137    23    24    2
   138    58    57    2
   139    26    28   am
   140    53    51   ar
   141    57    56    1
   142    56    55    1
   143    49    51   ar
   144    49    48    1
   145    39    40    2
   146    48    45    1
   147    47    46    2
   148    45    46    1
   149    45    44    1
