@<TRIPOS>MOLECULE
tmp/5uxiA00.pdb
 135 126 0 0 0
SMALL
GASTEIGER

@<TRIPOS>ATOM
      1  N          2.0440  -25.0010    7.4680 N.3    18  ILE18      -0.1231
      2  CA         3.2620  -25.6990    7.1520 C.3    18  ILE18       0.1692
      3  C          4.4520  -24.7580    7.5060 C.2    18  ILE18       0.2591
      4  O          5.4050  -25.1640    8.1350 O.2    18  ILE18      -0.2718
      5  CB         3.2530  -26.1500    5.6790 C.3    18  ILE18       0.0266
      6  CG1        2.5010  -27.4800    5.5590 C.3    18  ILE18       0.0019
      7  CG2        4.6700  -26.2970    5.1470 C.3    18  ILE18       0.0020
      8  CD1        2.1890  -27.9030    4.1320 C.3    18  ILE18       0.0001
      9  N          4.3040  -23.4730    7.2250 N.am   19  VAL19      -0.1980
     10  CA         5.4160  -22.5270    7.4070 C.3    19  VAL19       0.1595
     11  C          5.5510  -22.2820    8.8870 C.2    19  VAL19       0.2287
     12  O          6.6090  -22.3260    9.4410 O.2    19  VAL19      -0.2864
     13  CB         5.1570  -21.2540    6.6040 C.3    19  VAL19       0.0276
     14  CG1        6.2130  -20.1890    6.9460 C.3    19  VAL19       0.0022
     15  CG2        5.1560  -21.5690    5.1190 C.3    19  VAL19       0.0022
     16  N          7.0090  -25.4460   10.4330 N.3    22  GLY22      -0.1210
     17  CA         8.3890  -25.5310    9.9760 C.3    22  GLY22       0.1956
     18  C          9.3000  -24.6350   10.8080 C.2    22  GLY22       0.2611
     19  O         10.4230  -25.0530   11.1120 O.2    22  GLY22      -0.2717
     20  N          8.8050  -23.4420   11.1720 N.am   23  GLU23      -0.1979
     21  CA         9.5980  -22.4710   11.9830 C.3    23  GLU23       0.1602
     22  C          9.7580  -23.0680   13.4000 C.2    23  GLU23       0.2287
     23  O         10.8440  -23.0170   14.0080 O.2    23  GLU23      -0.2864
     24  CB         8.9470  -21.0920   12.0460 C.3    23  GLU23       0.0415
     25  CG         9.0860  -20.1600   10.8540 C.3    23  GLU23       0.1163
     26  CD        10.5230  -19.7920   10.4790 C.2    23  GLU23       0.3649
     27  OE1       11.4810  -20.2290   11.1360 O.co2  23  GLU23      -0.2457
     28  OE2       10.7110  -19.0540    9.5050 O.co2  23  GLU23      -0.2457
     29  N         12.2570  -25.7990   13.1410 N.3    26  ALA26      -0.1245
     30  CA        13.5750  -25.1210   12.9640 C.3    26  ALA26       0.1562
     31  C         14.1330  -24.6530   14.3170 C.2    26  ALA26       0.2260
     32  O         15.2810  -24.9390   14.6280 O.2    26  ALA26      -0.2867
     33  CB        13.4940  -23.9830   11.9680 C.3    26  ALA26       0.0290
     34  N         17.5370  -26.3010   15.9660 N.3    30  TYR30      -0.1241
     35  CA        18.6990  -25.4990   16.3250 C.3    30  TYR30       0.1605
     36  C         19.1340  -25.7190   17.7910 C.2    30  TYR30       0.2264
     37  O         20.3390  -25.7880   18.1010 O.2    30  TYR30      -0.2867
     38  CB        18.5080  -24.0210   15.9830 C.3    30  TYR30       0.0534
     39  CG        18.7950  -23.7020   14.5400 C.ar   30  TYR30      -0.0201
     40  CD1       20.0930  -23.8370   14.0350 C.ar   30  TYR30      -0.0009
     41  CD2       17.8200  -23.2940   13.6680 C.ar   30  TYR30      -0.0009
     42  CE1       20.3980  -23.5650   12.7050 C.ar   30  TYR30       0.0417
     43  CE2       18.1110  -23.0390   12.3190 C.ar   30  TYR30       0.0417
     44  CZ        19.4210  -23.1650   11.8530 C.ar   30  TYR30       0.1957
     45  OH        19.7830  -22.9470   10.5310 O.3    30  TYR30      -0.2866
     46  N         14.2170  -17.9060   14.5290 N.3    51  GLU51      -0.1245
     47  CA        13.1870  -18.7350   13.9480 C.3    51  GLU51       0.1567
     48  C         11.9430  -18.6260   14.7760 C.2    51  GLU51       0.2260
     49  O         10.8800  -18.6370   14.2340 O.2    51  GLU51      -0.2867
     50  CB        13.6550  -20.1870   13.7950 C.3    51  GLU51       0.0388
     51  CG        14.9160  -20.3710   12.9920 C.3    51  GLU51       0.1160
     52  CD        14.9290  -19.6950   11.6280 C.2    51  GLU51       0.3649
     53  OE1       13.8950  -19.6950   10.9290 O.co2  51  GLU51      -0.2457
     54  OE2       15.9860  -19.1420   11.2370 O.co2  51  GLU51      -0.2457
     55  N          5.4430  -32.6860    8.0540 N.3    78  PHE78      -0.1241
     56  CA         6.8490  -32.8140    8.4950 C.3    78  PHE78       0.1605
     57  C          7.2020  -34.1210    9.1420 C.2    78  PHE78       0.2264
     58  O          8.3600  -34.3280    9.5130 O.2    78  PHE78      -0.2867
     59  CB         7.2550  -31.6800    9.4450 C.3    78  PHE78       0.0534
     60  CG         7.4630  -30.3810    8.7430 C.ar   78  PHE78      -0.0203
     61  CD1        8.6060  -30.1770    8.0020 C.ar   78  PHE78      -0.0042
     62  CD2        6.4970  -29.3860    8.7720 C.ar   78  PHE78      -0.0042
     63  CE1        8.8020  -28.9700    7.3400 C.ar   78  PHE78      -0.0003
     64  CE2        6.7020  -28.1850    8.1330 C.ar   78  PHE78      -0.0003
     65  CZ         7.8460  -27.9820    7.3970 C.ar   78  PHE78      -0.0000
     66  N         18.0330  -30.3400    8.3530 N.3   101  GLN101     -0.1231
     67  CA        17.7050  -28.9570    8.6190 C.3   101  GLN101      0.1698
     68  C         18.3110  -28.0150    7.6170 C.2   101  GLN101      0.2592
     69  O         17.6440  -27.1240    7.0660 O.2   101  GLN101     -0.2718
     70  CB        18.1830  -28.5580   10.0250 C.3   101  GLN101      0.0381
     71  CG        17.9250  -27.0950   10.3990 C.3   101  GLN101      0.0905
     72  CD        16.4280  -26.6830   10.4040 C.2   101  GLN101      0.2608
     73  OE1       15.5160  -27.4640   10.6900 O.2   101  GLN101     -0.2717
     74  NE2       16.1860  -25.4190   10.0760 N.am  101  GLN101     -0.0878
     75  N         19.6130  -28.1830    7.3740 N.am  102  SER102     -0.1952
     76  CA        20.3460  -27.1650    6.6610 C.3   102  SER102      0.1924
     77  C         20.2900  -27.3050    5.1450 C.2   102  SER102      0.2314
     78  O         20.5480  -26.3430    4.4440 O.2   102  SER102     -0.2863
     79  CB        21.7900  -27.0690    7.1400 C.3   102  SER102      0.2116
     80  OG        21.8820  -26.8300    8.5510 O.3   102  SER102     -0.2180
     81  N         15.4460  -28.8620    4.4210 N.3   105  ILE105     -0.1231
     82  CA        14.4580  -27.9420    4.8590 C.3   105  ILE105      0.1692
     83  C         14.7520  -26.5480    4.3430 C.2   105  ILE105      0.2591
     84  O         13.8400  -25.8270    3.9220 O.2   105  ILE105     -0.2718
     85  CB        14.3050  -27.9170    6.3890 C.3   105  ILE105      0.0266
     86  CG1       13.5600  -29.1690    6.8750 C.3   105  ILE105      0.0019
     87  CG2       13.5610  -26.6300    6.8450 C.3   105  ILE105      0.0020
     88  CD1       13.3940  -29.2310    8.4230 C.3   105  ILE105      0.0001
     89  N         15.9990  -26.1640    4.4290 N.am  106  GLU106     -0.1979
     90  CA        16.4590  -24.8950    3.9420 C.3   106  GLU106      0.1602
     91  C         16.1020  -24.7160    2.4700 C.2   106  GLU106      0.2287
     92  O         15.5470  -23.6960    2.0920 O.2   106  GLU106     -0.2864
     93  CB        17.9560  -24.9010    4.0810 C.3   106  GLU106      0.0415
     94  CG        18.7160  -24.0460    3.0560 C.3   106  GLU106      0.1163
     95  CD        19.0940  -22.6920    3.6070 C.2   106  GLU106      0.3649
     96  OE1       19.6170  -21.8620    2.8170 O.co2 106  GLU106     -0.2457
     97  OE2       18.9020  -22.4980    4.8390 O.co2 106  GLU106     -0.2457
     98  N         14.0320  -26.3360    0.6220 N.3   108  PHE108     -0.1227
     99  CA        12.5730  -26.4110    0.5170 C.3   108  PHE108      0.1736
    100  C         12.0310  -25.0340    0.8000 C.2   108  PHE108      0.2595
    101  O         11.1690  -24.5630    0.0800 O.2   108  PHE108     -0.2718
    102  CB        12.0080  -27.4350    1.5210 C.3   108  PHE108      0.0547
    103  CG        10.6650  -28.0110    1.1440 C.ar  108  PHE108     -0.0202
    104  CD1        9.5000  -27.3040    1.3930 C.ar  108  PHE108     -0.0042
    105  CD2       10.5700  -29.2620    0.5710 C.ar  108  PHE108     -0.0042
    106  CE1        8.2490  -27.8260    1.0370 C.ar  108  PHE108     -0.0003
    107  CE2        9.3370  -29.8010    0.2180 C.ar  108  PHE108     -0.0003
    108  CZ         8.1730  -29.0830    0.4430 C.ar  108  PHE108     -0.0000
    109  N         12.5600  -24.3600    1.8250 N.am  109  ALA109     -0.1980
    110  CA        12.1010  -22.9980    2.1450 C.3   109  ALA109      0.1597
    111  C         12.4420  -21.9080    1.1060 C.2   109  ALA109      0.2287
    112  O         11.6220  -20.9760    0.8650 O.2   109  ALA109     -0.2864
    113  CB        12.6000  -22.5590    3.5170 C.3   109  ALA109      0.0319
    114  N         10.0950  -22.5150   -1.8640 N.3   112  ALA112     -0.1245
    115  CA         8.7490  -22.0290   -1.4690 C.3   112  ALA112      0.1562
    116  C          8.6090  -20.5370   -1.5150 C.2   112  ALA112      0.2260
    117  O          7.6350  -19.9870   -2.0380 O.2   112  ALA112     -0.2867
    118  CB         8.4230  -22.5080   -0.0770 C.3   112  ALA112      0.0290
    119  N         16.9400  -13.5070    7.0270 N.3   135  GLU135     -0.1245
    120  CA        17.6140  -14.8060    6.8090 C.3   135  GLU135      0.1567
    121  C         18.8450  -14.6490    5.9140 C.2   135  GLU135      0.2260
    122  O         19.8920  -15.2770    6.1410 O.2   135  GLU135     -0.2867
    123  CB        16.6050  -15.8470    6.2500 C.3   135  GLU135      0.0388
    124  CG        15.4590  -16.2180    7.2270 C.3   135  GLU135      0.1160
    125  CD        15.8770  -17.2180    8.3590 C.2   135  GLU135      0.3649
    126  OE1       16.9250  -17.9300    8.2180 O.co2 135  GLU135     -0.2457
    127  OE2       15.1790  -17.2880    9.4200 O.co2 135  GLU135     -0.2457
    128  N         24.4560  -19.8280    5.7140 N.3   140  ASN140     -0.1240
    129  CA        23.7650  -21.0520    6.1790 C.3   140  ASN140      0.1653
    130  C         24.6770  -21.8550    7.0970 C.2   140  ASN140      0.2266
    131  O         25.6190  -22.4810    6.6280 O.2   140  ASN140     -0.2867
    132  CB        23.3650  -21.8960    4.9690 C.3   140  ASN140      0.1155
    133  CG        22.6060  -23.1970    5.3580 C.2   140  ASN140      0.2627
    134  OD1       22.8350  -23.7760    6.3910 O.2   140  ASN140     -0.2716
    135  ND2       21.7650  -23.6390    4.5080 N.am  140  ASN140     -0.0877
@<TRIPOS>BOND
     1   117   116    2
     2   114   115    1
     3   116   115    1
     4   115   118    1
     5   101   100    2
     6   107   108   ar
     7   107   105   ar
     8   108   106   ar
     9    99    98    1
    10    99   100    1
    11    99   102    1
    12   105   103   ar
    13   100   109   am
    14   112   111    2
    15   106   104   ar
    16   111   110    1
    17   103   104   ar
    18   103   102    1
    19   109   110    1
    20    92    91    2
    21   110   113    1
    22    91    90    1
    23    96    95   ar
    24    94    95    1
    25    94    93    1
    26    95    97   ar
    27    84    83    2
    28    90    93    1
    29    90    89    1
    30     8     6    1
    31    83    89   am
    32    83    82    1
    33    81    82    1
    34    78    77    2
    35   135   133   am
    36    82    85    1
    37   132   133    1
    38   132   129    1
    39    15    13    1
    40    77    76    1
    41     7     5    1
    42   133   134    2
    43     6     5    1
    44     5     2    1
    45   128   129    1
    46   121   122    2
    47   121   120    1
    48   129   130    1
    49   123   120    1
    50   123   124    1
    51    85    87    1
    52    85    86    1
    53    13    14    1
    54    13    10    1
    55   131   130    2
    56    76    79    1
    57    76    75    1
    58   120   119    1
    59    86    88    1
    60    69    68    2
    61    79    80    1
    62     2     1    1
    63     2     3    1
    64     9    10    1
    65     9     3   am
    66   124   125    1
    67    63    65   ar
    68    63    61   ar
    69    75    68   am
    70    65    64   ar
    71    10    11    1
    72     3     4    2
    73    68    67    1
    74    61    60   ar
    75    55    56    1
    76    64    62   ar
    77   126   125   ar
    78    66    67    1
    79   125   127   ar
    80    56    57    1
    81    56    59    1
    82    67    70    1
    83    60    62   ar
    84    60    59    1
    85    11    12    2
    86    57    58    2
    87    28    26   ar
    88    17    16    1
    89    17    18    1
    90    70    71    1
    91    74    72   am
    92    71    72    1
    93    72    73    2
    94    26    25    1
    95    26    27   ar
    96    45    44    1
    97    18    19    2
    98    18    20   am
    99    25    24    1
   100    53    52   ar
   101    20    21    1
   102    54    52   ar
   103    52    51    1
   104    44    43   ar
   105    44    42   ar
   106    33    30    1
   107    21    24    1
   108    21    22    1
   109    43    41   ar
   110    42    40   ar
   111    30    29    1
   112    30    31    1
   113    51    50    1
   114    22    23    2
   115    41    39   ar
   116    50    47    1
   117    47    46    1
   118    47    48    1
   119    40    39   ar
   120    49    48    2
   121    31    32    2
   122    39    38    1
   123    34    35    1
   124    38    35    1
   125    35    36    1
   126    36    37    2
