@<TRIPOS>MOLECULE
tmp/5uxmA01.pdb
 116 109 0 0 0
SMALL
GASTEIGER

@<TRIPOS>ATOM
      1  N         -2.9540  -15.8820  -38.8450 N.3    86  LEU86      -0.1245
      2  CA        -2.3910  -15.6480  -40.1870 C.3    86  LEU86       0.1561
      3  C         -2.3880  -16.9020  -41.0470 C.2    86  LEU86       0.2260
      4  O         -2.7040  -16.8330  -42.2590 O.2    86  LEU86      -0.2867
      5  CB        -0.9900  -15.0490  -40.1000 C.3    86  LEU86       0.0270
      6  CG        -0.8620  -13.6500  -39.4990 C.3    86  LEU86       0.0019
      7  CD1        0.5730  -13.2110  -39.5850 C.3    86  LEU86       0.0001
      8  CD2       -1.7470  -12.6570  -40.2400 C.3    86  LEU86       0.0001
      9  N         -5.8890  -17.5900  -42.1130 N.3    89  ALA89      -0.1231
     10  CA        -6.3300  -16.5910  -43.0880 C.3    89  ALA89       0.1694
     11  C         -5.7420  -16.8140  -44.4610 C.2    89  ALA89       0.2591
     12  O         -6.4650  -16.7140  -45.4610 O.2    89  ALA89      -0.2718
     13  CB        -6.0290  -15.1830  -42.6150 C.3    89  ALA89       0.0304
     14  N         -4.4570  -17.1190  -44.5200 N.am   90  VAL90      -0.1980
     15  CA        -3.8010  -17.2960  -45.8090 C.3    90  VAL90       0.1595
     16  C         -4.2620  -18.5760  -46.5290 C.2    90  VAL90       0.2287
     17  O         -4.4170  -18.5740  -47.7350 O.2    90  VAL90      -0.2864
     18  CB        -2.2820  -17.1710  -45.7020 C.3    90  VAL90       0.0276
     19  CG1       -1.6130  -18.4780  -45.2920 C.3    90  VAL90       0.0022
     20  CG2       -1.6990  -16.6710  -47.0090 C.3    90  VAL90       0.0022
     21  N         -7.6500  -17.5360  -47.9250 N.3    93  THR93      -0.1218
     22  CA        -7.4870  -16.5080  -48.9530 C.3    93  THR93       0.1862
     23  C         -6.9740  -17.1480  -50.2440 C.2    93  THR93       0.2287
     24  O         -7.5250  -16.8910  -51.3200 O.2    93  THR93      -0.2866
     25  CB        -6.5590  -15.3480  -48.4950 C.3    93  THR93       0.1770
     26  OG1       -7.0670  -14.7580  -47.2890 O.3    93  THR93      -0.2211
     27  CG2       -6.4910  -14.2160  -49.5240 C.3    93  THR93       0.0375
     28  N        -11.2840  -12.8920  -49.8620 N.3    99  PRO99      -0.2102
     29  CA       -10.7270  -11.9940  -48.8340 C.3    99  PRO99       0.1504
     30  C        -11.1860  -12.4270  -47.4480 C.2    99  PRO99       0.2575
     31  O        -12.3490  -12.8160  -47.2580 O.2    99  PRO99      -0.2718
     32  CB       -11.3100  -10.6200  -49.1820 C.3    99  PRO99       0.0282
     33  CG       -11.7370  -10.7280  -50.6050 C.3    99  PRO99       0.0208
     34  CD       -12.1270  -12.1520  -50.8220 C.3    99  PRO99       0.0893
     35  N        -10.2780  -12.3530  -46.4850 N.am  100  VAL100     -0.1980
     36  CA       -10.5820  -12.7490  -45.1070 C.3   100  VAL100      0.1595
     37  C        -10.3890  -11.5390  -44.2060 C.2   100  VAL100      0.2287
     38  O         -9.3110  -10.8840  -44.2280 O.2   100  VAL100     -0.2864
     39  CB        -9.6800  -13.9170  -44.6300 C.3   100  VAL100      0.0276
     40  CG1       -9.8960  -14.2070  -43.1440 C.3   100  VAL100      0.0022
     41  CG2       -9.9420  -15.1760  -45.4670 C.3   100  VAL100      0.0022
     42  N         -9.7730  -10.3670  -40.6650 N.3   102  LYS102     -0.1245
     43  CA        -9.1080  -10.9410  -39.4930 C.3   102  LYS102      0.1561
     44  C         -9.3390  -10.1670  -38.1920 C.2   102  LYS102      0.2260
     45  O         -8.9360   -9.0620  -38.0740 O.2   102  LYS102     -0.2867
     46  CB        -7.6100  -11.0200  -39.7510 C.3   102  LYS102      0.0271
     47  CG        -7.2260  -11.6760  -41.0740 C.3   102  LYS102      0.0035
     48  CD        -5.7640  -11.4290  -41.5290 C.3   102  LYS102      0.0206
     49  CE        -5.6090  -11.3950  -43.0820 C.3   102  LYS102      0.1093
     50  NZ        -6.4870  -10.5880  -43.9700 N.3   102  LYS102     -0.1314
     51  N          3.6740   -9.8340  -40.9720 N.3   174  ALA174     -0.1245
     52  CA         2.5800  -10.4040  -41.7660 C.3   174  ALA174      0.1562
     53  C          2.8050  -10.2560  -43.2880 C.2   174  ALA174      0.2260
     54  O          1.8740  -10.4790  -44.0750 O.2   174  ALA174     -0.2867
     55  CB         1.2690   -9.7740  -41.3790 C.3   174  ALA174      0.0290
     56  N          3.6160  -11.4730  -46.7950 N.3   176  LEU176     -0.1245
     57  CA         3.3950  -12.7920  -47.4180 C.3   176  LEU176      0.1561
     58  C          4.6550  -13.6000  -47.6890 C.2   176  LEU176      0.2260
     59  O          4.5800  -14.8210  -47.7690 O.2   176  LEU176     -0.2867
     60  CB         2.5760  -12.6610  -48.6890 C.3   176  LEU176      0.0270
     61  CG         1.1000  -12.3410  -48.4270 C.3   176  LEU176      0.0019
     62  CD1        0.4400  -11.9240  -49.7170 C.3   176  LEU176      0.0001
     63  CD2        0.3680  -13.5260  -47.8020 C.3   176  LEU176      0.0001
     64  N          4.9170  -18.5700  -40.2740 N.3   182  TRP182     -0.1241
     65  CA         3.6870  -18.6140  -39.4720 C.3   182  TRP182      0.1605
     66  C          3.3270  -20.0290  -39.0070 C.2   182  TRP182      0.2264
     67  O          2.4570  -20.1980  -38.1390 O.2   182  TRP182     -0.2867
     68  CB         2.5060  -18.0060  -40.2260 C.3   182  TRP182      0.0550
     69  CG         2.7960  -16.6480  -40.7430 C.ar  182  TRP182      0.0003
     70  CD1        3.6870  -15.7200  -40.2460 C.ar  182  TRP182      0.0946
     71  CD2        2.1860  -16.0540  -41.8730 C.ar  182  TRP182      0.0152
     72  NE1        3.6590  -14.5870  -41.0200 N.ar  182  TRP182     -0.2442
     73  CE2        2.7530  -14.7670  -42.0300 C.ar  182  TRP182      0.0810
     74  CE3        1.2230  -16.4870  -42.7900 C.ar  182  TRP182      0.0012
     75  CZ2        2.3850  -13.9220  -43.0690 C.ar  182  TRP182      0.0191
     76  CZ3        0.8470  -15.6390  -43.7990 C.ar  182  TRP182      0.0001
     77  CH2        1.4350  -14.3850  -43.9430 C.ar  182  TRP182      0.0015
     78  N          0.0990   -4.0870  -50.2430 N.3   220  GLN220     -0.1231
     79  CA        -0.8590   -5.1070  -49.8120 C.3   220  GLN220      0.1698
     80  C         -0.2100   -6.4730  -49.5970 C.2   220  GLN220      0.2592
     81  O         -0.7460   -7.3110  -48.8660 O.2   220  GLN220     -0.2718
     82  CB        -2.0120   -5.2500  -50.8050 C.3   220  GLN220      0.0381
     83  CG        -2.9040   -4.0110  -50.9160 C.3   220  GLN220      0.0905
     84  CD        -2.4930   -3.0820  -52.0530 C.2   220  GLN220      0.2608
     85  OE1       -1.3100   -2.9420  -52.3770 O.2   220  GLN220     -0.2717
     86  NE2       -3.4830   -2.4500  -52.6830 N.am  220  GLN220     -0.0878
     87  N          0.9300   -6.7000  -50.2370 N.am  221  LEU221     -0.1980
     88  CA         1.6610   -7.9630  -50.0360 C.3   221  LEU221      0.1596
     89  C          2.4840   -7.9870  -48.7370 C.2   221  LEU221      0.2287
     90  O          2.8960   -9.0690  -48.2920 O.2   221  LEU221     -0.2864
     91  CB         2.5680   -8.2430  -51.2320 C.3   221  LEU221      0.0297
     92  CG         1.8930   -8.2190  -52.6060 C.3   221  LEU221      0.0022
     93  CD1        2.9650   -8.3990  -53.6740 C.3   221  LEU221      0.0001
     94  CD2        0.7930   -9.2700  -52.7300 C.3   221  LEU221      0.0001
     95  N          1.6620   -6.1240  -45.6870 N.3   223  GLU223     -0.1231
     96  CA         0.9350   -5.8080  -44.4860 C.3   223  GLU223      0.1699
     97  C         -0.4840   -6.3090  -44.5780 C.2   223  GLU223      0.2593
     98  O         -0.9700   -6.6150  -45.6330 O.2   223  GLU223     -0.2718
     99  CB         0.9200   -4.2830  -44.2780 C.3   223  GLU223      0.0402
    100  CG         0.0760   -3.4830  -45.2500 C.3   223  GLU223      0.1161
    101  CD         0.4450   -2.0000  -45.3800 C.2   223  GLU223      0.3649
    102  OE1       -0.1780   -1.2620  -46.1480 O.co2 223  GLU223     -0.2457
    103  OE2        1.3730   -1.5480  -44.7600 O.co2 223  GLU223     -0.2457
    104  N         -1.1380   -6.3770  -43.4290 N.am  224  THR224     -0.1939
    105  CA        -2.5060   -6.7470  -43.4080 C.3   224  THR224      0.2028
    106  C         -3.2620   -6.0010  -42.3150 C.2   224  THR224      0.2642
    107  O         -2.6800   -5.5990  -41.3910 O.2   224  THR224     -0.2714
    108  CB        -2.7100   -8.2730  -43.2410 C.3   224  THR224      0.1808
    109  OG1       -4.0680   -8.5930  -43.4980 O.3   224  THR224     -0.2208
    110  CG2       -2.3700   -8.6950  -41.8470 C.3   224  THR224      0.0379
    111  N         -4.5490   -5.7940  -42.5160 N.am  225  SER225     -0.1949
    112  CA        -5.3830   -5.2260  -41.4890 C.3   225  SER225      0.1924
    113  C         -5.6420   -6.2770  -40.4270 C.2   225  SER225      0.2314
    114  O         -5.8430   -7.4560  -40.7080 O.2   225  SER225     -0.2863
    115  CB        -6.7120   -4.7900  -42.0650 C.3   225  SER225      0.2116
    116  OG        -6.4680   -3.7440  -42.9890 O.3   225  SER225     -0.2180
@<TRIPOS>BOND
     1    93    92    1
     2    94    92    1
     3    86    84   am
     4    92    91    1
     5    85    84    2
     6    84    83    1
     7    24    23    2
     8    91    88    1
     9    83    82    1
    10    34    33    1
    11    34    28    1
    12    82    79    1
    13    33    32    1
    14    23    22    1
    15    78    79    1
    16    87    88    1
    17    87    80   am
    18    88    89    1
    19    28    29    1
    20    79    80    1
    21    62    61    1
    22    80    81    2
    23    27    25    1
    24    32    29    1
    25    22    25    1
    26    22    21    1
    27    29    30    1
    28    89    90    2
    29    60    61    1
    30    60    57    1
    31    25    26    1
    32    61    63    1
    33    59    58    2
    34    17    16    2
    35    58    57    1
    36    30    31    2
    37    30    35   am
    38    57    56    1
    39    20    18    1
    40    16    15    1
    41    35    36    1
    42   102   101   ar
    43    15    18    1
    44    15    14    1
    45    18    19    1
    46    95    96    1
    47    98    97    2
    48    41    39    1
    49    12    11    2
    50   101   100    1
    51   101   103   ar
    52   100    99    1
    53    36    39    1
    54    36    37    1
    55    39    40    1
    56    97    96    1
    57    97   104   am
    58    14    11   am
    59    96    99    1
    60    11    10    1
    61    38    37    2
    62    54    53    2
    63    50    49    1
    64    77    76   ar
    65    77    75   ar
    66    76    74   ar
    67   109   108    1
    68   104   105    1
    69   105   108    1
    70   105   106    1
    71    53    52    1
    72   108   110    1
    73    10    13    1
    74    10     9    1
    75    49    48    1
    76    75    73   ar
    77   116   115    1
    78    74    71   ar
    79   111   106   am
    80   111   112    1
    81   106   107    2
    82     4     3    2
    83   115   112    1
    84    73    71   ar
    85    73    72   ar
    86    71    69   ar
    87    52    55    1
    88    52    51    1
    89    48    47    1
    90   112   113    1
    91    47    46    1
    92     3     2    1
    93    72    70   ar
    94    69    70   ar
    95    69    68    1
    96   114   113    2
    97    42    43    1
    98    64    65    1
    99     8     6    1
   100    68    65    1
   101     2     5    1
   102     2     1    1
   103     5     6    1
   104    46    43    1
   105     7     6    1
   106    43    44    1
   107    65    66    1
   108    66    67    2
   109    44    45    2
