@<TRIPOS>MOLECULE
tmp/5uxnA01.pdb
 116 109 0 0 0
SMALL
GASTEIGER

@<TRIPOS>ATOM
      1  N         37.7750   15.8740   38.9740 N.3    86  LEU86      -0.1245
      2  CA        38.2330   15.5910   40.3380 C.3    86  LEU86       0.1561
      3  C         38.2490   16.8580   41.2020 C.2    86  LEU86       0.2260
      4  O         37.9110   16.8300   42.3730 O.2    86  LEU86      -0.2867
      5  CB        39.6220   14.9410   40.3160 C.3    86  LEU86       0.0270
      6  CG        39.6890   13.5230   39.7420 C.3    86  LEU86       0.0019
      7  CD1       41.1360   13.0840   39.7450 C.3    86  LEU86       0.0001
      8  CD2       38.9050   12.4760   40.5230 C.3    86  LEU86       0.0001
      9  N         34.9130   17.6900   42.2900 N.3    89  ALA89      -0.1231
     10  CA        34.3640   16.7030   43.1740 C.3    89  ALA89       0.1694
     11  C         34.8820   16.9200   44.5750 C.2    89  ALA89       0.2591
     12  O         34.1120   16.9410   45.5320 O.2    89  ALA89      -0.2718
     13  CB        34.7190   15.3260   42.6950 C.3    89  ALA89       0.0304
     14  N         36.1860   17.1590   44.6850 N.am   90  VAL90      -0.1980
     15  CA        36.7460   17.3640   45.9650 C.3    90  VAL90       0.1595
     16  C         36.2580   18.6800   46.6520 C.2    90  VAL90       0.2287
     17  O         36.0840   18.7320   47.8890 O.2    90  VAL90      -0.2864
     18  CB        38.2620   17.3050   45.8840 C.3    90  VAL90       0.0276
     19  CG1       38.8620   18.5470   45.2140 C.3    90  VAL90       0.0022
     20  CG2       38.8270   17.1860   47.2480 C.3    90  VAL90       0.0022
     21  N         32.8960   17.7490   47.8470 N.3    93  THR93      -0.1218
     22  CA        32.9320   16.7720   48.9020 C.3    93  THR93       0.1862
     23  C         33.3560   17.4360   50.2610 C.2    93  THR93       0.2287
     24  O         32.6640   17.2810   51.2590 O.2    93  THR93      -0.2866
     25  CB        33.8130   15.5870   48.5290 C.3    93  THR93       0.1770
     26  OG1       33.3100   14.9670   47.3220 O.3    93  THR93      -0.2211
     27  CG2       33.8360   14.5520   49.6600 C.3    93  THR93       0.0375
     28  N         29.3870   12.6870   49.9310 N.3    99  PRO99      -0.2102
     29  CA        29.9780   11.9130   48.8240 C.3    99  PRO99       0.1504
     30  C         29.4930   12.4170   47.4530 C.2    99  PRO99       0.2575
     31  O         28.2860   12.7230   47.2870 O.2    99  PRO99      -0.2718
     32  CB        29.4510   10.4790   49.0300 C.3    99  PRO99       0.0282
     33  CG        28.8360   10.4600   50.4090 C.3    99  PRO99       0.0208
     34  CD        28.7110   11.8480   50.9320 C.3    99  PRO99       0.0893
     35  N         30.4200   12.4820   46.5010 N.am  100  VAL100     -0.1980
     36  CA        30.0790   12.8510   45.1400 C.3   100  VAL100      0.1595
     37  C         30.2710   11.6440   44.2150 C.2   100  VAL100      0.2287
     38  O         31.2960   11.0050   44.2370 O.2   100  VAL100     -0.2864
     39  CB        30.9050   14.0490   44.6700 C.3   100  VAL100      0.0276
     40  CG1       30.6670   14.3460   43.1930 C.3   100  VAL100      0.0022
     41  CG2       30.5650   15.2770   45.5050 C.3   100  VAL100      0.0022
     42  N         30.8920   10.3650   40.6460 N.3   102  LYS102     -0.1245
     43  CA        31.5270   10.9550   39.4590 C.3   102  LYS102      0.1561
     44  C         31.3020   10.1900   38.1270 C.2   102  LYS102      0.2260
     45  O         31.7620    9.0250   37.9400 O.2   102  LYS102     -0.2867
     46  CB        33.0140   11.1180   39.6840 C.3   102  LYS102      0.0271
     47  CG        33.3870   11.9620   40.8610 C.3   102  LYS102      0.0035
     48  CD        34.9000   12.1580   40.9650 C.3   102  LYS102      0.0206
     49  CE        35.6260   10.9130   41.3950 C.3   102  LYS102      0.1093
     50  NZ        35.0650   10.3460   42.6230 N.3   102  LYS102     -0.1314
     51  N         44.2690    9.7750   40.9880 N.3   174  ALA174     -0.1245
     52  CA        43.1290   10.3160   41.7510 C.3   174  ALA174      0.1562
     53  C         43.3240   10.2790   43.2950 C.2   174  ALA174      0.2260
     54  O         42.3940   10.6180   44.0710 O.2   174  ALA174     -0.2867
     55  CB        41.8900    9.5500   41.3680 C.3   174  ALA174      0.0290
     56  N         44.0110   11.4120   46.8670 N.3   176  LEU176     -0.1245
     57  CA        43.7890   12.7540   47.4780 C.3   176  LEU176      0.1561
     58  C         45.0620   13.6090   47.7670 C.2   176  LEU176      0.2260
     59  O         45.0020   14.8320   47.7820 O.2   176  LEU176     -0.2867
     60  CB        42.9400   12.6230   48.7280 C.3   176  LEU176      0.0270
     61  CG        41.5180   12.1710   48.4330 C.3   176  LEU176      0.0019
     62  CD1       40.8390   11.7240   49.6800 C.3   176  LEU176      0.0001
     63  CD2       40.6990   13.3130   47.8000 C.3   176  LEU176      0.0001
     64  N         45.7000   18.4830   40.3650 N.3   182  TRP182     -0.1241
     65  CA        44.5090   18.5370   39.5430 C.3   182  TRP182      0.1605
     66  C         44.2380   19.9660   39.0010 C.2   182  TRP182      0.2264
     67  O         43.5890   20.1260   37.9760 O.2   182  TRP182     -0.2867
     68  CB        43.3140   17.9980   40.2860 C.3   182  TRP182      0.0550
     69  CG        43.5120   16.6230   40.8160 C.ar  182  TRP182      0.0003
     70  CD1       44.4060   15.6720   40.3730 C.ar  182  TRP182      0.0946
     71  CD2       42.8530   16.0510   41.9390 C.ar  182  TRP182      0.0152
     72  NE1       44.2860   14.5190   41.1160 N.ar  182  TRP182     -0.2442
     73  CE2       43.3610   14.7330   42.1020 C.ar  182  TRP182      0.0810
     74  CE3       41.8920   16.5140   42.8270 C.ar  182  TRP182      0.0012
     75  CZ2       42.9140   13.8840   43.1100 C.ar  182  TRP182      0.0191
     76  CZ3       41.4360   15.6510   43.8130 C.ar  182  TRP182      0.0001
     77  CH2       41.9620   14.3470   43.9490 C.ar  182  TRP182      0.0015
     78  N         40.8310    4.0090   50.6510 N.3   220  GLN220     -0.1231
     79  CA        39.8300    5.0060   50.3770 C.3   220  GLN220      0.1698
     80  C         40.4180    6.3780   50.0590 C.2   220  GLN220      0.2592
     81  O         39.7680    7.1560   49.3910 O.2   220  GLN220     -0.2718
     82  CB        38.7760    5.1250   51.4920 C.3   220  GLN220      0.0381
     83  CG        37.9420    3.8600   51.6820 C.3   220  GLN220      0.0905
     84  CD        38.3790    2.9050   52.8190 C.2   220  GLN220      0.2608
     85  OE1       37.5400    2.1850   53.3270 O.2   220  GLN220     -0.2717
     86  NE2       39.6200    2.8890   53.1980 N.am  220  GLN220     -0.0878
     87  N         41.6530    6.6570   50.4680 N.am  221  LEU221     -0.1980
     88  CA        42.2690    7.9490   50.2200 C.3   221  LEU221      0.1596
     89  C         43.0290    8.0160   48.9060 C.2   221  LEU221      0.2287
     90  O         43.4250    9.0860   48.4370 O.2   221  LEU221     -0.2864
     91  CB        43.2280    8.2400   51.3640 C.3   221  LEU221      0.0297
     92  CG        42.6780    8.2030   52.7940 C.3   221  LEU221      0.0022
     93  CD1       43.7870    8.5920   53.7420 C.3   221  LEU221      0.0001
     94  CD2       41.4780    9.1360   52.9890 C.3   221  LEU221      0.0001
     95  N         42.2380    5.9950   45.8030 N.3   223  GLU223     -0.1231
     96  CA        41.5770    5.5850   44.5790 C.3   223  GLU223      0.1699
     97  C         40.1550    6.0780   44.6640 C.2   223  GLU223      0.2593
     98  O         39.6750    6.3350   45.7650 O.2   223  GLU223     -0.2718
     99  CB        41.5780    4.0580   44.4930 C.3   223  GLU223      0.0402
    100  CG        40.6640    3.3900   45.5100 C.3   223  GLU223      0.1161
    101  CD        40.9530    1.9070   45.7150 C.2   223  GLU223      0.3649
    102  OE1       40.1640    1.2540   46.3780 O.co2 223  GLU223     -0.2457
    103  OE2       41.9230    1.3610   45.1950 O.co2 223  GLU223     -0.2457
    104  N         39.4650    6.1590   43.5170 N.am  224  THR224     -0.1939
    105  CA        38.0550    6.4510   43.4910 C.3   224  THR224      0.2028
    106  C         37.4550    5.7590   42.3260 C.2   224  THR224      0.2642
    107  O         38.1610    5.4030   41.4440 O.2   224  THR224     -0.2714
    108  CB        37.8140    7.9980   43.3520 C.3   224  THR224      0.1808
    109  OG1       36.4470    8.3070   43.5670 O.3   224  THR224     -0.2208
    110  CG2       38.2340    8.5460   42.0210 C.3   224  THR224      0.0379
    111  N         36.1420    5.6290   42.2810 N.am  225  SER225     -0.1949
    112  CA        35.5160    5.0610   41.1080 C.3   225  SER225      0.1924
    113  C         35.1370    6.2020   40.1520 C.2   225  SER225      0.2314
    114  O         34.7260    7.2910   40.6050 O.2   225  SER225     -0.2863
    115  CB        34.2860    4.2630   41.5180 C.3   225  SER225      0.2116
    116  OG        34.6880    3.0190   42.0870 O.3   225  SER225     -0.2180
@<TRIPOS>BOND
     1    45    44    2
     2    67    66    2
     3    44    43    1
     4     1     2    1
     5    66    65    1
     6    43    46    1
     7    43    42    1
     8    65    68    1
     9    65    64    1
    10    46    47    1
    11     6     7    1
    12     6     5    1
    13     6     8    1
    14   113   114    2
    15   113   112    1
    16    68    69    1
    17     5     2    1
    18     2     3    1
    19    70    69   ar
    20    70    72   ar
    21    69    71   ar
    22    47    48    1
    23    48    49    1
    24    51    52    1
    25   112   115    1
    26   112   111    1
    27    72    73   ar
    28     3     4    2
    29    55    52    1
    30    49    50    1
    31   107   106    2
    32   115   116    1
    33    52    53    1
    34    71    73   ar
    35    71    74   ar
    36   110   108    1
    37    73    75   ar
    38   111   106   am
    39     9    10    1
    40   106   105    1
    41    13    10    1
    42    74    76   ar
    43    75    77   ar
    44    10    11    1
    45    40    39    1
    46    53    54    2
    47   108   105    1
    48   108   109    1
    49   105   104    1
    50   104    97   am
    51    76    77   ar
    52    37    38    2
    53    37    36    1
    54    99    96    1
    55    99   100    1
    56    11    14   am
    57    11    12    2
    58    96    97    1
    59    96    95    1
    60    97    98    2
    61    39    36    1
    62    39    41    1
    63    14    15    1
    64    36    35    1
    65   103   101   ar
    66    19    18    1
    67   100   101    1
    68   101   102   ar
    69    18    15    1
    70    18    20    1
    71    15    16    1
    72    35    30   am
    73    16    17    2
    74    56    57    1
    75    31    30    2
    76    26    25    1
    77    30    29    1
    78    57    58    1
    79    57    60    1
    80    58    59    2
    81    63    61    1
    82    21    22    1
    83    61    60    1
    84    61    62    1
    85    90    89    2
    86    25    22    1
    87    25    27    1
    88    29    32    1
    89    29    28    1
    90    22    23    1
    91    89    88    1
    92    32    33    1
    93    81    80    2
    94    28    34    1
    95    80    79    1
    96    80    87   am
    97    88    87    1
    98    88    91    1
    99    23    24    2
   100    79    78    1
   101    79    82    1
   102    33    34    1
   103    91    92    1
   104    82    83    1
   105    83    84    1
   106    92    94    1
   107    92    93    1
   108    84    86   am
   109    84    85    2
