@<TRIPOS>MOLECULE
tmp/5uxnA00.pdb
 126 118 0 0 0
SMALL
GASTEIGER

@<TRIPOS>ATOM
      1  N         30.6740   17.6200   24.8090 N.3    66  CYS66      -0.1235
      2  CA        29.4710   17.8700   24.0570 C.3    66  CYS66       0.1677
      3  C         29.4090   16.6690   23.0850 C.2    66  CYS66       0.2270
      4  O         28.4620   15.9510   23.1090 O.2    66  CYS66      -0.2867
      5  CB        29.4970   19.2060   23.3870 C.3    66  CYS66       0.0956
      6  SG        28.1370   19.3910   22.2990 S.3    66  CYS66      -0.0801
      7  N         30.9190   12.1810   30.8160 N.3   105  ARG105     -0.1245
      8  CA        30.4360   12.1540   29.4550 C.3   105  ARG105      0.1563
      9  C         31.5970   11.8870   28.5110 C.2   105  ARG105      0.2260
     10  O         32.1220   12.8130   27.8470 O.2   105  ARG105     -0.2867
     11  CB        29.8010   13.4940   29.0850 C.3   105  ARG105      0.0307
     12  CG        28.5220   13.8580   29.8020 C.3   105  ARG105      0.0489
     13  CD        27.9600   15.2450   29.3700 C.3   105  ARG105      0.2205
     14  NE        27.8170   15.3810   27.9080 N.pl3 105  ARG105     -0.0865
     15  CZ        26.7230   15.7150   27.2410 C.cat 105  ARG105      0.5346
     16  NH1       25.5850   15.9570   27.8520 N.pl3 105  ARG105      0.1354
     17  NH2       26.7460   15.8190   25.9270 N.pl3 105  ARG105      0.1354
     18  N         30.6040    9.2920   24.0090 N.3   109  GLN109     -0.1245
     19  CA        29.7190   10.4190   23.7120 C.3   109  GLN109      0.1566
     20  C         30.0250   10.9690   22.3120 C.2   109  GLN109      0.2260
     21  O         30.6730   11.9870   22.1490 O.2   109  GLN109     -0.2867
     22  CB        29.8440   11.4430   24.8370 C.3   109  GLN109      0.0367
     23  CG        29.0410   12.7360   24.7560 C.3   109  GLN109      0.0905
     24  CD        27.5620   12.4970   24.5050 C.2   109  GLN109      0.2608
     25  OE1       26.9700   11.5510   25.0170 O.2   109  GLN109     -0.2717
     26  NE2       26.9680   13.3500   23.7190 N.am  109  GLN109     -0.0878
     27  N         22.3510   14.5140   18.3270 N.3   113  PRO113     -0.2116
     28  CA        21.0110   14.7530   17.7510 C.3   113  PRO113      0.1372
     29  C         20.9680   16.1510   17.1400 C.2   113  PRO113      0.2244
     30  O         21.6110   17.0700   17.6570 O.2   113  PRO113     -0.2868
     31  CB        20.1130   14.6530   18.9970 C.3   113  PRO113      0.0268
     32  CG        21.0240   15.2530   20.0620 C.3   113  PRO113      0.0207
     33  CD        22.4210   14.8750   19.7450 C.3   113  PRO113      0.0892
     34  N         24.6830    9.7030   25.6610 N.3   231  GLU231     -0.1245
     35  CA        23.3160    9.5800   25.1430 C.3   231  GLU231      0.1567
     36  C         23.2570    8.3420   24.3250 C.2   231  GLU231      0.2260
     37  O         24.0090    8.2000   23.3950 O.2   231  GLU231     -0.2867
     38  CB        22.9460   10.7510   24.2500 C.3   231  GLU231      0.0388
     39  CG        21.4860   10.7530   23.9310 C.3   231  GLU231      0.1160
     40  CD        21.0830   11.8430   22.9510 C.2   231  GLU231      0.3649
     41  OE1       21.8020   12.8850   22.8480 O.co2 231  GLU231     -0.2457
     42  OE2       20.0860   11.6130   22.2490 O.co2 231  GLU231     -0.2457
     43  N         21.4890    7.7180   28.6520 N.3   260  TRP260     -0.1241
     44  CA        20.3740    8.6280   28.8040 C.3   260  TRP260      0.1605
     45  C         19.7000    8.8720   27.4640 C.2   260  TRP260      0.2264
     46  O         20.3110    8.7480   26.4210 O.2   260  TRP260     -0.2867
     47  CB        20.8200    9.9630   29.4780 C.3   260  TRP260      0.0550
     48  CG        21.4440   10.9660   28.5720 C.ar  260  TRP260      0.0003
     49  CD1       20.7960   11.8050   27.6770 C.ar  260  TRP260      0.0946
     50  CD2       22.8210   11.3080   28.5160 C.ar  260  TRP260      0.0152
     51  NE1       21.7030   12.6390   27.0860 N.ar  260  TRP260     -0.2442
     52  CE2       22.9570   12.3490   27.5680 C.ar  260  TRP260      0.0810
     53  CE3       23.9630   10.8370   29.1820 C.ar  260  TRP260      0.0012
     54  CZ2       24.1760   12.9070   27.2450 C.ar  260  TRP260      0.0191
     55  CZ3       25.1920   11.3990   28.8610 C.ar  260  TRP260      0.0001
     56  CH2       25.2810   12.4490   27.9160 C.ar  260  TRP260      0.0015
     57  N         17.7750   11.5920   25.0570 N.3   262  GLY262     -0.1210
     58  CA        17.8690   13.0170   24.7790 C.3   262  GLY262      0.1956
     59  C         16.4650   13.5890   24.7300 C.2   262  GLY262      0.2612
     60  O         15.4840   12.8520   24.7200 O.2   262  GLY262     -0.2717
     61  N         16.3930   14.9040   24.7540 N.am  263  ASP263     -0.1959
     62  CA        15.1180   15.5750   24.8030 C.3   263  ASP263      0.1840
     63  C         14.2660   15.3570   23.5400 C.2   263  ASP263      0.2621
     64  O         13.0590   15.2630   23.6090 O.2   263  ASP263     -0.2715
     65  CB        15.3540   17.0540   25.0070 C.3   263  ASP263      0.1450
     66  CG        14.0750   17.7930   25.4660 C.2   263  ASP263      0.3671
     67  OD1       13.4360   17.4000   26.4900 O.co2 263  ASP263     -0.2456
     68  OD2       13.7390   18.7630   24.8000 O.co2 263  ASP263     -0.2456
     69  N         14.9090   15.2230   22.3840 N.am  264  ARG264     -0.1977
     70  CA        14.2050   15.0570   21.1460 C.3   264  ARG264      0.1597
     71  C         13.8900   13.5990   20.8230 C.2   264  ARG264      0.2287
     72  O         13.3230   13.3570   19.7940 O.2   264  ARG264     -0.2864
     73  CB        15.0620   15.5940   20.0010 C.3   264  ARG264      0.0334
     74  CG        15.2820   17.1020   19.9810 C.3   264  ARG264      0.0492
     75  CD        16.3670   17.4340   18.9600 C.3   264  ARG264      0.2205
     76  NE        16.9960   18.7440   19.0490 N.pl3 264  ARG264     -0.0865
     77  CZ        17.8210   19.1380   20.0250 C.cat 264  ARG264      0.5346
     78  NH1       18.0630   18.3660   21.1080 N.pl3 264  ARG264      0.1354
     79  NH2       18.3820   20.3490   19.9360 N.pl3 264  ARG264      0.1354
     80  N         16.4350   13.3800   29.5120 N.3   286  LYS286     -0.1245
     81  CA        16.4650   14.8090   29.3760 C.3   286  LYS286      0.1561
     82  C         15.0450   15.3920   29.4570 C.2   286  LYS286      0.2260
     83  O         14.1250   14.9610   28.7640 O.2   286  LYS286     -0.2867
     84  CB        17.1390   15.2030   28.0620 C.3   286  LYS286      0.0271
     85  CG        18.6330   14.8550   27.9920 C.3   286  LYS286      0.0035
     86  CD        19.3810   15.4950   29.1370 C.3   286  LYS286      0.0206
     87  CE        20.8340   15.7010   28.8490 C.3   286  LYS286      0.1093
     88  NZ        21.1240   16.9830   28.1620 N.3   286  LYS286     -0.1314
     89  N         16.6280   20.4910   31.9880 N.3   317  ARG317     -0.1245
     90  CA        17.2370   21.5670   31.2180 C.3   317  ARG317      0.1563
     91  C         16.1410   22.4630   30.6940 C.2   317  ARG317      0.2260
     92  O         15.5400   22.1770   29.6840 O.2   317  ARG317     -0.2867
     93  CB        18.0780   21.0060   30.0510 C.3   317  ARG317      0.0307
     94  CG        17.7290   19.5910   29.6190 C.3   317  ARG317      0.0489
     95  CD        16.7010   19.4740   28.5320 C.3   317  ARG317      0.2205
     96  NE        17.2370   19.7080   27.1880 N.pl3 317  ARG317     -0.0865
     97  CZ        16.9480   20.7430   26.3790 C.cat 317  ARG317      0.5346
     98  NH1       16.1090   21.7020   26.7650 N.pl3 317  ARG317      0.1354
     99  NH2       17.4900   20.7970   25.1730 N.pl3 317  ARG317      0.1354
    100  N         21.8160   23.1420   28.0820 N.3   349  HIS349     -0.1241
    101  CA        21.1360   22.9080   26.8180 C.3   349  HIS349      0.1621
    102  C         19.8660   23.7130   26.6670 C.2   349  HIS349      0.2264
    103  O         19.3170   23.7590   25.6050 O.2   349  HIS349     -0.2867
    104  CB        20.8460   21.4280   26.5710 C.3   349  HIS349      0.0745
    105  CG        22.0800   20.6700   26.2490 C.ar  349  HIS349      0.0817
    106  ND1       22.7790   19.9580   27.1970 N.ar  349  HIS349     -0.2268
    107  CD2       22.8110   20.6180   25.1190 C.ar  349  HIS349      0.1154
    108  CE1       23.8860   19.4940   26.6610 C.ar  349  HIS349      0.1986
    109  NE2       23.9080   19.8450   25.3900 N.ar  349  HIS349     -0.2212
    110  N         28.4930   20.2920   30.1940 N.3   391  GLU391     -0.1245
    111  CA        29.5230   20.1100   29.1680 C.3   391  GLU391      0.1567
    112  C         30.6920   21.0080   29.5000 C.2   391  GLU391      0.2260
    113  O         30.4880   22.1610   29.8590 O.2   391  GLU391     -0.2867
    114  CB        28.9700   20.4130   27.7990 C.3   391  GLU391      0.0388
    115  CG        27.6890   19.6290   27.5350 C.3   391  GLU391      0.1160
    116  CD        27.1360   19.8160   26.1290 C.2   391  GLU391      0.3649
    117  OE1       26.7440   18.7820   25.5410 O.co2 391  GLU391     -0.2457
    118  OE2       26.9280   20.9720   25.6780 O.co2 391  GLU391     -0.2457
    119  N         28.0370   22.5670   21.0150 N.3   421  ASP421     -0.1239
    120  CA        27.6920   23.6570   21.8890 C.3   421  ASP421      0.1674
    121  C         28.8770   24.1110   22.7320 C.2   421  ASP421      0.2266
    122  O         29.8010   23.3370   22.9840 O.2   421  ASP421     -0.2867
    123  CB        26.5750   23.2080   22.8010 C.3   421  ASP421      0.1410
    124  CG        25.4170   22.6280   22.0540 C.2   421  ASP421      0.3668
    125  OD1       24.8680   23.2980   21.1530 O.co2 421  ASP421     -0.2456
    126  OD2       25.0260   21.5160   22.3940 O.co2 421  ASP421     -0.2456
@<TRIPOS>BOND
     1    29    30    2
     2    29    28    1
     3    28    27    1
     4    28    31    1
     5    27    33    1
     6    75    76    1
     7    75    74    1
     8    31    32    1
     9    76    77    2
    10    33    32    1
    11    72    71    2
    12    79    77    1
    13    74    73    1
    14    73    70    1
    15    77    78    1
    16    71    70    1
    17   119   120    1
    18    70    69    1
    19   125   124   ar
    20   120   121    1
    21   120   123    1
    22   124   126   ar
    23   124   123    1
    24    21    20    2
    25    42    40   ar
    26     6     5    1
    27    20    19    1
    28    69    63   am
    29   121   122    2
    30    41    40   ar
    31    40    39    1
    32     3     4    2
    33     3     2    1
    34     5     2    1
    35    37    36    2
    36    63    64    2
    37    63    62    1
    38    19    18    1
    39    19    22    1
    40    26    24   am
    41    39    38    1
    42     2     1    1
    43    38    35    1
    44    36    35    1
    45    24    23    1
    46    24    25    2
    47    60    59    2
    48    59    61   am
    49    59    58    1
    50    61    62    1
    51    23    22    1
    52    58    57    1
    53    68    66   ar
    54    62    65    1
    55    65    66    1
    56   107   109   ar
    57   107   105   ar
    58    35    34    1
    59    99    97    1
    60   109   108   ar
    61    66    67   ar
    62   117   116   ar
    63   103   102    2
    64   118   116   ar
    65    17    15    1
    66   116   115    1
    67   105   104    1
    68   105   106   ar
    69    97    98    1
    70    97    96    2
    71    46    45    2
    72   104   101    1
    73   108   106   ar
    74   102   101    1
    75   101   100    1
    76    51    52   ar
    77    51    49   ar
    78    96    95    1
    79    15    16    1
    80    15    14    2
    81    54    52   ar
    82    54    56   ar
    83    45    44    1
    84   115   114    1
    85    52    50   ar
    86    49    48   ar
    87   114   111    1
    88    10     9    2
    89    14    13    1
    90    56    55   ar
    91    85    84    1
    92    85    86    1
    93    84    81    1
    94    88    87    1
    95     9     8    1
    96    50    48   ar
    97    50    53   ar
    98    95    94    1
    99    48    47    1
   100    43    44    1
   101    83    82    2
   102    44    47    1
   103    87    86    1
   104    55    53   ar
   105    11     8    1
   106    11    12    1
   107   111   112    1
   108   111   110    1
   109    13    12    1
   110    81    82    1
   111    81    80    1
   112     8     7    1
   113   112   113    2
   114    94    93    1
   115    92    91    2
   116    93    90    1
   117    91    90    1
   118    90    89    1
