@<TRIPOS>MOLECULE
tmp/5uxyA00.pdb
 175 161 0 0 0
SMALL
GASTEIGER

@<TRIPOS>ATOM
      1  N          6.1070   -1.6910   34.0740 N.3    23  LEU23      -0.1245
      2  CA         5.0740   -1.4890   35.0830 C.3    23  LEU23       0.1561
      3  C          3.7410   -1.1770   34.4020 C.2    23  LEU23       0.2260
      4  O          3.6810   -0.9520   33.1990 O.2    23  LEU23      -0.2867
      5  CB         5.4620   -0.3520   36.0130 C.3    23  LEU23       0.0270
      6  CG         6.4180   -0.8460   37.1280 C.3    23  LEU23       0.0019
      7  CD1        7.8050   -0.7730   36.5640 C.3    23  LEU23       0.0001
      8  CD2        6.3020   -0.0550   38.4410 C.3    23  LEU23       0.0001
      9  N         -0.7310    2.3350   40.2120 N.3    55  THR55      -0.1203
     10  CA         0.3340    1.6470   39.4960 C.3    55  THR55       0.1994
     11  C          0.6140    0.2860   40.1470 C.2    55  THR55       0.2618
     12  O          0.2890    0.0530   41.3130 O.2    55  THR55      -0.2717
     13  CB         1.6330    2.4770   39.4370 C.3    55  THR55       0.1784
     14  OG1        2.0930    2.7610   40.7700 O.3    55  THR55      -0.2211
     15  CG2        1.3470    3.8300   38.7010 C.3    55  THR55       0.0376
     16  N          1.2670   -0.5750   39.3850 N.am   56  ALA56      -0.1965
     17  CA         1.6160   -1.9100   39.8540 C.3    56  ALA56       0.1728
     18  C          3.0000   -2.2920   39.3720 C.2    56  ALA56       0.2616
     19  O          3.3570   -2.0150   38.2270 O.2    56  ALA56      -0.2715
     20  CB         0.6140   -2.9510   39.3510 C.3    56  ALA56       0.0334
     21  N          3.7400   -3.0310   40.2020 N.am   57  CYS57      -0.1968
     22  CA         5.0740   -3.5120   39.7900 C.3    57  CYS57       0.1712
     23  C          4.9180   -4.7020   38.8270 C.2    57  CYS57       0.2296
     24  O          3.8130   -5.2560   38.6850 O.2    57  CYS57      -0.2864
     25  CB         5.8740   -3.8640   41.0440 C.3    57  CYS57       0.0983
     26  SG         5.2320   -5.3020   41.8460 S.3    57  CYS57      -0.0798
     27  N         13.5330    0.6230   40.3250 N.3    78  ILE78      -0.1231
     28  CA        13.1530    1.8590   41.0160 C.3    78  ILE78       0.1692
     29  C         13.2560    1.6460   42.5470 C.2    78  ILE78       0.2592
     30  O         13.2380    0.5170   43.0630 O.2    78  ILE78      -0.2718
     31  CB        11.7330    2.1980   40.5300 C.3    78  ILE78       0.0266
     32  CG1       11.1750    3.4580   41.2050 C.3    78  ILE78       0.0019
     33  CG2       10.8180    1.0840   40.8050 C.3    78  ILE78       0.0020
     34  CD1        9.8600    3.9110   40.5260 C.3    78  ILE78       0.0001
     35  N         13.4290    2.7440   43.2660 N.am   79  THR79      -0.1953
     36  CA        13.6680    2.7250   44.6990 C.3    79  THR79       0.1897
     37  C         12.7620    1.7740   45.4690 C.2    79  THR79       0.2313
     38  O         11.5290    1.7950   45.3470 O.2    79  THR79      -0.2863
     39  CB        13.5310    4.1530   45.2760 C.3    79  THR79       0.1794
     40  OG1       13.6360    4.0530   46.6960 O.3    79  THR79      -0.2208
     41  CG2       12.1660    4.7750   44.8800 C.3    79  THR79       0.0378
     42  N          8.2950    1.6780   46.2380 N.3    82  SER82      -0.1202
     43  CA         7.6750    0.7230   45.3160 C.3    82  SER82       0.2020
     44  C          8.0420   -0.7040   45.7230 C.2    82  SER82       0.2619
     45  O          9.1380   -0.9410   46.2210 O.2    82  SER82      -0.2717
     46  CB         8.1660    0.9720   43.8770 C.3    82  SER82       0.2103
     47  OG         7.7500   -0.0070   42.9430 O.3    82  SER82      -0.2182
     48  N          7.1250   -1.6480   45.4700 N.am   83  GLY83      -0.1942
     49  CA         7.3610   -3.0840   45.5710 C.3    83  GLY83       0.2014
     50  C          8.1480   -3.7020   44.4180 C.2    83  GLY83       0.2639
     51  O          8.3530   -4.9210   44.3770 O.2    83  GLY83      -0.2714
     52  N          8.6440   -2.8890   43.4900 N.am   84  THR84      -0.1950
     53  CA         9.3770   -3.4090   42.3400 C.3    84  THR84       0.1897
     54  C         10.6280   -4.1730   42.7490 C.2    84  THR84       0.2313
     55  O         10.8850   -5.2640   42.2310 O.2    84  THR84      -0.2863
     56  CB         9.7300   -2.2720   41.3820 C.3    84  THR84       0.1794
     57  OG1        8.5130   -1.6970   40.8710 O.3    84  THR84      -0.2208
     58  CG2       10.5390   -2.8280   40.1560 C.3    84  THR84       0.0378
     59  N         16.2960    5.3320   43.5560 N.3   110  SER110     -0.1202
     60  CA        15.8700    6.5190   42.8060 C.3   110  SER110      0.2020
     61  C         14.9330    6.0870   41.6670 C.2   110  SER110      0.2619
     62  O         14.1730    5.1380   41.8280 O.2   110  SER110     -0.2717
     63  CB        17.1370    7.2520   42.3390 C.3   110  SER110      0.2103
     64  OG        16.8030    8.4630   41.6740 O.3   110  SER110     -0.2182
     65  N         15.0010    6.7840   40.5250 N.am  111  THR111     -0.1952
     66  CA        14.0850    6.5140   39.4040 C.3   111  THR111      0.1897
     67  C         14.6890    7.1490   38.1480 C.2   111  THR111      0.2313
     68  O         15.6940    7.8510   38.2200 O.2   111  THR111     -0.2863
     69  CB        12.6760    7.0810   39.6640 C.3   111  THR111      0.1794
     70  OG1       11.7550    6.4740   38.7510 O.3   111  THR111     -0.2208
     71  CG2       12.6510    8.6420   39.4630 C.3   111  THR111      0.0378
     72  N         19.8600   12.9770   42.0230 N.3   145  LEU145     -0.1245
     73  CA        18.6820   13.2220   41.1930 C.3   145  LEU145      0.1561
     74  C         17.9590   14.4600   41.7050 C.2   145  LEU145      0.2260
     75  O         17.7680   14.6210   42.9120 O.2   145  LEU145     -0.2867
     76  CB        17.7010   12.0060   41.2170 C.3   145  LEU145      0.0270
     77  CG        16.4010   12.2390   40.4390 C.3   145  LEU145      0.0019
     78  CD1       15.9940   10.9030   39.7800 C.3   145  LEU145      0.0001
     79  CD2       15.3050   12.6880   41.4130 C.3   145  LEU145      0.0001
     80  N         14.3310   16.9950   40.6590 N.3   147  CYS147     -0.1235
     81  CA        13.1720   17.0050   39.7930 C.3   147  CYS147      0.1677
     82  C         12.4610   18.3320   39.9980 C.2   147  CYS147      0.2270
     83  O         12.6610   19.0070   41.0020 O.2   147  CYS147     -0.2867
     84  CB        12.2060   15.8560   40.0530 C.3   147  CYS147      0.0956
     85  SG        11.5440   15.8130   41.7140 S.3   147  CYS147     -0.0801
     86  N          8.3640   19.4090   39.4950 N.3   149  LEU149     -0.1245
     87  CA         7.0560   18.8750   39.1350 C.3   149  LEU149      0.1561
     88  C          5.9950   19.9650   39.2030 C.2   149  LEU149      0.2260
     89  O          5.8970   20.6650   40.2110 O.2   149  LEU149     -0.2867
     90  CB         6.6520   17.7260   40.0720 C.3   149  LEU149      0.0270
     91  CG         7.7660   16.7000   40.2270 C.3   149  LEU149      0.0019
     92  CD1        7.2360   15.5620   41.1260 C.3   149  LEU149      0.0001
     93  CD2        8.1550   16.1840   38.8160 C.3   149  LEU149      0.0001
     94  N          1.2900   11.2920   42.6290 N.3   155  LEU155     -0.1245
     95  CA         2.0850   10.9080   43.7900 C.3   155  LEU155      0.1561
     96  C          1.2560   10.9620   45.0770 C.2   155  LEU155      0.2260
     97  O          1.2970   10.0460   45.9000 O.2   155  LEU155     -0.2867
     98  CB         3.3190   11.8300   43.9360 C.3   155  LEU155      0.0270
     99  CG         4.4440   11.6160   42.9170 C.3   155  LEU155      0.0019
    100  CD1        5.2900   12.9120   42.8420 C.3   155  LEU155      0.0001
    101  CD2        5.3200   10.4000   43.3410 C.3   155  LEU155      0.0001
    102  N          2.5960    8.6960   48.0560 N.3   160  ARG160     -0.1245
    103  CA         4.0370    8.7150   47.8550 C.3   160  ARG160      0.1563
    104  C          4.6520   10.0870   48.1190 C.2   160  ARG160      0.2260
    105  O          5.8780   10.2330   48.0580 O.2   160  ARG160     -0.2867
    106  CB         4.3270    8.2060   46.4300 C.3   160  ARG160      0.0307
    107  CG         4.2740    6.6800   46.4780 C.3   160  ARG160      0.0489
    108  CD         4.0400    6.0270   45.1880 C.3   160  ARG160      0.2205
    109  NE         4.2890    4.6090   45.4190 N.pl3 160  ARG160     -0.0865
    110  CZ         3.4320    3.6330   45.1410 C.cat 160  ARG160      0.5346
    111  NH1        3.7570    2.3870   45.4320 N.pl3 160  ARG160      0.1354
    112  NH2        2.2550    3.8930   44.5780 N.pl3 160  ARG160      0.1354
    113  N         16.0720   12.9170   45.2540 N.3   180  ALA180     -0.1245
    114  CA        15.9540   11.5810   45.8510 C.3   180  ALA180      0.1562
    115  C         16.7220   11.5880   47.1690 C.2   180  ALA180      0.2260
    116  O         17.8850   12.0090   47.2120 O.2   180  ALA180     -0.2867
    117  CB        16.4890   10.5190   44.8990 C.3   180  ALA180      0.0290
    118  N         15.8770    6.8550   49.5640 N.3   184  GLY184     -0.1210
    119  CA        15.1890    6.4960   48.3390 C.3   184  GLY184      0.1956
    120  C         13.7550    6.9840   48.3560 C.2   184  GLY184      0.2613
    121  O         12.8680    6.3230   47.7820 O.2   184  GLY184     -0.2717
    122  N         13.4950    8.1530   48.9590 N.am  185  THR185     -0.1938
    123  CA        12.1810    8.7750   48.8750 C.3   185  THR185      0.2028
    124  C         12.3040   10.1680   48.2670 C.2   185  THR185      0.2642
    125  O         13.3990   10.7320   48.1400 O.2   185  THR185     -0.2714
    126  CB        11.5190    8.9050   50.2640 C.3   185  THR185      0.1808
    127  OG1       12.4260    9.6460   51.0870 O.3   185  THR185     -0.2208
    128  CG2       11.2760    7.5110   50.8870 C.3   185  THR185      0.0379
    129  N         11.1520   10.7250   47.9380 N.am  186  LEU186     -0.1977
    130  CA        11.1070   12.0510   47.3340 C.3   186  LEU186      0.1596
    131  C         11.1940   13.0820   48.4550 C.2   186  LEU186      0.2287
    132  O         10.3290   13.1270   49.3310 O.2   186  LEU186     -0.2864
    133  CB         9.8250   12.2450   46.5340 C.3   186  LEU186      0.0297
    134  CG         9.6340   13.6190   45.8860 C.3   186  LEU186      0.0022
    135  CD1       10.7900   14.0040   44.9750 C.3   186  LEU186      0.0001
    136  CD2        8.3220   13.5850   45.0820 C.3   186  LEU186      0.0001
    137  N          5.6150    5.1800   33.2540 N.3   250  LEU250     -0.1231
    138  CA         5.5480    5.2540   34.7080 C.3   250  LEU250      0.1693
    139  C          5.9870    6.6400   35.1740 C.2   250  LEU250      0.2592
    140  O          5.3570    7.2670   36.0420 O.2   250  LEU250     -0.2718
    141  CB         6.4610    4.1640   35.2960 C.3   250  LEU250      0.0284
    142  CG         6.4210    3.8610   36.7980 C.3   250  LEU250      0.0019
    143  CD1        7.2180    4.8730   37.5920 C.3   250  LEU250      0.0001
    144  CD2        4.9340    3.7620   37.2630 C.3   250  LEU250      0.0001
    145  N          7.1270    7.0930   34.6830 N.am  251  CYS251     -0.1970
    146  CA         7.5890    8.4160   35.0990 C.3   251  CYS251      0.1712
    147  C          6.6170    9.5060   34.6340 C.2   251  CYS251      0.2296
    148  O          6.3940   10.4860   35.3410 O.2   251  CYS251     -0.2864
    149  CB         8.9940    8.6840   34.5670 C.3   251  CYS251      0.0983
    150  SG        10.2920    7.7150   35.5670 S.3   251  CYS251     -0.0798
    151  N          3.7640    9.6970   37.2820 N.3   254  TYR254     -0.1227
    152  CA         4.1020   10.2690   38.5890 C.3   254  TYR254      0.1736
    153  C          4.7290   11.6670   38.4930 C.2   254  TYR254      0.2595
    154  O          4.5020   12.5050   39.3950 O.2   254  TYR254     -0.2718
    155  CB         5.0460    9.3320   39.3540 C.3   254  TYR254      0.0548
    156  CG         4.2850    8.2190   40.0090 C.ar  254  TYR254     -0.0200
    157  CD1        3.2920    8.5170   40.9770 C.ar  254  TYR254     -0.0009
    158  CD2        4.5070    6.8770   39.6540 C.ar  254  TYR254     -0.0009
    159  CE1        2.5480    7.4960   41.5990 C.ar  254  TYR254      0.0417
    160  CE2        3.7550    5.8390   40.2770 C.ar  254  TYR254      0.0417
    161  CZ         2.8110    6.1590   41.2440 C.ar  254  TYR254      0.1957
    162  OH         2.0340    5.1980   41.8500 O.3   254  TYR254     -0.2866
    163  N          5.4930   11.9520   37.4360 N.am  255  ALA255     -0.1980
    164  CA         6.0220   13.3200   37.3030 C.3   255  ALA255      0.1597
    165  C          4.9940   14.3040   36.7310 C.2   255  ALA255      0.2287
    166  O          5.0710   15.5170   37.0020 O.2   255  ALA255     -0.2864
    167  CB         7.2920   13.3140   36.4490 C.3   255  ALA255      0.0319
    168  N         12.8830   15.5290   35.2460 N.3   261  ILE261     -0.1245
    169  CA        13.7380   14.8210   36.2060 C.3   261  ILE261      0.1561
    170  C         15.1560   14.8000   35.6670 C.2   261  ILE261      0.2260
    171  O         15.3620   14.5420   34.4830 O.2   261  ILE261     -0.2867
    172  CB        13.2600   13.3760   36.4450 C.3   261  ILE261      0.0252
    173  CG1       11.7820   13.3410   36.6810 C.3   261  ILE261      0.0019
    174  CG2       14.0290   12.7970   37.5650 C.3   261  ILE261      0.0019
    175  CD1       11.3050   11.8470   36.7420 C.3   261  ILE261      0.0001
@<TRIPOS>BOND
     1     4     3    2
     2   137   138    1
     3     1     2    1
     4     3     2    1
     5   171   170    2
     6   149   146    1
     7   149   150    1
     8   147   146    1
     9   147   148    2
    10   145   146    1
    11   145   139   am
    12   138   139    1
    13   138   141    1
    14     2     5    1
    15   139   140    2
    16   168   169    1
    17   141   142    1
    18   170   169    1
    19     5     6    1
    20   169   172    1
    21   172   173    1
    22   172   174    1
    23   167   164    1
    24     7     6    1
    25   173   175    1
    26   165   166    2
    27   165   164    1
    28   142   144    1
    29   142   143    1
    30     6     8    1
    31   151   152    1
    32   164   163    1
    33   163   153   am
    34    67    68    2
    35    67    66    1
    36    19    18    2
    37   153   152    1
    38   153   154    2
    39   152   155    1
    40    24    23    2
    41    15    13    1
    42    70    69    1
    43    93    91    1
    44    23    22    1
    45    87    88    1
    46    87    86    1
    47    87    90    1
    48    88    89    2
    49    20    17    1
    50   155   156    1
    51    18    17    1
    52    18    21   am
    53    16    17    1
    54    16    11   am
    55    66    69    1
    56    66    65    1
    57    13    10    1
    58    13    14    1
    59    71    69    1
    60    10    11    1
    61    10     9    1
    62   158   156   ar
    63   158   160   ar
    64    78    77    1
    65    22    21    1
    66    22    25    1
    67    81    82    1
    68    81    84    1
    69    81    80    1
    70    82    83    2
    71   156   157   ar
    72    84    85    1
    73    90    91    1
    74    11    12    2
    75    58    56    1
    76    91    92    1
    77   160   161   ar
    78    27    28    1
    79    77    76    1
    80    77    79    1
    81    65    61   am
    82    34    32    1
    83    31    33    1
    84    31    28    1
    85    31    32    1
    86    57    56    1
    87   157   159   ar
    88    28    29    1
    89    25    26    1
    90    73    76    1
    91    73    74    1
    92    73    72    1
    93   161   159   ar
    94   161   162    1
    95    56    53    1
    96    61    62    2
    97    61    60    1
    98    64    63    1
    99    74    75    2
   100    55    54    2
   101    63    60    1
   102    53    54    1
   103    53    52    1
   104    29    30    2
   105    29    35   am
   106    94    95    1
   107    60    59    1
   108   100    99    1
   109    99   101    1
   110    99    98    1
   111    47    46    1
   112    35    36    1
   113    52    50   am
   114    95    98    1
   115    95    96    1
   116    46    43    1
   117    51    50    2
   118    50    49    1
   119   112   110    1
   120    36    39    1
   121    36    37    1
   122    41    39    1
   123   117   114    1
   124   135   134    1
   125    96    97    2
   126   136   134    1
   127   110   109    2
   128   110   111    1
   129   108   109    1
   130   108   107    1
   131   113   114    1
   132    39    40    1
   133    43    44    1
   134    43    42    1
   135    38    37    2
   136    48    49    1
   137    48    44   am
   138    44    45    2
   139   114   115    1
   140   134   133    1
   141   106   107    1
   142   106   103    1
   143   133   130    1
   144   115   116    2
   145   130   129    1
   146   130   131    1
   147   121   120    2
   148   103   102    1
   149   103   104    1
   150   129   124   am
   151   105   104    2
   152   125   124    2
   153   124   123    1
   154   119   120    1
   155   119   118    1
   156   120   122   am
   157   131   132    2
   158   123   122    1
   159   123   126    1
   160   126   128    1
   161   126   127    1
