@<TRIPOS>MOLECULE
tmp/5uxzB00.pdb
 209 205 0 0 0
SMALL
GASTEIGER

@<TRIPOS>ATOM
      1  N         -7.9880  -14.0710  -75.7620 N.3    38  ASN38      -0.1226
      2  CA        -8.2620  -15.2290  -74.9100 C.3    38  ASN38       0.1770
      3  C         -9.0110  -16.3260  -75.6750 C.2    38  ASN38       0.2439
      4  O         -9.9850  -16.0240  -76.3650 O.2    38  ASN38      -0.2733
      5  CB        -9.1080  -14.7680  -73.7190 C.3    38  ASN38       0.1168
      6  CG        -9.2440  -15.8270  -72.6400 C.2    38  ASN38       0.2627
      7  OD1       -8.2930  -16.5420  -72.3320 O.2    38  ASN38      -0.2716
      8  ND2      -10.4310  -15.9180  -72.0470 N.am   38  ASN38      -0.0877
      9  N         -8.5770  -17.6000  -75.5600 N.am   39  PRO39      -0.2729
     10  CA        -7.4360  -18.1880  -74.8670 C.3    39  PRO39       0.1401
     11  C         -6.3270  -18.6030  -75.8410 C.2    39  PRO39       0.2269
     12  O         -5.8380  -19.7330  -75.7830 O.2    39  PRO39      -0.2865
     13  CB        -8.0660  -19.4250  -74.2370 C.3    39  PRO39       0.0296
     14  CG        -8.9940  -19.9030  -75.3090 C.3    39  PRO39       0.0237
     15  CD        -9.4750  -18.6680  -76.0440 C.3    39  PRO39       0.0939
     16  N        -10.1050   -9.7870  -80.1280 N.3   103  ASP103     -0.1225
     17  CA       -10.5800  -10.1940  -78.7960 C.3   103  ASP103      0.1805
     18  C         -9.9770   -9.2800  -77.7050 C.2   103  ASP103      0.2597
     19  O        -10.1760   -8.0680  -77.7630 O.2   103  ASP103     -0.2718
     20  CB       -10.3100  -11.6950  -78.5820 C.3   103  ASP103      0.1424
     21  CG       -10.9030  -12.2340  -77.2890 C.2   103  ASP103      0.3668
     22  OD1      -12.3010  -12.6300  -77.2090 O.co2 103  ASP103     -0.2456
     23  OD2      -10.1710  -12.3560  -76.3220 O.co2 103  ASP103     -0.2456
     24  N         -9.2440   -9.8250  -76.7340 N.am  104  TRP104     -0.1976
     25  CA        -8.6300   -9.0030  -75.6830 C.3   104  TRP104      0.1640
     26  C         -7.3890   -8.2680  -76.1820 C.2   104  TRP104      0.2290
     27  O         -6.9890   -7.2560  -75.6040 O.2   104  TRP104     -0.2864
     28  CB        -8.3040   -9.8460  -74.4440 C.3   104  TRP104      0.0576
     29  CG        -9.4960  -10.0310  -73.5650 C.ar  104  TRP104      0.0006
     30  CD1      -10.2240  -11.1710  -73.3910 C.ar  104  TRP104      0.0946
     31  CD2      -10.1190   -9.0280  -72.7560 C.ar  104  TRP104      0.0152
     32  NE1      -11.2590  -10.9420  -72.5140 N.ar  104  TRP104     -0.2442
     33  CE2      -11.2190   -9.6330  -72.1120 C.ar  104  TRP104      0.0810
     34  CE3       -9.8560   -7.6740  -72.5160 C.ar  104  TRP104      0.0012
     35  CZ2      -12.0520   -8.9320  -71.2370 C.ar  104  TRP104      0.0191
     36  CZ3      -10.6870   -6.9770  -71.6470 C.ar  104  TRP104      0.0001
     37  CH2      -11.7710   -7.6090  -71.0190 C.ar  104  TRP104      0.0015
     38  N        -13.5490   -6.4120  -78.5980 N.3   129  ILE129     -0.1245
     39  CA       -14.3190   -6.2380  -77.3760 C.3   129  ILE129      0.1561
     40  C        -15.0230   -4.8880  -77.3530 C.2   129  ILE129      0.2260
     41  O        -14.4000   -3.8410  -77.5280 O.2   129  ILE129     -0.2867
     42  CB       -13.4350   -6.4350  -76.1310 C.3   129  ILE129      0.0252
     43  CG1      -13.0920   -7.9210  -76.0150 C.3   129  ILE129      0.0019
     44  CG2      -14.1440   -5.9510  -74.8690 C.3   129  ILE129      0.0019
     45  CD1      -12.0630   -8.2420  -74.9670 C.3   129  ILE129      0.0001
     46  N        -21.1210   -4.9590  -73.7800 N.3   132  ILE132     -0.1245
     47  CA       -22.3280   -5.7590  -73.9690 C.3   132  ILE132      0.1561
     48  C        -23.3950   -5.2550  -72.9890 C.2   132  ILE132      0.2260
     49  O        -23.2670   -5.4700  -71.7810 O.2   132  ILE132     -0.2867
     50  CB       -22.0610   -7.2630  -73.7330 C.3   132  ILE132      0.0252
     51  CG1      -20.8730   -7.7510  -74.5790 C.3   132  ILE132      0.0019
     52  CG2      -23.3120   -8.0820  -74.0320 C.3   132  ILE132      0.0019
     53  CD1      -21.0530   -7.6050  -76.0770 C.3   132  ILE132      0.0001
     54  N        -29.5360  -10.2400  -74.6720 N.3   137  GLU137     -0.1231
     55  CA       -29.0970  -10.1290  -76.0670 C.3   137  GLU137      0.1699
     56  C        -28.3670  -11.3940  -76.5330 C.2   137  GLU137      0.2592
     57  O        -28.2810  -11.6570  -77.7340 O.2   137  GLU137     -0.2718
     58  CB       -28.1890   -8.9100  -76.2650 C.3   137  GLU137      0.0402
     59  CG       -28.9350   -7.5920  -76.4120 C.3   137  GLU137      0.1161
     60  CD       -28.0390   -6.4620  -76.8840 C.2   137  GLU137      0.3649
     61  OE1      -26.8210   -6.5090  -76.6110 O.co2 137  GLU137     -0.2457
     62  OE2      -28.5540   -5.5230  -77.5300 O.co2 137  GLU137     -0.2457
     63  N        -27.8420  -12.1680  -75.5820 N.am  138  TRP138     -0.1963
     64  CA       -27.1640  -13.4270  -75.8810 C.3   138  TRP138      0.1756
     65  C        -28.1790  -14.4850  -76.3050 C.2   138  TRP138      0.2461
     66  O        -29.3580  -14.3920  -75.9540 O.2   138  TRP138     -0.2730
     67  CB       -26.4430  -13.9740  -74.6420 C.3   138  TRP138      0.0590
     68  CG       -25.2710  -13.1830  -74.1240 C.ar  138  TRP138      0.0006
     69  CD1      -25.2370  -11.8530  -73.8080 C.ar  138  TRP138      0.0946
     70  CD2      -23.9720  -13.7000  -73.8090 C.ar  138  TRP138      0.0152
     71  NE1      -23.9920  -11.5090  -73.3410 N.ar  138  TRP138     -0.2442
     72  CE2      -23.1970  -12.6240  -73.3290 C.ar  138  TRP138      0.0810
     73  CE3      -23.3850  -14.9680  -73.8980 C.ar  138  TRP138      0.0012
     74  CZ2      -21.8640  -12.7760  -72.9400 C.ar  138  TRP138      0.0191
     75  CZ3      -22.0610  -15.1190  -73.5120 C.ar  138  TRP138      0.0001
     76  CH2      -21.3150  -14.0270  -73.0390 C.ar  138  TRP138      0.0015
     77  N        -27.7280  -15.4960  -77.0660 N.am  139  PRO139     -0.2727
     78  CA       -28.4590  -16.7600  -77.0910 C.3   139  PRO139      0.1402
     79  C        -28.5280  -17.3680  -75.6860 C.2   139  PRO139      0.2269
     80  O        -27.6710  -17.0830  -74.8460 O.2   139  PRO139     -0.2865
     81  CB       -27.6220  -17.6270  -78.0310 C.3   139  PRO139      0.0296
     82  CG       -27.0000  -16.6510  -78.9700 C.3   139  PRO139      0.0237
     83  CD       -26.7470  -15.4050  -78.1630 C.3   139  PRO139      0.0939
     84  N        -28.3230  -20.4710  -74.0760 N.3   141  PHE141     -0.1227
     85  CA       -27.3250  -21.3770  -73.4910 C.3   141  PHE141      0.1736
     86  C        -25.9810  -20.6860  -73.2430 C.2   141  PHE141      0.2595
     87  O        -25.3250  -20.9450  -72.2320 O.2   141  PHE141     -0.2718
     88  CB       -27.1280  -22.6140  -74.3780 C.3   141  PHE141      0.0547
     89  CG       -25.9290  -23.4440  -74.0030 C.ar  141  PHE141     -0.0202
     90  CD1      -25.8990  -24.1440  -72.8040 C.ar  141  PHE141     -0.0042
     91  CD2      -24.8260  -23.5170  -74.8460 C.ar  141  PHE141     -0.0042
     92  CE1      -24.7960  -24.9050  -72.4540 C.ar  141  PHE141     -0.0003
     93  CE2      -23.7200  -24.2770  -74.5010 C.ar  141  PHE141     -0.0003
     94  CZ       -23.7050  -24.9720  -73.3040 C.ar  141  PHE141     -0.0000
     95  N        -25.5760  -19.8160  -74.1670 N.am  142  ALA142     -0.1980
     96  CA       -24.3210  -19.0700  -74.0410 C.3   142  ALA142      0.1597
     97  C        -24.3390  -18.1390  -72.8280 C.2   142  ALA142      0.2287
     98  O        -23.3360  -18.0080  -72.1260 O.2   142  ALA142     -0.2864
     99  CB       -24.0490  -18.2780  -75.3110 C.3   142  ALA142      0.0319
    100  N        -23.8290  -20.2330  -69.7720 N.3   145  THR145     -0.1203
    101  CA       -22.4450  -20.7020  -69.7270 C.3   145  THR145      0.1994
    102  C        -21.4750  -19.6190  -69.2420 C.2   145  THR145      0.2617
    103  O        -20.5490  -19.9120  -68.4840 O.2   145  THR145     -0.2717
    104  CB       -21.9890  -21.2090  -71.1120 C.3   145  THR145      0.1784
    105  OG1      -22.9280  -22.1750  -71.6030 O.3   145  THR145     -0.2211
    106  CG2      -20.6050  -21.8430  -71.0360 C.3   145  THR145      0.0376
    107  N        -21.6900  -18.3780  -69.6770 N.am  146  PHE146     -0.1975
    108  CA       -20.8190  -17.2600  -69.2900 C.3   146  PHE146      0.1639
    109  C        -21.2190  -16.6120  -67.9620 C.2   146  PHE146      0.2290
    110  O        -20.3600  -16.0800  -67.2560 O.2   146  PHE146     -0.2864
    111  CB       -20.7350  -16.2100  -70.4060 C.3   146  PHE146      0.0560
    112  CG       -19.5620  -16.4060  -71.3260 C.ar  146  PHE146     -0.0200
    113  CD1      -19.5910  -17.3790  -72.3150 C.ar  146  PHE146     -0.0042
    114  CD2      -18.4200  -15.6250  -71.1930 C.ar  146  PHE146     -0.0042
    115  CE1      -18.5080  -17.5650  -73.1580 C.ar  146  PHE146     -0.0003
    116  CE2      -17.3340  -15.8060  -72.0340 C.ar  146  PHE146     -0.0003
    117  CZ       -17.3780  -16.7780  -73.0170 C.ar  146  PHE146     -0.0000
    118  N        -12.7050  -23.7580  -71.1720 N.3   165  PHE165     -0.1241
    119  CA       -12.4140  -22.6330  -72.0660 C.3   165  PHE165      0.1605
    120  C        -11.4550  -23.0370  -73.1930 C.2   165  PHE165      0.2264
    121  O        -11.6440  -22.6390  -74.3420 O.2   165  PHE165     -0.2867
    122  CB       -11.8730  -21.4230  -71.2870 C.3   165  PHE165      0.0534
    123  CG       -12.4000  -20.1010  -71.7820 C.ar  165  PHE165     -0.0203
    124  CD1      -11.8180  -19.4670  -72.8700 C.ar  165  PHE165     -0.0042
    125  CD2      -13.4860  -19.4940  -71.1620 C.ar  165  PHE165     -0.0042
    126  CE1      -12.3030  -18.2530  -73.3290 C.ar  165  PHE165     -0.0003
    127  CE2      -13.9760  -18.2800  -71.6150 C.ar  165  PHE165     -0.0003
    128  CZ       -13.3830  -17.6590  -72.7010 C.ar  165  PHE165     -0.0000
    129  N        -14.7190  -24.0600  -75.1840 N.3   169  THR169     -0.1203
    130  CA       -15.0710  -22.7150  -75.6530 C.3   169  THR169      0.1994
    131  C        -14.2190  -22.2750  -76.8460 C.2   169  THR169      0.2617
    132  O        -14.7140  -21.5900  -77.7410 O.2   169  THR169     -0.2717
    133  CB       -14.9590  -21.6740  -74.5150 C.3   169  THR169      0.1784
    134  OG1      -15.6010  -22.1790  -73.3370 O.3   169  THR169     -0.2211
    135  CG2      -15.6040  -20.3490  -74.9020 C.3   169  THR169      0.0376
    136  N        -12.9490  -22.6780  -76.8600 N.am  170  LEU170     -0.1979
    137  CA       -12.0410  -22.3600  -77.9690 C.3   170  LEU170      0.1596
    138  C        -12.5090  -22.9470  -79.3130 C.2   170  LEU170      0.2287
    139  O        -12.6710  -22.1990  -80.2790 O.2   170  LEU170     -0.2864
    140  CB       -10.6050  -22.7970  -77.6370 C.3   170  LEU170      0.0297
    141  CG        -9.5710  -22.8510  -78.7660 C.3   170  LEU170      0.0022
    142  CD1       -9.3810  -21.4800  -79.3940 C.3   170  LEU170      0.0001
    143  CD2       -8.2490  -23.3880  -78.2400 C.3   170  LEU170      0.0001
    144  N        -15.4570  -23.9690  -80.0220 N.3   172  MET172     -0.1230
    145  CA       -16.7790  -23.3820  -80.2710 C.3   172  MET172      0.1702
    146  C        -16.7070  -22.0070  -80.9490 C.2   172  MET172      0.2592
    147  O        -17.6880  -21.5600  -81.5410 O.2   172  MET172     -0.2718
    148  CB       -17.5900  -23.2830  -78.9680 C.3   172  MET172      0.0401
    149  CG       -18.2650  -24.5860  -78.5550 C.3   172  MET172      0.0596
    150  SD       -19.3910  -24.4110  -77.1520 S.3   172  MET172     -0.1393
    151  CE       -18.2860  -24.6700  -75.7680 C.3   172  MET172      0.0692
    152  N        -15.5530  -21.3430  -80.8590 N.am  173  GLY173     -0.1957
    153  CA       -15.3300  -20.0630  -81.5340 C.3   173  GLY173      0.1869
    154  C        -14.8330  -20.1600  -82.9700 C.2   173  GLY173      0.2309
    155  O        -14.5320  -19.1360  -83.5870 O.2   173  GLY173     -0.2863
    156  N        -14.6960   -9.1740  -68.9350 N.3   206  LEU206     -0.1245
    157  CA       -15.5730   -8.7740  -70.0420 C.3   206  LEU206      0.1561
    158  C        -16.6120   -7.7470  -69.5890 C.2   206  LEU206      0.2260
    159  O        -17.2720   -7.9490  -68.5690 O.2   206  LEU206     -0.2867
    160  CB       -16.2960   -9.9870  -70.6430 C.3   206  LEU206      0.0270
    161  CG       -15.4910  -10.9260  -71.5470 C.3   206  LEU206      0.0019
    162  CD1      -16.2830  -12.1920  -71.8390 C.3   206  LEU206      0.0001
    163  CD2      -15.1040  -10.2340  -72.8450 C.3   206  LEU206      0.0001
    164  N        -19.9810  -13.4500  -83.4180 N.3   242  VAL242     -0.1231
    165  CA       -20.2410  -13.6520  -81.9950 C.3   242  VAL242      0.1692
    166  C        -20.2940  -12.3060  -81.2710 C.2   242  VAL242      0.2591
    167  O        -21.3740  -11.8350  -80.9150 O.2   242  VAL242     -0.2718
    168  CB       -19.1900  -14.5840  -81.3530 C.3   242  VAL242      0.0266
    169  CG1      -19.3480  -14.5960  -79.8420 C.3   242  VAL242      0.0020
    170  CG2      -19.3110  -15.9930  -81.9190 C.3   242  VAL242      0.0020
    171  N        -19.1330  -11.6890  -81.0640 N.am  243  LEU243     -0.1980
    172  CA       -19.0620  -10.3780  -80.4250 C.3   243  LEU243      0.1596
    173  C        -19.5790   -9.2830  -81.3560 C.2   243  LEU243      0.2287
    174  O        -20.1440   -8.2910  -80.8920 O.2   243  LEU243     -0.2864
    175  CB       -17.6250  -10.0630  -80.0000 C.3   243  LEU243      0.0297
    176  CG       -16.9890  -11.0060  -78.9760 C.3   243  LEU243      0.0022
    177  CD1      -15.5190  -10.6640  -78.7830 C.3   243  LEU243      0.0001
    178  CD2      -17.7320  -10.9510  -77.6490 C.3   243  LEU243      0.0001
    179  N        -21.9880   -9.0950  -84.6270 N.3   245  PRO245     -0.2116
    180  CA       -22.8730   -9.6240  -85.6720 C.3   245  PRO245      0.1372
    181  C        -22.8070   -8.8210  -86.9810 C.2   245  PRO245      0.2244
    182  O        -22.3510   -7.6780  -86.9700 O.2   245  PRO245     -0.2868
    183  CB       -24.2700   -9.5080  -85.0480 C.3   245  PRO245      0.0268
    184  CG       -24.0390   -9.4300  -83.5780 C.3   245  PRO245      0.0207
    185  CD       -22.7380   -8.7050  -83.4200 C.3   245  PRO245      0.0892
    186  N        -17.1710  -17.2290  -86.5530 N.3   268  LEU268     -0.1231
    187  CA       -17.6750  -17.0140  -85.1980 C.3   268  LEU268      0.1693
    188  C        -16.8110  -15.9730  -84.4730 C.2   268  LEU268      0.2592
    189  O        -17.0810  -14.7780  -84.5980 O.2   268  LEU268     -0.2718
    190  CB       -17.7440  -18.3440  -84.4380 C.3   268  LEU268      0.0284
    191  CG       -18.8920  -19.2660  -84.8690 C.3   268  LEU268      0.0019
    192  CD1      -18.6610  -20.7110  -84.4410 C.3   268  LEU268      0.0001
    193  CD2      -20.2240  -18.7530  -84.3330 C.3   268  LEU268      0.0001
    194  N        -15.7860  -16.4050  -83.7350 N.am  269  ASN269     -0.1960
    195  CA       -14.8630  -15.4720  -83.0790 C.3   269  ASN269      0.1819
    196  C        -13.4690  -15.5010  -83.6960 C.2   269  ASN269      0.2621
    197  O        -12.9740  -14.4690  -84.1510 O.2   269  ASN269     -0.2715
    198  CB       -14.7600  -15.7430  -81.5800 C.3   269  ASN269      0.1195
    199  CG       -13.9410  -14.6830  -80.8610 C.2   269  ASN269      0.2630
    200  OD1      -14.4070  -13.5630  -80.6540 O.2   269  ASN269     -0.2716
    201  ND2      -12.7100  -15.0240  -80.4950 N.am  269  ASN269     -0.0877
    202  N        -12.8320  -16.6720  -83.6940 N.am  270  LEU270     -0.1977
    203  CA       -11.5210  -16.8340  -84.3270 C.3   270  LEU270      0.1596
    204  C        -11.6710  -16.8420  -85.8470 C.2   270  LEU270      0.2287
    205  O        -11.5980  -17.8940  -86.4820 O.2   270  LEU270     -0.2864
    206  CB       -10.8290  -18.1280  -83.8680 C.3   270  LEU270      0.0297
    207  CG       -10.3550  -18.2830  -82.4180 C.3   270  LEU270      0.0022
    208  CD1       -9.5760  -19.5780  -82.2470 C.3   270  LEU270      0.0001
    209  CD2       -9.4970  -17.1100  -81.9890 C.3   270  LEU270      0.0001
@<TRIPOS>BOND
     1   181   182    2
     2   181   180    1
     3   186   187    1
     4   205   204    2
     5   204   203    1
     6   180   183    1
     7   180   179    1
     8   187   188    1
     9   187   190    1
    10   183   184    1
    11   191   192    1
    12   191   190    1
    13   191   193    1
    14   179   185    1
    15   189   188    2
    16   188   194   am
    17   203   206    1
    18   203   202    1
    19   197   196    2
    20   206   207    1
    21   194   195    1
    22   196   202   am
    23   196   195    1
    24   155   154    2
    25   184   185    1
    26   164   165    1
    27   195   198    1
    28   154   153    1
    29   207   208    1
    30   207   209    1
    31   165   168    1
    32   165   166    1
    33   170   168    1
    34   198   199    1
    35   147   146    2
    36   153   152    1
    37   173   174    2
    38   173   172    1
    39   168   169    1
    40   166   171   am
    41   166   167    2
    42   171   172    1
    43   146   152   am
    44   146   145    1
    45   199   200    2
    46   199   201   am
    47   172   175    1
    48   139   138    2
    49   145   144    1
    50   145   148    1
    51    16    17    1
    52   175   176    1
    53   142   141    1
    54   138   137    1
    55   176   177    1
    56   176   178    1
    57    82    83    1
    58    82    81    1
    59   148   149    1
    60    17    20    1
    61    17    18    1
    62   141   143    1
    63   141   140    1
    64    38    39    1
    65    20    21    1
    66   149   150    1
    67    83    77    1
    68    81    78    1
    69   137   140    1
    70   137   136    1
    71    19    18    2
    72   132   131    2
    73    57    56    2
    74    18    24   am
    75    62    60   ar
    76    41    40    2
    77    39    40    1
    78    39    42    1
    79    21    22   ar
    80    21    23   ar
    81   150   151    1
    82    78    77    1
    83    78    79    1
    84    77    65   am
    85    60    61   ar
    86    60    59    1
    87   136   131   am
    88   131   130    1
    89    24    25    1
    90    56    55    1
    91    56    63   am
    92    59    58    1
    93     4     3    2
    94    65    66    2
    95    65    64    1
    96    58    55    1
    97    26    25    1
    98    26    27    2
    99    42    43    1
   100    42    44    1
   101    53    51    1
   102    55    54    1
   103    15     9    1
   104    15    14    1
   105    43    45    1
   106    64    63    1
   107    64    67    1
   108    11    12    2
   109    11    10    1
   110     1     2    1
   111    79    80    2
   112    25    28    1
   113     3     9   am
   114     3     2    1
   115   130   129    1
   116   130   133    1
   117     9    10    1
   118    99    96    1
   119    14    13    1
   120     2     5    1
   121   135   133    1
   122    10    13    1
   123    91    93   ar
   124    91    89   ar
   125    67    68    1
   126    51    50    1
   127   133   134    1
   128    93    94   ar
   129    28    29    1
   130    88    89    1
   131    88    85    1
   132   121   120    2
   133    95    96    1
   134    95    86   am
   135    68    70   ar
   136    68    69   ar
   137    84    85    1
   138    96    97    1
   139    52    50    1
   140    89    90   ar
   141    47    46    1
   142    47    50    1
   143    47    48    1
   144    73    70   ar
   145    73    75   ar
   146    70    72   ar
   147    69    71   ar
   148     5     6    1
   149    29    30   ar
   150    29    31   ar
   151    75    76   ar
   152    85    86    1
   153    30    32   ar
   154    71    72   ar
   155   126   124   ar
   156   126   128   ar
   157    72    74   ar
   158    94    92   ar
   159    86    87    2
   160   120   119    1
   161   115   117   ar
   162   115   113   ar
   163    76    74   ar
   164   117   116   ar
   165    48    49    2
   166   124   123   ar
   167   163   161    1
   168    97    98    2
   169    90    92   ar
   170    31    34   ar
   171    31    33   ar
   172   128   127   ar
   173     6     7    2
   174     6     8   am
   175    34    36   ar
   176    32    33   ar
   177   113   112   ar
   178    33    35   ar
   179   119   122    1
   180   119   118    1
   181   116   114   ar
   182   162   161    1
   183   123   122    1
   184   123   125   ar
   185    36    37   ar
   186   127   125   ar
   187   105   104    1
   188   161   160    1
   189   112   114   ar
   190   112   111    1
   191    35    37   ar
   192   104   106    1
   193   104   101    1
   194   160   157    1
   195   111   108    1
   196   157   158    1
   197   157   156    1
   198   100   101    1
   199   101   102    1
   200   107   108    1
   201   107   102   am
   202   158   159    2
   203   108   109    1
   204   102   103    2
   205   109   110    2
