@<TRIPOS>MOLECULE
tmp/5uy6A00.pdb
 189 183 0 0 0
SMALL
GASTEIGER

@<TRIPOS>ATOM
      1  N         10.5300   17.1370   55.0760 N.3    13  ILE13      -0.1231
      2  CA        11.4720   16.5730   54.0790 C.3    13  ILE13       0.1692
      3  C         12.8090   17.3160   54.0640 C.2    13  ILE13       0.2593
      4  O         13.8140   16.7410   53.6370 O.2    13  ILE13      -0.2718
      5  CB        10.8250   16.4480   52.6720 C.3    13  ILE13       0.0266
      6  CG1       10.3610   17.7990   52.1230 C.3    13  ILE13       0.0019
      7  CG2        9.6560   15.4460   52.7040 C.3    13  ILE13       0.0020
      8  CD1        9.6970   17.7440   50.7090 C.3    13  ILE13       0.0001
      9  N         12.8290   18.5650   54.4980 N.am   14  GLY14      -0.1942
     10  CA        14.0590   19.3460   54.5260 C.3    14  GLY14       0.2014
     11  C         13.9720   20.5400   55.4430 C.2    14  GLY14       0.2639
     12  O         12.8850   20.9220   55.8890 O.2    14  GLY14      -0.2714
     13  N         15.1370   21.1110   55.7330 N.am   15  LYS15      -0.1963
     14  CA        15.2550   22.2920   56.5830 C.3    15  LYS15       0.1728
     15  C         16.3740   23.1720   56.0200 C.2    15  LYS15       0.2617
     16  O         17.5420   22.7500   55.9580 O.2    15  LYS15      -0.2715
     17  CB        15.5340   21.8710   58.0350 C.3    15  LYS15       0.0311
     18  CG        15.4950   23.0140   59.0380 C.3    15  LYS15       0.0038
     19  CD        15.6360   22.5220   60.4760 C.3    15  LYS15       0.0206
     20  CE        15.3420   23.6100   61.4900 C.3    15  LYS15       0.1093
     21  NZ        16.2640   24.7770   61.3720 N.3    15  LYS15      -0.1314
     22  N         16.0010   24.3400   55.5050 N.am   16  GLY16      -0.1940
     23  CA        16.9510   25.2840   54.9380 C.3    16  GLY16       0.2014
     24  C         17.3800   26.3050   55.9660 C.2    16  GLY16       0.2640
     25  O         17.3530   26.0370   57.1780 O.2    16  GLY16      -0.2714
     26  N         17.7920   27.4830   55.4790 N.am   17  SER17      -0.1935
     27  CA        18.2380   28.5610   56.3520 C.3    17  SER17       0.2055
     28  C         17.1190   29.0230   57.2700 C.2    17  SER17       0.2643
     29  O         17.3990   29.4120   58.3870 O.2    17  SER17      -0.2714
     30  CB        18.7500   29.7340   55.5300 C.3    17  SER17       0.2130
     31  OG        19.9830   29.3320   54.9660 O.3    17  SER17      -0.2179
     32  N         15.8600   28.9910   56.7960 N.am   18  TYR18      -0.1973
     33  CA        14.6990   29.4120   57.5990 C.3    18  TYR18       0.1639
     34  C         13.5840   28.4300   57.4780 C.2    18  TYR18       0.2290
     35  O         13.4120   27.8210   56.4200 O.2    18  TYR18      -0.2864
     36  CB        14.1810   30.7620   57.1010 C.3    18  TYR18       0.0560
     37  CG        15.2390   31.8350   57.1420 C.ar   18  TYR18      -0.0198
     38  CD1       15.5690   32.4610   58.3290 C.ar   18  TYR18      -0.0009
     39  CD2       15.9380   32.1940   55.9980 C.ar   18  TYR18      -0.0009
     40  CE1       16.5600   33.4350   58.3830 C.ar   18  TYR18       0.0417
     41  CE2       16.9720   33.1250   56.0460 C.ar   18  TYR18       0.0417
     42  CZ        17.2740   33.7530   57.2410 C.ar   18  TYR18       0.1957
     43  OH        18.2660   34.7020   57.3120 O.3    18  TYR18      -0.2866
     44  N         10.5780   22.4910   55.5400 N.3    21  VAL21      -0.1245
     45  CA         9.8340   22.1110   54.3340 C.3    21  VAL21       0.1561
     46  C          9.1470   20.7900   54.5820 C.2    21  VAL21       0.2260
     47  O          9.7990   19.8370   54.9860 O.2    21  VAL21      -0.2867
     48  CB        10.7530   22.0380   53.0960 C.3    21  VAL21       0.0252
     49  CG1        9.9550   21.6770   51.8360 C.3    21  VAL21       0.0019
     50  CG2       11.4930   23.3500   52.9010 C.3    21  VAL21       0.0019
     51  N          5.9760   20.6400   47.7070 N.3    34  ALA34      -0.1245
     52  CA         6.8660   20.8920   48.8420 C.3    34  ALA34       0.1562
     53  C          6.3980   22.2120   49.4660 C.2    34  ALA34       0.2260
     54  O          6.2290   23.1880   48.7380 O.2    34  ALA34      -0.2867
     55  CB         8.3180   20.9800   48.3920 C.3    34  ALA34       0.0290
     56  N          7.0850   25.1620   52.2930 N.3    36  LYS36      -0.1245
     57  CA         7.9440   25.7860   53.2930 C.3    36  LYS36       0.1561
     58  C          7.0140   26.4460   54.3080 C.2    36  LYS36       0.2260
     59  O          6.0880   27.1690   53.9040 O.2    36  LYS36      -0.2867
     60  CB         8.8660   26.8330   52.6730 C.3    36  LYS36       0.0271
     61  CG         9.8610   27.4490   53.6230 C.3    36  LYS36       0.0035
     62  CD        10.7090   28.4420   52.8080 C.3    36  LYS36       0.0206
     63  CE        11.7920   29.0640   53.6010 C.3    36  LYS36       0.1093
     64  NZ        12.7380   29.7980   52.7370 N.3    36  LYS36      -0.1314
     65  N         12.1520   37.4710   49.3390 N.3    70  GLU70      -0.1245
     66  CA        12.3110   36.1010   48.8260 C.3    70  GLU70       0.1567
     67  C         11.0790   35.7130   47.9800 C.2    70  GLU70       0.2260
     68  O         11.2100   35.1300   46.9070 O.2    70  GLU70      -0.2867
     69  CB        12.4790   35.0980   49.9790 C.3    70  GLU70       0.0388
     70  CG        12.5050   33.6440   49.5600 C.3    70  GLU70       0.1160
     71  CD        12.5440   32.6680   50.7280 C.2    70  GLU70       0.3649
     72  OE1       12.6200   33.1320   51.8880 O.co2  70  GLU70      -0.2457
     73  OE2       12.4090   31.4440   50.4870 O.co2  70  GLU70      -0.2457
     74  N         13.6920   26.2350   41.2940 N.3    83  VAL83      -0.1245
     75  CA        12.4240   25.8010   41.9010 C.3    83  VAL83       0.1561
     76  C         11.2840   26.7160   41.4810 C.2    83  VAL83       0.2260
     77  O         11.5120   27.8890   41.1630 O.2    83  VAL83      -0.2867
     78  CB        12.4490   25.6540   43.4440 C.3    83  VAL83       0.0252
     79  CG1       13.3340   24.4950   43.8920 C.3    83  VAL83       0.0019
     80  CG2       12.8310   26.9670   44.1280 C.3    83  VAL83       0.0019
     81  N          5.7030   24.9530   46.6640 N.3   101  PHE101     -0.1227
     82  CA         6.5950   24.7700   45.5160 C.3   101  PHE101      0.1736
     83  C          6.2620   23.4830   44.7850 C.2   101  PHE101      0.2595
     84  O          5.8600   22.5020   45.4180 O.2   101  PHE101     -0.2718
     85  CB         8.0710   24.6230   45.9660 C.3   101  PHE101      0.0547
     86  CG         8.6580   25.8430   46.6230 C.ar  101  PHE101     -0.0202
     87  CD1        8.4370   26.0960   47.9650 C.ar  101  PHE101     -0.0042
     88  CD2        9.4870   26.6990   45.9150 C.ar  101  PHE101     -0.0042
     89  CE1        8.9900   27.2170   48.5890 C.ar  101  PHE101     -0.0003
     90  CE2       10.0170   27.8330   46.5220 C.ar  101  PHE101     -0.0003
     91  CZ         9.7760   28.0820   47.8600 C.ar  101  PHE101     -0.0000
     92  N          6.5400   23.4290   43.4770 N.am  102  GLU102     -0.1965
     93  CA         6.4660   22.1640   42.7490 C.3   102  GLU102      0.1733
     94  C          7.5220   21.2210   43.3610 C.2   102  GLU102      0.2616
     95  O          8.6250   21.6510   43.7380 O.2   102  GLU102     -0.2715
     96  CB         6.7510   22.3710   41.2690 C.3   102  GLU102      0.0429
     97  CG         5.6120   23.0940   40.5700 C.3   102  GLU102      0.1163
     98  CD         5.8040   23.3240   39.0810 C.2   102  GLU102      0.3649
     99  OE1        6.9510   23.2020   38.5990 O.co2 102  GLU102     -0.2457
    100  OE2        4.8060   23.6650   38.4030 O.co2 102  GLU102     -0.2457
    101  N          7.1470   19.9480   43.5450 N.am  103  LEU103     -0.1963
    102  CA         8.0570   18.9880   44.1670 C.3   103  LEU103      0.1728
    103  C          9.2170   18.6040   43.2280 C.2   103  LEU103      0.2616
    104  O          8.9830   18.3500   42.0570 O.2   103  LEU103     -0.2715
    105  CB         7.2500   17.7450   44.5610 C.3   103  LEU103      0.0311
    106  CG         7.9880   16.6410   45.3160 C.3   103  LEU103      0.0022
    107  CD1        8.3760   17.0550   46.7180 C.3   103  LEU103      0.0001
    108  CD2        7.1520   15.3790   45.3670 C.3   103  LEU103      0.0001
    109  N         10.4290   18.4960   43.7680 N.am  104  VAL104     -0.1963
    110  CA        11.6250   18.0290   43.0430 C.3   104  VAL104      0.1727
    111  C         11.9930   16.7220   43.7220 C.2   104  VAL104      0.2616
    112  O         12.6360   16.7120   44.7680 O.2   104  VAL104     -0.2715
    113  CB        12.7360   19.0960   43.0760 C.3   104  VAL104      0.0290
    114  CG1       13.8990   18.6920   42.1500 C.3   104  VAL104      0.0023
    115  CG2       12.1870   20.4700   42.6780 C.3   104  VAL104      0.0023
    116  N         11.5400   15.6040   43.1380 N.am  105  ASN105     -0.1958
    117  CA        11.4110   14.3480   43.8320 C.3   105  ASN105      0.1819
    118  C         12.5770   13.8190   44.6140 C.2   105  ASN105      0.2621
    119  O         12.3480   13.1260   45.6120 O.2   105  ASN105     -0.2715
    120  CB        10.9890   13.2260   42.8900 C.3   105  ASN105      0.1195
    121  CG         9.6300   13.3570   42.3010 C.2   105  ASN105      0.2630
    122  OD1        8.9600   14.3680   42.4720 O.2   105  ASN105     -0.2716
    123  ND2        9.2360   12.3520   41.5150 N.am  105  ASN105     -0.0877
    124  N         13.7660   13.8730   44.0490 N.am  106  GLN106     -0.1963
    125  CA        14.8930   13.1400   44.6510 C.3   106  GLN106      0.1733
    126  C         15.6530   13.8590   45.7560 C.2   106  GLN106      0.2617
    127  O         16.5020   13.2600   46.4060 O.2   106  GLN106     -0.2715
    128  CB        15.8720   12.6760   43.5810 C.3   106  GLN106      0.0408
    129  CG        15.2040   11.9260   42.4540 C.3   106  GLN106      0.0908
    130  CD        16.2450   11.2960   41.5530 C.2   106  GLN106      0.2608
    131  OE1       17.1510   10.5980   42.0130 O.2   106  GLN106     -0.2717
    132  NE2       16.1490   11.5330   40.2610 N.am  106  GLN106     -0.0878
    133  N         15.3800   15.1220   45.9780 N.am  107  GLY107     -0.1941
    134  CA        16.0830   15.8290   47.0290 C.3   107  GLY107      0.1998
    135  C         17.4720   16.2560   46.6320 C.2   107  GLY107      0.2480
    136  O         17.8080   16.2910   45.4470 O.2   107  GLY107     -0.2729
    137  N         18.2550   16.6830   47.6330 N.am  108  PRO108     -0.2726
    138  CA        19.5690   17.2690   47.3500 C.3   108  PRO108      0.1402
    139  C         20.5250   16.3560   46.6410 C.2   108  PRO108      0.2269
    140  O         20.5500   15.1420   46.8850 O.2   108  PRO108     -0.2865
    141  CB        20.1110   17.6400   48.7370 C.3   108  PRO108      0.0296
    142  CG        18.9240   17.6480   49.6270 C.3   108  PRO108      0.0237
    143  CD        17.9300   16.7250   49.0720 C.3   108  PRO108      0.0939
    144  N         23.9240   20.9560   48.7390 N.3   150  SER150     -0.1202
    145  CA        22.7130   20.6250   49.5160 C.3   150  SER150      0.2020
    146  C         21.4860   21.5070   49.1260 C.2   150  SER150      0.2618
    147  O         20.3670   21.1910   49.5190 O.2   150  SER150     -0.2717
    148  CB        22.9920   20.6340   51.0110 C.3   150  SER150      0.2103
    149  OG        23.3190   21.9180   51.4780 O.3   150  SER150     -0.2182
    150  N         21.6980   22.6340   48.4030 N.am  151  ASN151     -0.1974
    151  CA        20.6220   23.4840   47.8830 C.3   151  ASN151      0.1688
    152  C         20.3030   23.1880   46.4100 C.2   151  ASN151      0.2292
    153  O         19.5350   23.9210   45.7910 O.2   151  ASN151     -0.2864
    154  CB        20.9910   24.9510   48.0690 C.3   151  ASN151      0.1181
    155  CG        20.8600   25.3950   49.4920 C.2   151  ASN151      0.2629
    156  OD1       20.1890   24.7440   50.3010 O.2   151  ASN151     -0.2716
    157  ND2       21.5070   26.4990   49.8510 N.am  151  ASN151     -0.0877
    158  N         18.5470   20.5380   44.0590 N.3   153  LEU153     -0.1245
    159  CA        17.6410   19.3990   44.1600 C.3   153  LEU153      0.1561
    160  C         17.5700   18.6860   42.8380 C.2   153  LEU153      0.2260
    161  O         17.5460   19.3310   41.7850 O.2   153  LEU153     -0.2867
    162  CB        16.2360   19.8800   44.5630 C.3   153  LEU153      0.0270
    163  CG        16.1730   20.7880   45.8110 C.3   153  LEU153      0.0019
    164  CD1       14.7460   21.2580   46.0560 C.3   153  LEU153      0.0001
    165  CD2       16.7350   20.0980   47.0500 C.3   153  LEU153      0.0001
    166  N         17.5180   25.7390   44.7390 N.3   163  ALA163     -0.1231
    167  CA        16.5590   25.9460   45.8240 C.3   163  ALA163      0.1694
    168  C         17.1800   26.7770   46.9630 C.2   163  ALA163      0.2592
    169  O         18.3550   27.1700   46.9200 O.2   163  ALA163     -0.2718
    170  CB        16.0680   24.5980   46.3480 C.3   163  ALA163      0.0304
    171  N         16.3750   27.0370   47.9740 N.am  164  ASP164     -0.1960
    172  CA        16.6810   27.8630   49.1470 C.3   164  ASP164      0.1840
    173  C         17.0740   29.2990   48.7460 C.2   164  ASP164      0.2622
    174  O         18.2430   29.6920   48.7930 O.2   164  ASP164     -0.2715
    175  CB        17.6710   27.2700   50.1500 C.3   164  ASP164      0.1450
    176  CG        17.5960   27.9570   51.5330 C.2   164  ASP164      0.3671
    177  OD1       17.0680   29.1090   51.6110 O.co2 164  ASP164     -0.2456
    178  OD2       18.0110   27.3280   52.5360 O.co2 164  ASP164     -0.2456
    179  N         16.0460   30.1050   48.4760 N.am  165  PHE165     -0.1974
    180  CA        16.2030   31.5240   48.1410 C.3   165  PHE165      0.1639
    181  C         16.1030   32.3990   49.4220 C.2   165  PHE165      0.2290
    182  O         16.0000   33.6240   49.3320 O.2   165  PHE165     -0.2864
    183  CB        15.1710   31.9150   47.0680 C.3   165  PHE165      0.0560
    184  CG        15.6340   31.4680   45.7010 C.ar  165  PHE165     -0.0200
    185  CD1       15.5540   30.1400   45.3300 C.ar  165  PHE165     -0.0042
    186  CD2       16.2100   32.3640   44.8150 C.ar  165  PHE165     -0.0042
    187  CE1       16.0450   29.7060   44.1010 C.ar  165  PHE165     -0.0003
    188  CE2       16.6820   31.9290   43.5720 C.ar  165  PHE165     -0.0003
    189  CZ        16.5670   30.6040   43.2130 C.ar  165  PHE165     -0.0000
@<TRIPOS>BOND
     1   100    98   ar
     2    99    98   ar
     3    98    97    1
     4   132   130   am
     5    97    96    1
     6    77    76    2
     7    96    93    1
     8    74    75    1
     9    76    75    1
    10   123   121   am
    11   130   131    2
    12   130   129    1
    13   161   160    2
    14    75    78    1
    15   104   103    2
    16   114   113    1
    17   121   122    2
    18   121   120    1
    19   129   128    1
    20   115   113    1
    21    93    94    1
    22    93    92    1
    23   160   159    1
    24   120   117    1
    25   110   113    1
    26   110   111    1
    27   110   109    1
    28   116   111   am
    29   116   117    1
    30   189   188   ar
    31   189   187   ar
    32   103   109   am
    33   103   102    1
    34    94   101   am
    35    94    95    2
    36    78    79    1
    37    78    80    1
    38    92    83   am
    39   101   102    1
    40   188   186   ar
    41   128   125    1
    42   111   112    2
    43   117   118    1
    44   124   118   am
    45   124   125    1
    46   158   159    1
    47   187   185   ar
    48   159   162    1
    49   102   105    1
    50   105   106    1
    51   162   163    1
    52   118   119    2
    53   125   126    1
    54   166   167    1
    55    83    84    2
    56    83    82    1
    57   186   184   ar
    58   106   108    1
    59   106   107    1
    60   185   184   ar
    61   136   135    2
    62    82    85    1
    63    82    81    1
    64   184   183    1
    65   126   133   am
    66   126   127    2
    67   153   152    2
    68   163   164    1
    69   163   165    1
    70   167   170    1
    71   167   168    1
    72    88    90   ar
    73    88    86   ar
    74    85    86    1
    75   133   134    1
    76   152   151    1
    77    90    91   ar
    78    86    87   ar
    79   135   134    1
    80   135   137   am
    81   139   140    2
    82   139   138    1
    83    68    67    2
    84   169   168    2
    85   168   171   am
    86   183   180    1
    87   138   137    1
    88   138   141    1
    89   137   143    1
    90    51    52    1
    91    91    89   ar
    92   151   154    1
    93   151   150    1
    94    87    89   ar
    95   171   172    1
    96    67    66    1
    97   154   155    1
    98   180   179    1
    99   180   181    1
   100    55    52    1
   101   150   146   am
   102   179   173   am
   103   141   142    1
   104    54    53    2
   105   144   145    1
   106   173   174    2
   107   173   172    1
   108    66    65    1
   109    66    69    1
   110    52    53    1
   111   143   142    1
   112   146   145    1
   113   146   147    2
   114   172   175    1
   115   182   181    2
   116   155   157   am
   117   155   156    2
   118   145   148    1
   119    70    69    1
   120    70    71    1
   121   175   176    1
   122    73    71   ar
   123     8     6    1
   124    71    72   ar
   125   148   149    1
   126   176   177   ar
   127   176   178   ar
   128    49    48    1
   129     6     5    1
   130    56    57    1
   131     5     7    1
   132     5     2    1
   133    60    57    1
   134    60    61    1
   135    64    63    1
   136    62    63    1
   137    62    61    1
   138    50    48    1
   139    48    45    1
   140    57    58    1
   141     4     3    2
   142    59    58    2
   143     3     2    1
   144     3     9   am
   145     2     1    1
   146    45    46    1
   147    45    44    1
   148     9    10    1
   149    10    11    1
   150    46    47    2
   151    23    22    1
   152    23    24    1
   153    31    30    1
   154    11    13   am
   155    11    12    2
   156    26    24   am
   157    26    27    1
   158    22    15   am
   159    30    27    1
   160    13    14    1
   161    16    15    2
   162    24    25    2
   163    39    41   ar
   164    39    37   ar
   165    15    14    1
   166    41    42   ar
   167    27    28    1
   168    35    34    2
   169    14    17    1
   170    32    28   am
   171    32    33    1
   172    36    37    1
   173    36    33    1
   174    37    38   ar
   175    42    43    1
   176    42    40   ar
   177    28    29    2
   178    34    33    1
   179    17    18    1
   180    38    40   ar
   181    18    19    1
   182    19    20    1
   183    21    20    1
