@<TRIPOS>MOLECULE
tmp/5uyjA00.pdb
 189 183 0 0 0
SMALL
GASTEIGER

@<TRIPOS>ATOM
      1  N        -26.1980  -19.7280   -6.4530 N.3    13  ILE13      -0.1231
      2  CA       -25.3570  -20.0860   -7.5690 C.3    13  ILE13       0.1692
      3  C        -24.1090  -19.1890   -7.7070 C.2    13  ILE13       0.2593
      4  O        -23.2160  -19.5600   -8.4440 O.2    13  ILE13      -0.2718
      5  CB       -26.1460  -20.1420   -8.8850 C.3    13  ILE13       0.0266
      6  CG1      -26.8440  -18.8320   -9.2100 C.3    13  ILE13       0.0019
      7  CG2      -27.1260  -21.3320   -8.8310 C.3    13  ILE13       0.0020
      8  CD1      -27.5190  -18.8200  -10.5940 C.3    13  ILE13       0.0001
      9  N        -24.0250  -18.0820   -6.9860 N.am   14  GLY14      -0.1942
     10  CA       -22.8460  -17.2430   -7.0470 C.3    14  GLY14       0.2014
     11  C        -22.8420  -16.2060   -5.9570 C.2    14  GLY14       0.2639
     12  O        -23.8830  -15.9110   -5.3520 O.2    14  GLY14      -0.2714
     13  N        -21.6780  -15.6340   -5.6920 N.am   15  LYS15      -0.1963
     14  CA       -21.5790  -14.5470   -4.7060 C.3    15  LYS15       0.1728
     15  C        -20.4580  -13.6430   -5.1680 C.2    15  LYS15       0.2617
     16  O        -19.2940  -14.0740   -5.1910 O.2    15  LYS15      -0.2715
     17  CB       -21.3450  -15.0570   -3.2820 C.3    15  LYS15       0.0311
     18  CG       -21.3410  -13.9140   -2.2660 C.3    15  LYS15       0.0038
     19  CD       -21.2510  -14.4020   -0.8410 C.3    15  LYS15       0.0206
     20  CE       -21.5660  -13.3050    0.1620 C.3    15  LYS15       0.1093
     21  NZ       -20.5220  -12.2520    0.2300 N.3    15  LYS15      -0.1314
     22  N        -20.8160  -12.4430   -5.6030 N.am   16  GLY16      -0.1940
     23  CA       -19.8810  -11.4780   -6.1510 C.3    16  GLY16       0.2014
     24  C        -19.4990  -10.4370   -5.1300 C.2    16  GLY16       0.2640
     25  O        -19.5220  -10.6960   -3.9250 O.2    16  GLY16      -0.2714
     26  N        -19.0980   -9.2740   -5.6010 N.am   17  SER17      -0.1935
     27  CA       -18.6970   -8.2100   -4.7020 C.3    17  SER17       0.2055
     28  C        -19.8250   -7.7650   -3.7870 C.2    17  SER17       0.2643
     29  O        -19.5490   -7.3110   -2.6580 O.2    17  SER17      -0.2714
     30  CB       -18.2080   -7.0100   -5.4870 C.3    17  SER17       0.2130
     31  OG       -16.9150   -7.3260   -5.9670 O.3    17  SER17      -0.2179
     32  N        -21.0720   -7.8130   -4.2830 N.am   18  TYR18      -0.1973
     33  CA       -22.2360   -7.3980   -3.5090 C.3    18  TYR18       0.1639
     34  C        -23.3400   -8.3990   -3.5990 C.2    18  TYR18       0.2290
     35  O        -23.5290   -9.0320   -4.6410 O.2    18  TYR18      -0.2864
     36  CB       -22.7600   -6.0410   -4.0030 C.3    18  TYR18       0.0560
     37  CG       -21.7190   -4.9540   -3.9600 C.ar   18  TYR18      -0.0198
     38  CD1      -21.4450   -4.2760   -2.7800 C.ar   18  TYR18      -0.0009
     39  CD2      -20.9500   -4.6540   -5.0760 C.ar   18  TYR18      -0.0009
     40  CE1      -20.4670   -3.2900   -2.7240 C.ar   18  TYR18       0.0417
     41  CE2      -19.9700   -3.6650   -5.0320 C.ar   18  TYR18       0.0417
     42  CZ       -19.7190   -3.0040   -3.8450 C.ar   18  TYR18       0.1957
     43  OH       -18.7430   -2.0360   -3.7450 O.3    18  TYR18      -0.2866
     44  N        -26.2760  -14.3500   -5.5580 N.3    21  VAL21      -0.1245
     45  CA       -27.0220  -14.7110   -6.7460 C.3    21  VAL21       0.1561
     46  C        -27.7140  -16.0400   -6.5320 C.2    21  VAL21       0.2260
     47  O        -27.0780  -17.0280   -6.1540 O.2    21  VAL21      -0.2867
     48  CB       -26.1310  -14.7650   -7.9940 C.3    21  VAL21       0.0252
     49  CG1      -26.9690  -14.9370   -9.2560 C.3    21  VAL21       0.0019
     50  CG2      -25.2700  -13.5170   -8.0930 C.3    21  VAL21       0.0019
     51  N        -30.9000  -16.0400  -13.3570 N.3    34  ALA34      -0.1245
     52  CA       -30.0530  -15.7870  -12.1950 C.3    34  ALA34       0.1562
     53  C        -30.5320  -14.4910  -11.5520 C.2    34  ALA34       0.2260
     54  O        -30.6650  -13.4660  -12.2400 O.2    34  ALA34      -0.2867
     55  CB       -28.5950  -15.6820  -12.6130 C.3    34  ALA34       0.0290
     56  N        -29.7620  -11.6540   -8.6740 N.3    36  LYS36      -0.1245
     57  CA       -28.9020  -11.0470   -7.6610 C.3    36  LYS36       0.1561
     58  C        -29.7990  -10.3420   -6.6530 C.2    36  LYS36       0.2260
     59  O        -30.6530   -9.5310   -7.0320 O.2    36  LYS36      -0.2867
     60  CB       -27.8950  -10.0930   -8.3090 C.3    36  LYS36       0.0271
     61  CG       -27.0250   -9.3410   -7.3570 C.3    36  LYS36       0.0035
     62  CD       -26.1190   -8.4170   -8.2250 C.3    36  LYS36       0.0206
     63  CE       -25.0370   -7.7930   -7.4560 C.3    36  LYS36       0.1093
     64  NZ       -24.1840   -7.0280   -8.3750 N.3    36  LYS36      -0.1314
     65  N        -24.5990    0.7820  -11.6340 N.3    68  GLU68      -0.1196
     66  CA       -24.4580   -0.5900  -12.1470 C.3    68  GLU68       0.1783
     67  C        -25.6950   -0.9600  -12.9930 C.2    68  GLU68       0.2306
     68  O        -25.5690   -1.5030  -14.0850 O.2    68  GLU68      -0.2863
     69  CB       -24.2780   -1.6060  -10.9950 C.2    68  GLU68       0.0071
     70  CG       -24.2970   -3.0660  -11.4110 C.2    68  GLU68       0.0834
     71  CD       -24.3470   -4.0690  -10.2770 C.2    68  GLU68       0.3877
     72  OE1      -24.2370   -3.6510   -9.0970 O.co2  68  GLU68      -0.2406
     73  OE2      -24.4660   -5.2840  -10.5720 O.co2  68  GLU68      -0.2406
     74  N        -23.0350  -10.3970  -19.6380 N.3    81  VAL81      -0.1245
     75  CA       -24.3120  -10.8170  -19.0560 C.3    81  VAL81       0.1561
     76  C        -25.4240   -9.8900  -19.4760 C.2    81  VAL81       0.2260
     77  O        -25.2060   -8.6960  -19.7560 O.2    81  VAL81      -0.2867
     78  CB       -24.2800  -10.9080  -17.5300 C.3    81  VAL81       0.0252
     79  CG1      -23.3840  -12.0440  -17.0630 C.3    81  VAL81       0.0019
     80  CG2      -23.9240   -9.5710  -16.8920 C.3    81  VAL81       0.0019
     81  N        -31.0410  -11.7260  -14.3650 N.3    99  PHE99      -0.1227
     82  CA       -30.1830  -11.9000  -15.5240 C.3    99  PHE99       0.1736
     83  C        -30.5340  -13.1700  -16.2610 C.2    99  PHE99       0.2595
     84  O        -30.9140  -14.1700  -15.6480 O.2    99  PHE99      -0.2718
     85  CB       -28.7040  -12.0150  -15.0910 C.3    99  PHE99       0.0547
     86  CG       -28.1170  -10.8130  -14.3790 C.ar   99  PHE99      -0.0202
     87  CD1      -28.3100  -10.6370  -13.0190 C.ar   99  PHE99      -0.0042
     88  CD2      -27.3260   -9.9090  -15.0600 C.ar   99  PHE99      -0.0042
     89  CE1      -27.7500   -9.5420  -12.3430 C.ar   99  PHE99      -0.0003
     90  CE2      -26.7860   -8.7920  -14.3990 C.ar   99  PHE99      -0.0003
     91  CZ       -27.0030   -8.6250  -13.0410 C.ar   99  PHE99      -0.0000
     92  N        -30.2560  -13.1990  -17.5650 N.am  100  GLU100     -0.1965
     93  CA       -30.2990  -14.4560  -18.2810 C.3   100  GLU100      0.1733
     94  C        -29.2360  -15.3870  -17.6700 C.2   100  GLU100      0.2616
     95  O        -28.1060  -14.9590  -17.3930 O.2   100  GLU100     -0.2715
     96  CB       -30.0290  -14.2360  -19.7820 C.3   100  GLU100      0.0429
     97  CG       -31.1420  -13.4810  -20.4770 C.3   100  GLU100      0.1163
     98  CD       -30.9410  -13.2590  -21.9630 C.2   100  GLU100      0.3649
     99  OE1      -29.8050  -13.4420  -22.4530 O.co2 100  GLU100     -0.2457
    100  OE2      -31.9530  -12.9800  -22.6510 O.co2 100  GLU100     -0.2457
    101  N        -29.6000  -16.6560  -17.4750 N.am  101  LEU101     -0.1963
    102  CA       -28.7180  -17.6190  -16.8140 C.3   101  LEU101      0.1728
    103  C        -27.5710  -18.0340  -17.7310 C.2   101  LEU101      0.2616
    104  O        -27.8090  -18.3010  -18.9210 O.2   101  LEU101     -0.2715
    105  CB       -29.5480  -18.8370  -16.4020 C.3   101  LEU101      0.0311
    106  CG       -28.7920  -19.9460  -15.6280 C.3   101  LEU101      0.0022
    107  CD1      -28.3620  -19.4850  -14.2410 C.3   101  LEU101      0.0001
    108  CD2      -29.6530  -21.2160  -15.5420 C.3   101  LEU101      0.0001
    109  N        -26.3640  -18.1390  -17.1850 N.am  102  VAL102     -0.1963
    110  CA       -25.1700  -18.6260  -17.9040 C.3   102  VAL102      0.1727
    111  C        -24.7990  -19.9130  -17.1970 C.2   102  VAL102      0.2616
    112  O        -24.1770  -19.8980  -16.1250 O.2   102  VAL102     -0.2715
    113  CB       -24.0640  -17.5560  -17.8930 C.3   102  VAL102      0.0290
    114  CG1      -22.8850  -18.0120  -18.7680 C.3   102  VAL102      0.0023
    115  CG2      -24.5870  -16.2180  -18.3990 C.3   102  VAL102      0.0023
    116  N        -25.2520  -21.0270  -17.7560 N.am  103  ASN103     -0.1958
    117  CA       -25.3490  -22.2820  -17.0110 C.3   103  ASN103      0.1819
    118  C        -24.2020  -22.8620  -16.2590 C.2   103  ASN103      0.2621
    119  O        -24.4040  -23.4320  -15.2050 O.2   103  ASN103     -0.2715
    120  CB       -25.6960  -23.4190  -17.9880 C.3   103  ASN103      0.1195
    121  CG       -27.0760  -23.3150  -18.5570 C.2   103  ASN103      0.2630
    122  OD1      -27.7850  -22.3620  -18.3250 O.2   103  ASN103     -0.2716
    123  ND2      -27.4540  -24.3110  -19.3300 N.am  103  ASN103     -0.0877
    124  N        -23.0110  -22.7700  -16.7990 N.am  104  GLN104     -0.1963
    125  CA       -21.9010  -23.4970  -16.1580 C.3   104  GLN104      0.1733
    126  C        -21.2440  -22.7390  -15.0320 C.2   104  GLN104      0.2617
    127  O        -20.5290  -23.3550  -14.2210 O.2   104  GLN104     -0.2715
    128  CB       -20.8530  -23.9340  -17.1770 C.3   104  GLN104      0.0408
    129  CG       -21.4130  -24.6960  -18.3180 C.3   104  GLN104      0.0908
    130  CD       -20.3230  -25.3370  -19.1500 C.2   104  GLN104      0.2608
    131  OE1      -19.4600  -26.0480  -18.6260 O.2   104  GLN104     -0.2717
    132  NE2      -20.3790  -25.1450  -20.4520 N.am  104  GLN104     -0.0878
    133  N        -21.4910  -21.4450  -14.9310 N.am  105  GLY105     -0.1941
    134  CA       -20.8830  -20.6700  -13.8700 C.3   105  GLY105      0.1998
    135  C        -19.4680  -20.2530  -14.1940 C.2   105  GLY105      0.2480
    136  O        -19.0100  -20.3480  -15.3360 O.2   105  GLY105     -0.2729
    137  N        -18.7610  -19.7700  -13.1700 N.am  106  PRO106     -0.2726
    138  CA       -17.4020  -19.2340  -13.3870 C.3   106  PRO106      0.1402
    139  C        -16.4510  -20.2050  -14.0590 C.2   106  PRO106      0.2269
    140  O        -16.4380  -21.4080  -13.7520 O.2   106  PRO106     -0.2865
    141  CB       -16.9390  -18.9140  -11.9730 C.3   106  PRO106      0.0296
    142  CG       -18.2140  -18.5350  -11.2480 C.3   106  PRO106      0.0237
    143  CD       -19.2270  -19.5290  -11.7940 C.3   106  PRO106      0.0939
    144  N        -12.8760  -15.5920  -12.1230 N.3   148  SER148     -0.1202
    145  CA       -14.0650  -15.9310  -11.3620 C.3   148  SER148      0.2020
    146  C        -15.2790  -15.0590  -11.7200 C.2   148  SER148      0.2618
    147  O        -16.3920  -15.3940  -11.2830 O.2   148  SER148     -0.2717
    148  CB       -13.7770  -15.8900   -9.8730 C.3   148  SER148      0.2103
    149  OG       -13.3820  -14.6220   -9.4060 O.3   148  SER148     -0.2182
    150  N        -15.0880  -13.9630  -12.5000 N.am  149  ASN149     -0.1974
    151  CA       -16.2020  -13.1280  -12.9650 C.3   149  ASN149      0.1688
    152  C        -16.5340  -13.4240  -14.4350 C.2   149  ASN149      0.2292
    153  O        -17.2970  -12.6650  -15.0450 O.2   149  ASN149     -0.2864
    154  CB       -15.8280  -11.6460  -12.7700 C.3   149  ASN149      0.1181
    155  CG       -15.9330  -11.2170  -11.3430 C.2   149  ASN149      0.2629
    156  OD1      -16.6160  -11.8640  -10.5240 O.2   149  ASN149     -0.2716
    157  ND2      -15.3230  -10.1010  -11.0000 N.am  149  ASN149     -0.0877
    158  N        -18.2800  -16.0710  -16.7700 N.3   151  LEU151     -0.1245
    159  CA       -19.1770  -17.2190  -16.6890 C.3   151  LEU151      0.1561
    160  C        -19.2280  -17.9680  -18.0000 C.2   151  LEU151      0.2260
    161  O        -19.2790  -17.3380  -19.0510 O.2   151  LEU151     -0.2867
    162  CB       -20.5880  -16.7120  -16.3460 C.3   151  LEU151      0.0270
    163  CG       -20.7060  -15.8000  -15.1360 C.3   151  LEU151      0.0019
    164  CD1      -22.1440  -15.2530  -15.0470 C.3   151  LEU151      0.0001
    165  CD2      -20.3160  -16.5250  -13.8630 C.3   151  LEU151      0.0001
    166  N        -19.2200  -10.8720  -16.1890 N.3   161  ALA161     -0.1231
    167  CA       -20.2180  -10.6790  -15.1400 C.3   161  ALA161      0.1694
    168  C        -19.6580   -9.8410  -13.9790 C.2   161  ALA161      0.2592
    169  O        -18.5050   -9.4640  -14.0080 O.2   161  ALA161     -0.2718
    170  CB       -20.7180  -12.0340  -14.6400 C.3   161  ALA161      0.0304
    171  N        -20.5020   -9.5480  -12.9870 N.am  162  ASP162     -0.1960
    172  CA       -20.1550   -8.7290  -11.8200 C.3   162  ASP162      0.1840
    173  C        -19.7450   -7.3010  -12.1640 C.2   162  ASP162      0.2622
    174  O        -18.5850   -6.9530  -12.1720 O.2   162  ASP162     -0.2715
    175  CB       -19.1420   -9.3490  -10.8620 C.3   162  ASP162      0.1450
    176  CG       -19.2190   -8.7120   -9.4770 C.2   162  ASP162      0.3671
    177  OD1      -19.8180   -7.6290   -9.3750 O.co2 162  ASP162     -0.2456
    178  OD2      -18.7120   -9.2940   -8.5160 O.co2 162  ASP162     -0.2456
    179  N        -20.7430   -6.4970  -12.4810 N.am  163  PHE163     -0.1974
    180  CA       -20.5350   -5.1090  -12.8140 C.3   163  PHE163      0.1639
    181  C        -20.6580   -4.2110  -11.5670 C.2   163  PHE163      0.2290
    182  O        -20.8500   -3.0260  -11.6870 O.2   163  PHE163     -0.2864
    183  CB       -21.5210   -4.7130  -13.9110 C.3   163  PHE163      0.0560
    184  CG       -21.0790   -5.1550  -15.2750 C.ar  163  PHE163     -0.0200
    185  CD1      -21.1930   -6.4770  -15.6530 C.ar  163  PHE163     -0.0042
    186  CD2      -20.4880   -4.2700  -16.1360 C.ar  163  PHE163     -0.0042
    187  CE1      -20.7510   -6.8960  -16.8830 C.ar  163  PHE163     -0.0003
    188  CE2      -20.0410   -4.6800  -17.3660 C.ar  163  PHE163     -0.0003
    189  CZ       -20.1760   -5.9950  -17.7440 C.ar  163  PHE163     -0.0000
@<TRIPOS>BOND
     1   100    98   ar
     2    99    98   ar
     3    98    97    1
     4    97    96    1
     5   132   130   am
     6    96    93    1
     7    77    76    2
     8    74    75    1
     9    76    75    1
    10   123   121   am
    11   130   131    2
    12   130   129    1
    13    75    78    1
    14   161   160    2
    15   104   103    2
    16   114   113    1
    17   121   122    2
    18   121   120    1
    19   115   113    1
    20   129   128    1
    21    93    94    1
    22    93    92    1
    23   160   159    1
    24   120   117    1
    25   110   113    1
    26   110   111    1
    27   110   109    1
    28   116   111   am
    29   116   117    1
    30   189   188   ar
    31   189   187   ar
    32   103   109   am
    33   103   102    1
    34    94   101   am
    35    94    95    2
    36    92    83   am
    37    78    79    1
    38    78    80    1
    39   101   102    1
    40   188   186   ar
    41   111   112    2
    42   128   125    1
    43   117   118    1
    44   187   185   ar
    45   102   105    1
    46   124   118   am
    47   124   125    1
    48   158   159    1
    49   159   162    1
    50   105   106    1
    51   162   163    1
    52    83    84    2
    53    83    82    1
    54   118   119    2
    55   166   167    1
    56   125   126    1
    57   186   184   ar
    58   185   184   ar
    59   106   108    1
    60   106   107    1
    61    82    85    1
    62    82    81    1
    63   136   135    2
    64   184   183    1
    65   167   170    1
    66   167   168    1
    67   163   164    1
    68   163   165    1
    69    85    86    1
    70    88    90   ar
    71    88    86   ar
    72   153   152    2
    73   126   133   am
    74   126   127    2
    75   133   134    1
    76   152   151    1
    77    90    91   ar
    78    86    87   ar
    79   135   134    1
    80   135   137   am
    81    68    67    2
    82   139   140    2
    83   139   138    1
    84   169   168    2
    85   168   171   am
    86   183   180    1
    87   138   137    1
    88   138   141    1
    89    51    52    1
    90   137   143    1
    91    91    89   ar
    92    87    89   ar
    93    67    66    1
    94   171   172    1
    95   151   154    1
    96   151   150    1
    97   180   179    1
    98   180   181    1
    99   154   155    1
   100    55    52    1
   101   150   146   am
   102   179   173   am
   103    54    53    2
   104    52    53    1
   105   174   173    2
   106   173   172    1
   107    66    65    1
   108    66    69    1
   109   144   145    1
   110   141   142    1
   111   172   175    1
   112   143   142    1
   113   146   145    1
   114   146   147    2
   115   182   181    2
   116    70    69    2
   117    70    71    1
   118   145   148    1
   119   155   157   am
   120   155   156    2
   121   175   176    1
   122     8     6    1
   123    73    71   ar
   124    71    72   ar
   125   148   149    1
   126   176   177   ar
   127   176   178   ar
   128    49    48    1
   129     6     5    1
   130     5     7    1
   131     5     2    1
   132    56    57    1
   133     4     3    2
   134    64    63    1
   135    60    57    1
   136    60    61    1
   137    62    63    1
   138    62    61    1
   139    50    48    1
   140    48    45    1
   141     3     2    1
   142     3     9   am
   143    57    58    1
   144     2     1    1
   145    10     9    1
   146    10    11    1
   147    59    58    2
   148    45    46    1
   149    45    44    1
   150    46    47    2
   151    23    22    1
   152    23    24    1
   153    31    30    1
   154    11    13   am
   155    11    12    2
   156    13    14    1
   157    22    15   am
   158    26    24   am
   159    26    27    1
   160    30    27    1
   161    16    15    2
   162    15    14    1
   163    24    25    2
   164    39    41   ar
   165    39    37   ar
   166    41    42   ar
   167    14    17    1
   168    27    28    1
   169    35    34    2
   170    32    28   am
   171    32    33    1
   172    36    37    1
   173    36    33    1
   174    37    38   ar
   175    42    43    1
   176    42    40   ar
   177    28    29    2
   178    34    33    1
   179    17    18    1
   180    38    40   ar
   181    18    19    1
   182    19    20    1
   183    20    21    1
