@<TRIPOS>MOLECULE
tmp/5uyuA00.pdb
 219 211 0 0 0
SMALL
GASTEIGER

@<TRIPOS>ATOM
      1  N         76.7180   42.5760   -0.0500 N.3    13  GLY13      -0.1225
      2  CA        76.4750   42.4690    1.3840 C.3    13  GLY13       0.1811
      3  C         76.5940   43.7470    2.1990 C.2    13  GLY13       0.2280
      4  O         76.3870   43.7030    3.4110 O.2    13  GLY13      -0.2866
      5  N         75.2090   46.8800    0.9480 N.3    15  GLY15      -0.1210
      6  CA        74.1700   47.8220    0.5320 C.3    15  GLY15       0.1956
      7  C         74.4870   48.6380   -0.7150 C.2    15  GLY15       0.2611
      8  O         75.5910   48.5530   -1.2930 O.2    15  GLY15      -0.2717
      9  N         73.4900   49.4040   -1.1340 N.am   16  TYR16      -0.1976
     10  CA        73.5990   50.3000   -2.2800 C.3    16  TYR16       0.1639
     11  C         73.6040   51.7420   -1.8010 C.2    16  TYR16       0.2290
     12  O         72.7150   52.1520   -1.0430 O.2    16  TYR16      -0.2864
     13  CB        72.4060   50.0880   -3.2080 C.3    16  TYR16       0.0560
     14  CG        72.4330   48.7910   -3.9560 C.ar   16  TYR16      -0.0198
     15  CD1       71.9100   47.6320   -3.4050 C.ar   16  TYR16      -0.0009
     16  CD2       72.9720   48.7230   -5.2430 C.ar   16  TYR16      -0.0009
     17  CE1       71.9330   46.4340   -4.1130 C.ar   16  TYR16       0.0417
     18  CE2       72.9950   47.5440   -5.9440 C.ar   16  TYR16       0.0417
     19  CZ        72.4800   46.4030   -5.3830 C.ar   16  TYR16       0.1957
     20  OH        72.5240   45.2380   -6.1050 O.3    16  TYR16      -0.2866
     21  N         73.6830   55.3730    2.0660 N.3    32  LEU32      -0.1245
     22  CA        72.9870   54.1140    1.8580 C.3    32  LEU32       0.1561
     23  C         71.5030   54.3570    1.5100 C.2    32  LEU32       0.2260
     24  O         70.7960   55.0670    2.2090 O.2    32  LEU32      -0.2867
     25  CB        73.1190   53.2550    3.1260 C.3    32  LEU32       0.0270
     26  CG        72.4560   51.8760    3.1620 C.3    32  LEU32       0.0019
     27  CD1       73.2470   50.8920    2.3370 C.3    32  LEU32       0.0001
     28  CD2       72.3620   51.3890    4.6090 C.3    32  LEU32       0.0001
     29  N         67.8200   53.2900    1.5470 N.3    34  ASP34      -0.1239
     30  CA        67.0810   52.3990    2.4270 C.3    34  ASP34       0.1674
     31  C         65.5760   52.6330    2.4260 C.2    34  ASP34       0.2266
     32  O         65.0660   53.5640    3.0770 O.2    34  ASP34      -0.2867
     33  CB        67.6350   52.5320    3.8580 C.3    34  ASP34       0.1410
     34  CG        67.0460   51.5070    4.8230 C.2    34  ASP34       0.3668
     35  OD1       66.4420   50.5110    4.3770 O.co2  34  ASP34      -0.2456
     36  OD2       67.1870   51.7040    6.0540 O.co2  34  ASP34      -0.2456
     37  N         63.5470   50.7650    3.8670 N.3    36  GLY36      -0.1210
     38  CA        63.0790   50.1410    5.0950 C.3    36  GLY36       0.1956
     39  C         63.3060   51.0100    6.3280 C.2    36  GLY36       0.2612
     40  O         63.2210   50.5080    7.4590 O.2    36  GLY36      -0.2717
     41  N         63.5890   52.2950    6.1240 N.am   37  SER37      -0.1952
     42  CA        63.6040   53.2830    7.2140 C.3    37  SER37       0.1924
     43  C         63.2440   54.6900    6.7050 C.2    37  SER37       0.2314
     44  O         63.0260   54.8760    5.5070 O.2    37  SER37      -0.2863
     45  CB        64.9540   53.2540    7.9270 C.3    37  SER37       0.2116
     46  OG        66.0360   53.7360    7.1260 O.3    37  SER37      -0.2180
     47  N         64.6010   58.0130    8.2990 N.3    39  ASN39      -0.1240
     48  CA        65.5030   59.0880    8.6700 C.3    39  ASN39       0.1653
     49  C         66.6750   59.2510    7.7030 C.2    39  ASN39       0.2266
     50  O         67.2440   58.2760    7.2300 O.2    39  ASN39      -0.2867
     51  CB        66.0800   58.8440   10.0880 C.3    39  ASN39       0.1155
     52  CG        65.1050   59.1980   11.1910 C.2    39  ASN39       0.2627
     53  OD1       64.2820   58.3740   11.6130 O.2    39  ASN39      -0.2716
     54  ND2       65.2160   60.4320   11.6970 N.am   39  ASN39      -0.0877
     55  N         68.1680   56.0350   18.0570 N.3    71  VAL71      -0.1231
     56  CA        67.5970   55.0730   17.1110 C.3    71  VAL71       0.1678
     57  C         68.2800   53.7090   17.2320 C.2    71  VAL71       0.2434
     58  O         69.1790   53.3770   16.4550 O.2    71  VAL71      -0.2733
     59  CB        67.6780   55.6030   15.6650 C.3    71  VAL71       0.0265
     60  CG1       66.9420   54.6740   14.7090 C.3    71  VAL71       0.0020
     61  CG2       67.0980   57.0120   15.6060 C.3    71  VAL71       0.0020
     62  N         67.8780   52.9380   18.2480 N.am   72  PRO72      -0.2718
     63  CA        68.2310   51.5380   18.2170 C.3    72  PRO72       0.1535
     64  C         67.3820   50.8690   17.1530 C.2    72  PRO72       0.2599
     65  O         66.2370   51.2840   16.9140 O.2    72  PRO72      -0.2715
     66  CB        67.8760   51.0410   19.6120 C.3    72  PRO72       0.0310
     67  CG        66.8050   51.9680   20.0830 C.3    72  PRO72       0.0237
     68  CD        67.0930   53.2940   19.4420 C.3    72  PRO72       0.0939
     69  N         67.9720   49.9010   16.4690 N.am   73  TYR73      -0.1960
     70  CA        67.2390   49.0660   15.5200 C.3    73  TYR73       0.1771
     71  C         67.7260   47.6310   15.7230 C.2    73  TYR73       0.2620
     72  O         68.5490   47.3720   16.6230 O.2    73  TYR73      -0.2715
     73  CB        67.3960   49.5770   14.0750 C.3    73  TYR73       0.0574
     74  CG        68.8080   49.5900   13.5210 C.ar   73  TYR73      -0.0198
     75  CD1       69.7180   50.5910   13.8840 C.ar   73  TYR73      -0.0009
     76  CD2       69.2180   48.6300   12.6020 C.ar   73  TYR73      -0.0009
     77  CE1       71.0070   50.6110   13.3790 C.ar   73  TYR73       0.0417
     78  CE2       70.5090   48.6300   12.0900 C.ar   73  TYR73       0.0417
     79  CZ        71.3990   49.6260   12.4740 C.ar   73  TYR73       0.1957
     80  OH        72.6690   49.6230   11.9500 O.3    73  TYR73      -0.2866
     81  N         67.2230   46.6990   14.9140 N.am   74  THR74      -0.1937
     82  CA        67.4050   45.2780   15.2350 C.3    74  THR74       0.2028
     83  C         68.8900   44.8650   15.2540 C.2    74  THR74       0.2642
     84  O         69.3360   44.2630   16.2240 O.2    74  THR74      -0.2714
     85  CB        66.5540   44.3500   14.3310 C.3    74  THR74       0.1808
     86  OG1       66.8060   44.6470   12.9550 O.3    74  THR74      -0.2208
     87  CG2       65.0670   44.5480   14.6150 C.3    74  THR74       0.0379
     88  N         69.6610   45.2410   14.2300 N.am   75  GLN75      -0.1976
     89  CA        71.0730   44.8170   14.1520 C.3    75  GLN75       0.1601
     90  C         72.1140   45.8750   14.6320 C.2    75  GLN75       0.2287
     91  O         73.3200   45.6360   14.5460 O.2    75  GLN75      -0.2864
     92  CB        71.4070   44.3470   12.7160 C.3    75  GLN75       0.0394
     93  CG        70.4720   43.2790   12.1220 C.3    75  GLN75       0.0908
     94  CD        70.5170   41.9270   12.8350 C.2    75  GLN75       0.2608
     95  OE1       71.5030   41.1780   12.7470 O.2    75  GLN75      -0.2717
     96  NE2       69.4270   41.5950   13.5250 N.am   75  GLN75      -0.0878
     97  N         72.1810   53.9010   16.3090 N.3    78  TRP78      -0.1241
     98  CA        72.8110   55.2050   16.2010 C.3    78  TRP78       0.1605
     99  C         72.0540   56.2280   16.9980 C.2    78  TRP78       0.2264
    100  O         70.8680   56.0500   17.2870 O.2    78  TRP78      -0.2867
    101  CB        72.9940   55.6390   14.7390 C.3    78  TRP78       0.0550
    102  CG        71.7120   55.9030   13.9790 C.ar   78  TRP78       0.0003
    103  CD1       71.0040   55.0220   13.1680 C.ar   78  TRP78       0.0946
    104  CD2       70.9580   57.1480   13.9270 C.ar   78  TRP78       0.0152
    105  NE1       69.8870   55.6170   12.6660 N.ar   78  TRP78      -0.2442
    106  CE2       69.8070   56.8950   13.0660 C.ar   78  TRP78       0.0810
    107  CE3       71.1090   58.4000   14.5020 C.ar   78  TRP78       0.0012
    108  CZ2       68.8660   57.8740   12.7890 C.ar   78  TRP78       0.0191
    109  CZ3       70.1500   59.3850   14.2250 C.ar   78  TRP78       0.0001
    110  CH2       69.0510   59.1270   13.3930 C.ar   78  TRP78       0.0015
    111  N         76.6440   50.0250   13.2300 N.3   110  PHE110     -0.1241
    112  CA        75.9120   50.7720   12.2090 C.3   110  PHE110      0.1605
    113  C         76.8190   50.9360   10.9890 C.2   110  PHE110      0.2264
    114  O         76.4950   50.4610    9.8910 O.2   110  PHE110     -0.2867
    115  CB        75.4450   52.1510   12.7350 C.3   110  PHE110      0.0534
    116  CG        74.7730   52.9990   11.6840 C.ar  110  PHE110     -0.0203
    117  CD1       73.5270   52.6580   11.1920 C.ar  110  PHE110     -0.0042
    118  CD2       75.4090   54.1120   11.1500 C.ar  110  PHE110     -0.0042
    119  CE1       72.9180   53.4210   10.2070 C.ar  110  PHE110     -0.0003
    120  CE2       74.7980   54.8840   10.1780 C.ar  110  PHE110     -0.0003
    121  CZ        73.5430   54.5390    9.7110 C.ar  110  PHE110     -0.0000
    122  N         80.0030   50.0990    8.6470 N.3   112  ILE112     -0.1245
    123  CA        80.6360   48.8430    8.2520 C.3   112  ILE112      0.1561
    124  C         82.1280   49.1010    7.9920 C.2   112  ILE112      0.2260
    125  O         82.4950   50.0160    7.2430 O.2   112  ILE112     -0.2867
    126  CB        79.9880   48.2250    6.9790 C.3   112  ILE112      0.0252
    127  CG1       78.5440   47.8300    7.2410 C.3   112  ILE112      0.0019
    128  CG2       80.7840   47.0100    6.5100 C.3   112  ILE112      0.0019
    129  CD1       77.7740   47.4010    6.0060 C.3   112  ILE112      0.0001
    130  N         80.3180   54.0980    2.4750 N.3   117  TRP117     -0.1241
    131  CA        79.2300   55.0150    2.7860 C.3   117  TRP117      0.1605
    132  C         79.2600   55.4850    4.2180 C.2   117  TRP117      0.2264
    133  O         79.8070   54.8130    5.0970 O.2   117  TRP117     -0.2867
    134  CB        77.8770   54.4170    2.4280 C.3   117  TRP117      0.0550
    135  CG        77.5480   53.0820    3.0670 C.ar  117  TRP117      0.0003
    136  CD1       77.6590   51.8240    2.4970 C.ar  117  TRP117      0.0946
    137  CD2       76.9640   52.8370    4.3990 C.ar  117  TRP117      0.0152
    138  NE1       77.2480   50.8500    3.3680 N.ar  117  TRP117     -0.2442
    139  CE2       76.8090   51.3910    4.5170 C.ar  117  TRP117      0.0810
    140  CE3       76.5840   53.6400    5.4650 C.ar  117  TRP117      0.0012
    141  CZ2       76.3090   50.7970    5.6700 C.ar  117  TRP117      0.0191
    142  CZ3       76.0710   53.0240    6.6170 C.ar  117  TRP117      0.0001
    143  CH2       75.9360   51.6470    6.7080 C.ar  117  TRP117      0.0015
    144  N         72.7940   57.2690    5.8610 N.3   120  ILE120     -0.1245
    145  CA        71.6160   56.4380    5.5080 C.3   120  ILE120      0.1561
    146  C         70.4710   57.3590    5.0970 C.2   120  ILE120      0.2260
    147  O         70.2000   58.3710    5.7670 O.2   120  ILE120     -0.2867
    148  CB        71.2220   55.4600    6.6640 C.3   120  ILE120      0.0252
    149  CG1       70.1590   54.4590    6.2060 C.3   120  ILE120      0.0019
    150  CG2       70.7290   56.1880    7.9250 C.3   120  ILE120      0.0019
    151  CD1       69.9050   53.3190    7.1710 C.3   120  ILE120      0.0001
    152  N         57.2050   55.9530   10.6840 N.3   128  ILE128     -0.1245
    153  CA        58.2530   55.2120   11.3900 C.3   128  ILE128      0.1561
    154  C         59.5380   56.0420   11.5470 C.2   128  ILE128      0.2260
    155  O         60.5930   55.5090   11.9020 O.2   128  ILE128     -0.2867
    156  CB        58.4920   53.8270   10.7310 C.3   128  ILE128      0.0252
    157  CG1       59.0410   53.9530    9.3000 C.3   128  ILE128      0.0019
    158  CG2       57.1820   53.0630   10.6510 C.3   128  ILE128      0.0019
    159  CD1       59.5440   52.6420    8.7120 C.3   128  ILE128      0.0001
    160  N         62.0870   58.5090   13.3930 N.3   130  ARG130     -0.1245
    161  CA        62.4500   58.8370   14.7730 C.3   130  ARG130      0.1563
    162  C         62.8470   60.3070   14.8570 C.2   130  ARG130      0.2260
    163  O         63.4720   60.8230   13.9360 O.2   130  ARG130     -0.2867
    164  CB        63.6200   57.9710   15.2500 C.3   130  ARG130      0.0307
    165  CG        63.2040   56.6690   15.8940 C.3   130  ARG130      0.0489
    166  CD        62.4240   55.8110   14.9270 C.3   130  ARG130      0.2205
    167  NE        62.3200   54.4290   15.3900 N.pl3 130  ARG130     -0.0865
    168  CZ        61.5520   53.5020   14.8190 C.cat 130  ARG130      0.5346
    169  NH1       60.7960   53.8000   13.7670 N.pl3 130  ARG130      0.1354
    170  NH2       61.5370   52.2680   15.3010 N.pl3 130  ARG130      0.1354
    171  N         56.2070   51.4880    6.5300 N.3   190  TYR190     -0.1241
    172  CA        57.0830   50.7870    5.6040 C.3   190  TYR190      0.1605
    173  C         56.3950   50.7920    4.2490 C.2   190  TYR190      0.2264
    174  O         55.2550   51.2360    4.1320 O.2   190  TYR190     -0.2867
    175  CB        57.3230   49.3340    6.0550 C.3   190  TYR190      0.0534
    176  CG        58.0040   49.2410    7.3980 C.ar  190  TYR190     -0.0201
    177  CD1       59.4000   49.3000    7.5020 C.ar  190  TYR190     -0.0009
    178  CD2       57.2650   49.1320    8.5670 C.ar  190  TYR190     -0.0009
    179  CE1       60.0240   49.2420    8.7480 C.ar  190  TYR190      0.0417
    180  CE2       57.8820   49.0670    9.8140 C.ar  190  TYR190      0.0417
    181  CZ        59.2620   49.1290    9.8930 C.ar  190  TYR190      0.1957
    182  OH        59.8940   49.0620   11.1130 O.3   190  TYR190     -0.2866
    183  N         62.2580   46.2370    0.7890 N.3   220  ASP220     -0.1225
    184  CA        63.3640   46.8280    1.5660 C.3   220  ASP220      0.1805
    185  C         64.7300   46.7670    0.9070 C.2   220  ASP220      0.2598
    186  O         65.4370   45.7590    1.0020 O.2   220  ASP220     -0.2718
    187  CB        63.4640   46.1630    2.9320 C.3   220  ASP220      0.1424
    188  CG        64.4980   46.8150    3.8240 C.2   220  ASP220      0.3668
    189  OD1       65.0320   47.8970    3.4840 O.co2 220  ASP220     -0.2456
    190  OD2       64.7750   46.2250    4.8780 O.co2 220  ASP220     -0.2456
    191  N         65.1100   47.8780    0.2870 N.am  221  SER221     -0.1938
    192  CA        66.4120   48.0070   -0.3520 C.3   221  SER221      0.2055
    193  C         67.5950   47.9320    0.6130 C.2   221  SER221      0.2644
    194  O         68.7260   47.7700    0.1700 O.2   221  SER221     -0.2714
    195  CB        66.4980   49.3150   -1.1300 C.3   221  SER221      0.2130
    196  OG        66.5490   50.4470   -0.2650 O.3   221  SER221     -0.2179
    197  N         67.3400   48.0910    1.9130 N.am  222  GLY222     -0.1939
    198  CA        68.3760   48.0220    2.9380 C.3   222  GLY222      0.2014
    199  C         68.5830   46.6560    3.5600 C.2   222  GLY222      0.2640
    200  O         69.3040   46.5280    4.5570 O.2   222  GLY222     -0.2714
    201  N         67.9590   45.6290    2.9820 N.am  223  THR223     -0.1936
    202  CA        68.1370   44.2450    3.4300 C.3   223  THR223      0.2028
    203  C         68.6590   43.4120    2.2640 C.2   223  THR223      0.2642
    204  O         68.1660   43.5260    1.1420 O.2   223  THR223     -0.2714
    205  CB        66.8180   43.6550    3.9690 C.3   223  THR223      0.1808
    206  OG1       66.5200   44.2730    5.2220 O.3   223  THR223     -0.2208
    207  CG2       66.9350   42.1450    4.1830 C.3   223  THR223      0.0379
    208  N         69.6740   42.5990    2.5260 N.am  224  THR224     -0.1950
    209  CA        70.2890   41.8110    1.4660 C.3   224  THR224      0.1897
    210  C         69.3870   40.6390    1.1140 C.2   224  THR224      0.2313
    211  O         69.0710   40.4320   -0.0660 O.2   224  THR224     -0.2863
    212  CB        71.6950   41.3250    1.8410 C.3   224  THR224      0.1794
    213  OG1       72.5840   42.4480    1.9300 O.3   224  THR224     -0.2208
    214  CG2       72.2180   40.3760    0.7850 C.3   224  THR224      0.0378
    215  N         67.3260   42.6780   -1.2990 N.3   320  ALA320     -0.1245
    216  CA        68.0280   42.6790   -2.5810 C.3   320  ALA320      0.1562
    217  C         67.8240   41.3820   -3.3720 C.2   320  ALA320      0.2260
    218  O         67.8320   41.4110   -4.5850 O.2   320  ALA320     -0.2867
    219  CB        69.5130   43.0020   -2.4020 C.3   320  ALA320      0.0290
@<TRIPOS>BOND
     1    20    19    1
     2    18    19   ar
     3    18    16   ar
     4    19    17   ar
     5    16    14   ar
     6   218   217    2
     7    17    15   ar
     8    14    15   ar
     9    14    13    1
    10   217   216    1
    11    13    10    1
    12   216   219    1
    13   216   215    1
    14    10    11    1
    15    10     9    1
    16    11    12    2
    17     8     7    2
    18     9     7   am
    19   195   192    1
    20   195   196    1
    21     7     6    1
    22   192   191    1
    23   192   193    1
    24   211   210    2
    25     1     2    1
    26   194   193    2
    27   191   185   am
    28     6     5    1
    29   193   197   am
    30   214   212    1
    31   183   184    1
    32   185   186    2
    33   185   184    1
    34   210   209    1
    35   204   203    2
    36     2     3    1
    37   209   212    1
    38   209   208    1
    39    23    22    1
    40    23    24    2
    41    29    30    1
    42   184   187    1
    43   212   213    1
    44    22    21    1
    45    22    25    1
    46   197   198    1
    47     3     4    2
    48   203   208   am
    49   203   202    1
    50    27    26    1
    51    31    30    1
    52    31    32    2
    53    30    33    1
    54   134   131    1
    55   134   135    1
    56   130   131    1
    57   136   135   ar
    58   136   138   ar
    59   131   132    1
    60   187   188    1
    61   198   199    1
    62   201   202    1
    63   201   199   am
    64   135   137   ar
    65    25    26    1
    66    26    28    1
    67   138   139   ar
    68   202   205    1
    69   189   188   ar
    70   199   200    2
    71   188   190   ar
    72    33    34    1
    73    37    38    1
    74   205   207    1
    75   205   206    1
    76   174   173    2
    77   132   133    2
    78   173   172    1
    79    35    34   ar
    80   137   139   ar
    81   137   140   ar
    82   139   141   ar
    83    34    36   ar
    84    38    39    1
    85   146   145    1
    86   146   147    2
    87   140   142   ar
    88    44    43    2
    89   145   144    1
    90   145   148    1
    91   172   175    1
    92   172   171    1
    93   141   143   ar
    94   129   127    1
    95   175   176    1
    96    41    39   am
    97    41    42    1
    98   149   148    1
    99   149   151    1
   100    39    40    2
   101   128   126    1
   102   142   143   ar
   103   148   150    1
   104    43    42    1
   105   126   127    1
   106   126   123    1
   107    46    45    1
   108    42    45    1
   109    50    49    2
   110   125   124    2
   111   176   177   ar
   112   176   178   ar
   113   177   179   ar
   114    49    48    1
   115   124   123    1
   116   123   122    1
   117    47    48    1
   118   178   180   ar
   119    48    51    1
   120   159   157    1
   121   179   181   ar
   122   157   156    1
   123   121   120   ar
   124   121   119   ar
   125   180   181   ar
   126   114   113    2
   127   181   182    1
   128    51    52    1
   129   120   118   ar
   130   119   117   ar
   131   158   156    1
   132   152   153    1
   133   156   153    1
   134   113   112    1
   135   118   116   ar
   136    52    53    2
   137    52    54   am
   138   117   116   ar
   139   153   154    1
   140   154   155    2
   141   116   115    1
   142    80    79    1
   143    78    79   ar
   144    78    76   ar
   145    93    92    1
   146    93    94    1
   147   112   115    1
   148   112   111    1
   149    79    77   ar
   150    76    74   ar
   151   105   106   ar
   152   105   103   ar
   153    92    89    1
   154    95    94    2
   155   108   106   ar
   156   108   110   ar
   157    94    96   am
   158    86    85    1
   159   106   104   ar
   160   103   102   ar
   161    77    75   ar
   162   160   161    1
   163   110   109   ar
   164    74    75   ar
   165    74    73    1
   166   169   168    1
   167   104   102   ar
   168   104   107   ar
   169   163   162    2
   170   102   101    1
   171    73    70    1
   172    89    88    1
   173    89    90    1
   174   109   107   ar
   175    88    83   am
   176    85    87    1
   177    85    82    1
   178    91    90    2
   179    60    59    1
   180   101    98    1
   181   161   162    1
   182   161   164    1
   183   168   170    1
   184   168   167    2
   185    81    82    1
   186    81    71   am
   187   166   167    1
   188   166   165    1
   189    82    83    1
   190   164   165    1
   191    83    84    2
   192    70    71    1
   193    70    69    1
   194    61    59    1
   195    59    56    1
   196    71    72    2
   197    98    97    1
   198    98    99    1
   199    58    57    2
   200    69    64   am
   201    65    64    2
   202    99   100    2
   203    56    57    1
   204    56    55    1
   205    64    63    1
   206    57    62   am
   207    63    62    1
   208    63    66    1
   209    62    68    1
   210    68    67    1
   211    66    67    1
