@<TRIPOS>MOLECULE
tmp/5uyyC00.pdb
 98 94 0 0 0
SMALL
GASTEIGER

@<TRIPOS>ATOM
      1  N         41.2800   13.4270    4.2250 N.3   308  VAL308     -0.1231
      2  CA        39.8750   13.4620    3.8060 C.3   308  VAL308      0.1692
      3  C         39.0540   14.4760    4.6030 C.2   308  VAL308      0.2592
      4  O         39.3730   14.8280    5.7250 O.2   308  VAL308     -0.2718
      5  CB        39.1330   12.1280    3.9640 C.3   308  VAL308      0.0266
      6  CG1       39.8830   11.0180    3.2820 C.3   308  VAL308      0.0020
      7  CG2       38.9870   11.7740    5.4150 C.3   308  VAL308      0.0020
      8  N         37.9660   14.8900    3.9790 N.am  309  LEU309     -0.1966
      9  CA        37.1450   15.9750    4.4300 C.3   309  LEU309      0.1728
     10  C         35.9620   15.4370    5.1850 C.2   309  LEU309      0.2616
     11  O         35.4520   14.4010    4.8930 O.2   309  LEU309     -0.2715
     12  CB        36.6370   16.7670    3.2180 C.3   309  LEU309      0.0311
     13  CG        37.5600   17.7840    2.5180 C.3   309  LEU309      0.0022
     14  CD1       36.9840   18.1830    1.1650 C.3   309  LEU309      0.0001
     15  CD2       37.7950   19.0320    3.3990 C.3   309  LEU309      0.0001
     16  N         35.5000   16.1900    6.1450 N.am  310  ASP310     -0.1957
     17  CA        34.3710   15.7700    6.9400 C.3   310  ASP310      0.1840
     18  C         33.0760   16.1230    6.2460 C.2   310  ASP310      0.2622
     19  O         32.3970   17.1110    6.5870 O.2   310  ASP310     -0.2715
     20  CB        34.4430   16.3730    8.3490 C.3   310  ASP310      0.1450
     21  CG        33.3460   15.8570    9.2450 C.2   310  ASP310      0.3671
     22  OD1       32.7260   14.8620    8.9000 O.co2 310  ASP310     -0.2456
     23  OD2       33.1080   16.4170   10.3150 O.co2 310  ASP310     -0.2456
     24  N         32.7360   15.3250    5.2390 N.am  311  LYS311     -0.1963
     25  CA        31.4250   15.4660    4.5700 C.3   311  LYS311      0.1728
     26  C         30.8600   14.1300    4.2110 C.2   311  LYS311      0.2616
     27  O         31.5500   13.1370    4.1630 O.2   311  LYS311     -0.2715
     28  CB        31.4580   16.3610    3.3350 C.3   311  LYS311      0.0311
     29  CG        32.8090   16.4470    2.6380 C.3   311  LYS311      0.0038
     30  CD        33.0540   15.2110    1.7830 C.3   311  LYS311      0.0206
     31  CE        33.9120   15.4710    0.5520 C.3   311  LYS311      0.1093
     32  NZ        33.5490   16.5750   -0.4020 N.3   311  LYS311     -0.1314
     33  N         29.5580   14.1450    3.9690 N.am  312  VAL312     -0.1963
     34  CA        28.8220   12.9860    3.5670 C.3   312  VAL312      0.1727
     35  C         29.5000   12.3190    2.3620 C.2   312  VAL312      0.2617
     36  O         29.8780   12.9710    1.3970 O.2   312  VAL312     -0.2715
     37  CB        27.3820   13.3530    3.2280 C.3   312  VAL312      0.0290
     38  CG1       26.6810   12.2030    2.5360 C.3   312  VAL312      0.0023
     39  CG2       26.6220   13.7160    4.5130 C.3   312  VAL312      0.0023
     40  N         29.7430   11.0210    2.4870 N.am  313  GLY313     -0.1940
     41  CA        30.2950   10.2580    1.3950 C.3   313  GLY313      0.2014
     42  C         31.7970   10.2520    1.2930 C.2   313  GLY313      0.2639
     43  O         32.3330    9.5630    0.4480 O.2   313  GLY313     -0.2714
     44  N         32.5230   10.9350    2.1600 N.am  314  ALA314     -0.1963
     45  CA        33.9990   10.8800    2.0640 C.3   314  ALA314      0.1728
     46  C         34.5610    9.4340    2.2410 C.2   314  ALA314      0.2616
     47  O         35.3660    8.9770    1.4450 O.2   314  ALA314     -0.2715
     48  CB        34.6110   11.7940    3.1050 C.3   314  ALA314      0.0334
     49  N         34.1150    8.7310    3.2710 N.am  315  LEU315     -0.1963
     50  CA        34.5490    7.3580    3.5170 C.3   315  LEU315      0.1728
     51  C         34.0900    6.4050    2.4530 C.2   315  LEU315      0.2616
     52  O         34.8640    5.5080    2.0030 O.2   315  LEU315     -0.2715
     53  CB        34.0560    6.8390    4.8820 C.3   315  LEU315      0.0311
     54  CG        34.8050    7.4860    6.0250 C.3   315  LEU315      0.0022
     55  CD1       34.1420    7.2140    7.3720 C.3   315  LEU315      0.0001
     56  CD2       36.2480    6.9990    6.0520 C.3   315  LEU315      0.0001
     57  N         32.8250    6.5540    2.0800 N.am  316  ALA316     -0.1977
     58  CA        32.2350    5.7900    0.9180 C.3   316  ALA316      0.1597
     59  C         33.0890    5.8910   -0.3220 C.2   316  ALA316      0.2287
     60  O         33.3210    4.8700   -1.0120 O.2   316  ALA316     -0.2864
     61  CB        30.8130    6.2450    0.6190 C.3   316  ALA316      0.0319
     62  N         39.2750    7.3790   12.1240 N.3   334  ILE334     -0.1245
     63  CA        39.4240    8.8150   11.9290 C.3   334  ILE334      0.1561
     64  C         40.1930    9.3560   13.1290 C.2   334  ILE334      0.2260
     65  O         39.7580    9.2000   14.2710 O.2   334  ILE334     -0.2867
     66  CB        38.0490    9.5130   11.8050 C.3   334  ILE334      0.0252
     67  CG1       37.3500    9.1360   10.4930 C.3   334  ILE334      0.0019
     68  CG2       38.1570   11.0400   11.9780 C.3   334  ILE334      0.0019
     69  CD1       37.9820    9.7340    9.2830 C.3   334  ILE334      0.0001
     70  N         41.4130   12.9380   14.5820 N.3   336  GLU336     -0.1245
     71  CA        41.1890   14.3940   14.3690 C.3   336  GLU336      0.1567
     72  C         42.5460   15.1570   14.5350 C.2   336  GLU336      0.2260
     73  O         42.9210   15.4890   15.6420 O.2   336  GLU336     -0.2867
     74  CB        40.1030   14.9390   15.3070 C.3   336  GLU336      0.0388
     75  CG        38.6880   14.5670   14.9350 C.3   336  GLU336      0.1160
     76  CD        38.2110   14.9450   13.5500 C.2   336  GLU336      0.3649
     77  OE1       38.7160   15.9580   12.9810 O.co2 336  GLU336     -0.2457
     78  OE2       37.2840   14.2290   13.0610 O.co2 336  GLU336     -0.2457
     79  N         38.0230   21.4040    8.4720 N.3   341  LEU341     -0.1231
     80  CA        37.1030   20.3160    8.1510 C.3   341  LEU341      0.1693
     81  C         37.8490   19.0250    7.7570 C.2   341  LEU341      0.2592
     82  O         37.2420   17.9580    7.7500 O.2   341  LEU341     -0.2718
     83  CB        36.0560   20.7080    7.1000 C.3   341  LEU341      0.0284
     84  CG        34.8310   21.5010    7.5740 C.3   341  LEU341      0.0019
     85  CD1       33.9700   21.7960    6.3530 C.3   341  LEU341      0.0001
     86  CD2       34.0080   20.8060    8.6620 C.3   341  LEU341      0.0001
     87  N         39.1500   19.1020    7.4730 N.am  342  LEU342     -0.1966
     88  CA        39.9670   17.8920    7.2840 C.3   342  LEU342      0.1728
     89  C         40.1270   17.0820    8.5690 C.2   342  LEU342      0.2616
     90  O         40.1060   17.6110    9.6750 O.2   342  LEU342     -0.2715
     91  CB        41.3630   18.2240    6.7400 C.3   342  LEU342      0.0311
     92  CG        41.4310   18.7500    5.3100 C.3   342  LEU342      0.0022
     93  CD1       42.8650   19.1010    4.9980 C.3   342  LEU342      0.0001
     94  CD2       40.9070   17.7450    4.2940 C.3   342  LEU342      0.0001
     95  N         40.2070   15.7790    8.3660 N.am  343  GLY343     -0.1955
     96  CA        40.5400   14.7610    9.3390 C.3   343  GLY343      0.1869
     97  C         41.5640   13.9110    8.6010 C.2   343  GLY343      0.2309
     98  O         41.7290   14.0270    7.3800 O.2   343  GLY343     -0.2863
@<TRIPOS>BOND
     1    60    59    2
     2    32    31    1
     3    59    58    1
     4    43    42    2
     5    31    30    1
     6    61    58    1
     7    58    57    1
     8    14    13    1
     9    42    41    1
    10    42    44   am
    11    41    40    1
    12    36    35    2
    13    47    46    2
    14    30    29    1
    15    52    51    2
    16    45    44    1
    17    45    46    1
    18    45    48    1
    19    57    51   am
    20    46    49   am
    21    35    40   am
    22    35    34    1
    23    51    50    1
    24    13    12    1
    25    13    15    1
    26    38    37    1
    27    29    28    1
    28    12     9    1
    29    37    34    1
    30    37    39    1
    31    49    50    1
    32     6     5    1
    33    28    25    1
    34    50    53    1
    35    34    33    1
    36     2     5    1
    37     2     1    1
    38     2     3    1
    39     5     7    1
    40    33    26   am
    41     8     9    1
    42     8     3   am
    43    27    26    2
    44    26    25    1
    45    94    92    1
    46     9    10    1
    47    25    24    1
    48     3     4    2
    49    53    54    1
    50    11    10    2
    51    93    92    1
    52    10    16   am
    53    24    18   am
    54    92    91    1
    55    54    56    1
    56    54    55    1
    57    16    17    1
    58    18    19    2
    59    18    17    1
    60    85    84    1
    61    91    88    1
    62    17    20    1
    63    83    84    1
    64    83    80    1
    65    88    87    1
    66    88    89    1
    67    98    97    2
    68    87    81   am
    69    84    86    1
    70    82    81    2
    71    81    80    1
    72    80    79    1
    73    20    21    1
    74    95    89   am
    75    95    96    1
    76    89    90    2
    77    97    96    1
    78    22    21   ar
    79    21    23   ar
    80    69    67    1
    81    67    66    1
    82    66    63    1
    83    66    68    1
    84    63    62    1
    85    63    64    1
    86    77    76   ar
    87    78    76   ar
    88    64    65    2
    89    76    75    1
    90    71    72    1
    91    71    70    1
    92    71    74    1
    93    72    73    2
    94    75    74    1
