@<TRIPOS>MOLECULE
tmp/5uyzD00.pdb
 185 172 0 0 0
SMALL
GASTEIGER

@<TRIPOS>ATOM
      1  N         63.7100  -29.9710   44.1000 N.3    23  SER23      -0.1202
      2  CA        63.0280  -29.9740   42.8120 C.3    23  SER23       0.2020
      3  C         62.4570  -31.3370   42.4410 C.2    23  SER23       0.2619
      4  O         62.0330  -31.5280   41.2970 O.2    23  SER23      -0.2717
      5  CB        63.9810  -29.4950   41.7150 C.3    23  SER23       0.2103
      6  OG        64.3110  -28.1300   41.8990 O.3    23  SER23      -0.2182
      7  N         62.4360  -32.2840   43.3750 N.am   24  LEU24      -0.1965
      8  CA        61.8580  -33.5920   43.1150 C.3    24  LEU24       0.1728
      9  C         60.3460  -33.5600   43.3030 C.2    24  LEU24       0.2617
     10  O         59.8160  -32.8240   44.1390 O.2    24  LEU24      -0.2715
     11  CB        62.4840  -34.6440   44.0330 C.3    24  LEU24       0.0311
     12  CG        62.2770  -36.1160   43.6670 C.3    24  LEU24       0.0022
     13  CD1       63.0190  -36.4680   42.3960 C.3    24  LEU24       0.0001
     14  CD2       62.7500  -37.0050   44.8050 C.3    24  LEU24       0.0001
     15  N         59.6520  -34.3680   42.5050 N.am   25  GLY25      -0.1941
     16  CA        58.2160  -34.4750   42.5910 C.3    25  GLY25       0.1998
     17  C         57.5000  -33.3290   41.9080 C.2    25  GLY25       0.2480
     18  O         58.1180  -32.4490   41.2990 O.2    25  GLY25      -0.2729
     19  N         56.1680  -33.3190   42.0030 N.am   26  PRO26      -0.2726
     20  CA        55.4020  -32.2600   41.3300 C.3    26  PRO26       0.1402
     21  C         55.5320  -30.9050   41.9990 C.2    26  PRO26       0.2269
     22  O         55.3800  -29.8790   41.3250 O.2    26  PRO26      -0.2865
     23  CB        53.9600  -32.7810   41.3880 C.3    26  PRO26       0.0296
     24  CG        53.9350  -33.6500   42.6020 C.3    26  PRO26       0.0237
     25  CD        55.2960  -34.2870   42.6890 C.3    26  PRO26       0.0939
     26  N         61.1300  -27.3220   36.7380 N.3    44  ASN44      -0.1225
     27  CA        61.5230  -28.4990   37.5040 C.3    44  ASN44       0.1785
     28  C         62.3390  -29.4190   36.6060 C.2    44  ASN44       0.2597
     29  O         62.9810  -28.9490   35.6600 O.2    44  ASN44      -0.2718
     30  CB        60.2970  -29.2280   38.0500 C.3    44  ASN44       0.1169
     31  CG        59.3500  -28.3000   38.7740 C.2    44  ASN44       0.2627
     32  OD1       58.1690  -28.2220   38.4420 O.2    44  ASN44      -0.2716
     33  ND2       59.8670  -27.5790   39.7610 N.am   44  ASN44      -0.0877
     34  N         62.3110  -30.7230   36.8840 N.am   45  ASP45      -0.1974
     35  CA        62.9650  -31.7190   36.0410 C.3    45  ASP45       0.1709
     36  C         64.4480  -31.4120   35.8620 C.2    45  ASP45       0.2293
     37  O         64.8390  -30.7430   34.9000 O.2    45  ASP45      -0.2864
     38  CB        62.2640  -31.8050   34.6800 C.3    45  ASP45       0.1436
     39  CG        62.8930  -32.8330   33.7580 C.2    45  ASP45       0.3671
     40  OD1       62.7560  -34.0470   34.0250 O.co2  45  ASP45      -0.2456
     41  OD2       63.5140  -32.4230   32.7560 O.co2  45  ASP45      -0.2456
     42  N         63.3230  -41.2220   31.4490 N.3    76  ASP76      -0.1225
     43  CA        62.8360  -39.8540   31.6000 C.3    76  ASP76       0.1805
     44  C         63.2250  -39.2240   32.9330 C.2    76  ASP76       0.2598
     45  O         63.6260  -38.0550   32.9620 O.2    76  ASP76      -0.2718
     46  CB        61.3040  -39.8020   31.4190 C.3    76  ASP76       0.1424
     47  CG        60.5450  -40.2190   32.6690 C.2    76  ASP76       0.3668
     48  OD1       60.9500  -41.2150   33.3090 O.co2  76  ASP76      -0.2456
     49  OD2       59.5540  -39.5450   33.0210 O.co2  76  ASP76      -0.2456
     50  N         63.1280  -39.9660   34.0330 N.am   77  GLY77      -0.1942
     51  CA        63.3670  -39.4170   35.3530 C.3    77  GLY77       0.2014
     52  C         64.8360  -39.2360   35.6610 C.2    77  GLY77       0.2640
     53  O         65.5690  -40.2130   35.8370 O.2    77  GLY77      -0.2714
     54  N         65.2730  -37.9820   35.7350 N.am   78  THR78      -0.1936
     55  CA        66.6670  -37.6470   35.9850 C.3    78  THR78       0.2028
     56  C         66.9460  -37.3200   37.4450 C.2    78  THR78       0.2643
     57  O         67.9570  -37.7680   37.9940 O.2    78  THR78      -0.2714
     58  CB        67.0810  -36.4570   35.1120 C.3    78  THR78       0.1808
     59  OG1       66.9780  -36.8130   33.7270 O.3    78  THR78      -0.2208
     60  CG2       68.5090  -36.0310   35.4200 C.3    78  THR78       0.0379
     61  N         66.0560  -36.5600   38.0890 N.am   79  THR79      -0.1936
     62  CA        66.3280  -36.0740   39.4390 C.3    79  THR79       0.2028
     63  C         66.4660  -37.2220   40.4350 C.2    79  THR79       0.2642
     64  O         67.2790  -37.1500   41.3640 O.2    79  THR79      -0.2714
     65  CB        65.2230  -35.1170   39.8880 C.3    79  THR79       0.1808
     66  OG1       64.8910  -34.2190   38.8210 O.3    79  THR79      -0.2208
     67  CG2       65.6890  -34.3090   41.0870 C.3    79  THR79       0.0379
     68  N         65.6730  -38.2830   40.2670 N.am   80  GLY80      -0.1954
     69  CA        65.7670  -39.4150   41.1730 C.3    80  GLY80       0.1869
     70  C         67.1330  -40.0690   41.1610 C.2    80  GLY80       0.2309
     71  O         67.6010  -40.5610   42.1920 O.2    80  GLY80      -0.2863
     72  N         55.5410  -42.6010   42.6920 N.3   347  GLY347     -0.1210
     73  CA        55.3340  -41.9260   43.9610 C.3   347  GLY347      0.1956
     74  C         56.1360  -42.5070   45.1020 C.2   347  GLY347      0.2612
     75  O         55.6890  -42.4630   46.2530 O.2   347  GLY347     -0.2717
     76  N         57.3140  -43.0560   44.8140 N.am  348  GLY348     -0.1956
     77  CA        58.1420  -43.6690   45.8280 C.3   348  GLY348      0.1869
     78  C         57.6940  -45.0370   46.2900 C.2   348  GLY348      0.2309
     79  O         58.3890  -45.6490   47.1090 O.2   348  GLY348     -0.2863
     80  N         60.0580  -47.7240   45.2960 N.3   351  GLU351     -0.1245
     81  CA        61.2350  -47.5900   46.1460 C.3   351  GLU351      0.1567
     82  C         61.0050  -48.2330   47.5070 C.2   351  GLU351      0.2260
     83  O         61.9040  -48.8760   48.0600 O.2   351  GLU351     -0.2867
     84  CB        61.5980  -46.1140   46.3110 C.3   351  GLU351      0.0388
     85  CG        62.2890  -45.4880   45.1050 C.3   351  GLU351      0.1160
     86  CD        61.3350  -45.1560   43.9650 C.2   351  GLU351      0.3649
     87  OE1       60.1610  -45.5820   44.0070 O.co2 351  GLU351     -0.2457
     88  OE2       61.7670  -44.4620   43.0190 O.co2 351  GLU351     -0.2457
     89  N         63.5470  -41.3110   48.5620 N.3   383  ILE383     -0.1245
     90  CA        62.6210  -40.8050   47.5530 C.3   383  ILE383      0.1561
     91  C         61.2750  -40.5070   48.2130 C.2   383  ILE383      0.2260
     92  O         60.7480  -39.3990   48.0250 O.2   383  ILE383     -0.2867
     93  CB        62.4710  -41.7840   46.3740 C.3   383  ILE383      0.0252
     94  CG1       63.5260  -41.5250   45.2910 C.3   383  ILE383      0.0019
     95  CG2       61.0950  -41.6570   45.7440 C.3   383  ILE383      0.0019
     96  CD1       64.9470  -41.8390   45.7070 C.3   383  ILE383      0.0001
     97  N         59.9210  -36.6420   48.5780 N.3   387  LEU387     -0.1245
     98  CA        58.5860  -36.3790   48.0490 C.3   387  LEU387      0.1561
     99  C         57.6650  -35.8190   49.1240 C.2   387  LEU387      0.2260
    100  O         56.8590  -34.9200   48.8590 O.2   387  LEU387     -0.2867
    101  CB        57.9910  -37.6620   47.4640 C.3   387  LEU387      0.0270
    102  CG        57.9430  -37.8510   45.9460 C.3   387  LEU387      0.0019
    103  CD1       57.1050  -36.7670   45.2810 C.3   387  LEU387      0.0001
    104  CD2       59.3400  -37.9010   45.3500 C.3   387  LEU387      0.0001
    105  N         52.6880  -41.8280   49.4750 N.3   416  ILE416     -0.1231
    106  CA        52.9270  -40.4200   49.1520 C.3   416  ILE416      0.1692
    107  C         51.8830  -39.9410   48.1480 C.2   416  ILE416      0.2592
    108  O         51.9310  -40.3080   46.9700 O.2   416  ILE416     -0.2718
    109  CB        54.3610  -40.1980   48.6300 C.3   416  ILE416      0.0266
    110  CG1       55.3550  -41.0870   49.3860 C.3   416  ILE416      0.0019
    111  CG2       54.7670  -38.7290   48.7600 C.3   416  ILE416      0.0020
    112  CD1       55.4630  -40.7920   50.8680 C.3   416  ILE416      0.0001
    113  N         50.9610  -39.0830   48.6010 N.am  417  ASP417     -0.1960
    114  CA        49.7190  -38.8330   47.8640 C.3   417  ASP417      0.1840
    115  C         49.9520  -38.5290   46.3790 C.2   417  ASP417      0.2622
    116  O         49.4410  -39.2520   45.5180 O.2   417  ASP417     -0.2715
    117  CB        48.9050  -37.7210   48.5400 C.3   417  ASP417      0.1450
    118  CG        47.5110  -37.5850   47.9600 C.2   417  ASP417      0.3671
    119  OD1       46.7160  -38.5420   48.0800 O.co2 417  ASP417     -0.2456
    120  OD2       47.2160  -36.5230   47.3740 O.co2 417  ASP417     -0.2456
    121  N         50.7210  -37.4880   46.0320 N.am  418  CYS418     -0.1954
    122  CA        51.4390  -36.5590   46.9030 C.3   418  CYS418      0.1843
    123  C         50.7430  -35.2010   46.8700 C.2   418  CYS418      0.2625
    124  O         50.9660  -34.3500   47.7290 O.2   418  CYS418     -0.2714
    125  CB        52.9040  -36.4400   46.4620 C.3   418  CYS418      0.0997
    126  SG        53.8750  -35.1370   47.2660 S.3   418  CYS418     -0.0797
    127  N         49.8740  -35.0140   45.8740 N.am  419  LEU419     -0.1977
    128  CA        49.2410  -33.7290   45.5550 C.3   419  LEU419      0.1596
    129  C         48.3150  -33.2030   46.6510 C.2   419  LEU419      0.2287
    130  O         47.6010  -32.2400   46.3270 O.2   419  LEU419     -0.2864
    131  CB        48.4620  -33.8310   44.2460 C.3   419  LEU419      0.0297
    132  CG        49.2500  -33.8170   42.9280 C.3   419  LEU419      0.0022
    133  CD1       50.0490  -32.5290   42.7860 C.3   419  LEU419      0.0001
    134  CD2       50.1380  -35.0520   42.7440 C.3   419  LEU419      0.0001
    135  N         47.5610  -44.7420   45.1720 N.3   426  MET426     -0.1245
    136  CA        48.4650  -44.6350   44.0300 C.3   426  MET426      0.1570
    137  C         48.0330  -45.5250   42.8660 C.2   426  MET426      0.2261
    138  O         48.4920  -45.3330   41.7340 O.2   426  MET426     -0.2867
    139  CB        49.9010  -44.9610   44.4460 C.3   426  MET426      0.0387
    140  CG        50.5850  -43.8690   45.2630 C.3   426  MET426      0.0595
    141  SD        50.8100  -42.3360   44.3500 S.3   426  MET426     -0.1393
    142  CE        51.8950  -42.9320   43.0660 C.3   426  MET426      0.0692
    143  N         44.8460  -42.2240   40.3340 N.3   429  GLN429     -0.1245
    144  CA        45.7410  -41.1570   39.8790 C.3   429  GLN429      0.1566
    145  C         46.6010  -41.6380   38.7160 C.2   429  GLN429      0.2260
    146  O         47.1960  -40.8270   37.9960 O.2   429  GLN429     -0.2867
    147  CB        46.6340  -40.6340   41.0140 C.3   429  GLN429      0.0367
    148  CG        45.8960  -40.3200   42.3020 C.3   429  GLN429      0.0905
    149  CD        46.7890  -39.6880   43.3520 C.2   429  GLN429      0.2608
    150  OE1       47.4820  -38.7040   43.0930 O.2   429  GLN429     -0.2717
    151  NE2       46.7900  -40.2680   44.5470 N.am  429  GLN429     -0.0878
    152  N         49.6220  -43.2040   38.3720 N.3   431  VAL431     -0.1245
    153  CA        51.0050  -42.7490   38.3670 C.3   431  VAL431      0.1561
    154  C         51.8760  -43.9670   38.1010 C.2   431  VAL431      0.2260
    155  O         51.9420  -44.8900   38.9200 O.2   431  VAL431     -0.2867
    156  CB        51.3800  -42.0620   39.6840 C.3   431  VAL431      0.0252
    157  CG1       52.8220  -41.5790   39.6380 C.3   431  VAL431      0.0019
    158  CG2       50.4300  -40.9090   39.9710 C.3   431  VAL431      0.0019
    159  N         55.6950  -45.4670   36.4210 N.3   433  GLU433     -0.1245
    160  CA        57.0710  -45.2020   36.0210 C.3   433  GLU433      0.1567
    161  C         57.6190  -46.2600   35.0790 C.2   433  GLU433      0.2260
    162  O         58.8380  -46.3340   34.8900 O.2   433  GLU433     -0.2867
    163  CB        57.9740  -45.0890   37.2500 C.3   433  GLU433      0.0388
    164  CG        57.5370  -44.0420   38.2420 C.3   433  GLU433      0.1160
    165  CD        58.7180  -43.3800   38.9160 C.2   433  GLU433      0.3649
    166  OE1       59.6050  -42.8740   38.1960 O.co2 433  GLU433     -0.2457
    167  OE2       58.7610  -43.3630   40.1630 O.co2 433  GLU433     -0.2457
    168  N         62.7600  -47.2820   36.0040 N.3   438  LYS438     -0.1245
    169  CA        63.2480  -47.5240   37.3580 C.3   438  LYS438      0.1561
    170  C         64.4900  -48.4060   37.3530 C.2   438  LYS438      0.2260
    171  O         65.4630  -48.1280   38.0650 O.2   438  LYS438     -0.2867
    172  CB        62.1480  -48.1560   38.2080 C.3   438  LYS438      0.0271
    173  CG        61.0100  -47.2170   38.5390 C.3   438  LYS438      0.0035
    174  CD        61.5360  -45.9570   39.1990 C.3   438  LYS438      0.0206
    175  CE        60.7220  -45.6100   40.4290 C.3   438  LYS438      0.1093
    176  NZ        61.1520  -44.3240   41.0410 N.3   438  LYS438     -0.1314
    177  N         67.2630  -46.3730   36.3200 N.3   441  GLN441     -0.1245
    178  CA        67.5650  -45.4240   37.3880 C.3   441  GLN441      0.1566
    179  C         68.4660  -46.0530   38.4430 C.2   441  GLN441      0.2260
    180  O         69.5200  -45.5050   38.7850 O.2   441  GLN441     -0.2867
    181  CB        66.2720  -44.9200   38.0340 C.3   441  GLN441      0.0367
    182  CG        65.7290  -43.6230   37.4500 C.3   441  GLN441      0.0905
    183  CD        64.6500  -43.0000   38.3190 C.2   441  GLN441      0.2608
    184  OE1       64.0860  -43.6580   39.1950 O.2   441  GLN441     -0.2717
    185  NE2       64.3630  -41.7240   38.0870 N.am  441  GLN441     -0.0878
@<TRIPOS>BOND
     1    46    43    1
     2    46    47    1
     3    42    43    1
     4    43    44    1
     5    47    49   ar
     6    47    48   ar
     7    41    39   ar
     8    44    45    2
     9    44    50   am
    10    59    58    1
    11    39    40   ar
    12    39    38    1
    13    50    51    1
    14    38    35    1
    15   162   161    2
    16    37    36    2
    17   161   160    1
    18    58    60    1
    19    58    55    1
    20    51    52    1
    21    29    28    2
    22    52    54   am
    23    52    53    2
    24    54    55    1
    25    36    35    1
    26    55    56    1
    27   168   169    1
    28   160   159    1
    29   160   163    1
    30    35    34    1
    31   177   178    1
    32    28    34   am
    33    28    27    1
    34    26    27    1
    35   163   164    1
    36   170   169    1
    37   170   171    2
    38   169   172    1
    39   178   181    1
    40   178   179    1
    41    56    57    2
    42    56    61   am
    43   182   181    1
    44   182   183    1
    45    27    30    1
    46   146   145    2
    47    30    31    1
    48   185   183   am
    49    61    62    1
    50   154   153    1
    51   154   155    2
    52   166   165   ar
    53   172   173    1
    54   164   165    1
    55   183   184    2
    56   153   152    1
    57   153   156    1
    58    32    31    2
    59   179   180    2
    60   173   174    1
    61   145   144    1
    62    31    33   am
    63    66    65    1
    64   165   167   ar
    65   174   175    1
    66    62    65    1
    67    62    63    1
    68   157   156    1
    69   156   158    1
    70   144   143    1
    71   144   147    1
    72    65    67    1
    73    68    63   am
    74    68    69    1
    75   175   176    1
    76    63    64    2
    77   147   148    1
    78    70    69    1
    79    70    71    2
    80     4     3    2
    81    18    17    2
    82    22    21    2
    83    20    23    1
    84    20    21    1
    85    20    19    1
    86    23    24    1
    87     5     6    1
    88     5     2    1
    89   138   137    2
    90    17    19   am
    91    17    16    1
    92    19    25    1
    93   148   149    1
    94    13    12    1
    95     3     2    1
    96     3     7   am
    97    15    16    1
    98    15     9   am
    99    24    25    1
   100    72    73    1
   101   134   132    1
   102   133   132    1
   103     2     1    1
   104   137   136    1
   105   132   131    1
   106    88    86   ar
   107   142   141    1
   108   150   149    2
   109     8     9    1
   110     8     7    1
   111     8    11    1
   112     9    10    2
   113   149   151   am
   114    12    11    1
   115    12    14    1
   116    73    74    1
   117    86    87   ar
   118    86    85    1
   119   136   139    1
   120   136   135    1
   121   131   128    1
   122   141   140    1
   123   139   140    1
   124    76    74   am
   125    76    77    1
   126    74    75    2
   127    85    84    1
   128   103   102    1
   129    94    96    1
   130    94    93    1
   131    80    81    1
   132   104   102    1
   133   116   115    2
   134   128   127    1
   135   128   129    1
   136    95    93    1
   137    77    78    1
   138   127   123   am
   139   102   101    1
   140   121   115   am
   141   121   122    1
   142    81    84    1
   143    81    82    1
   144    78    79    2
   145   130   129    2
   146    93    90    1
   147   115   114    1
   148   125   122    1
   149   125   126    1
   150   123   122    1
   151   123   124    2
   152   108   107    2
   153   120   118   ar
   154   101    98    1
   155    82    83    2
   156    90    91    1
   157    90    89    1
   158   114   117    1
   159   114   113    1
   160   118   119   ar
   161   118   117    1
   162    92    91    2
   163    98    97    1
   164    98    99    1
   165   107   113   am
   166   107   106    1
   167   109   111    1
   168   109   106    1
   169   109   110    1
   170   100    99    2
   171   106   105    1
   172   110   112    1
