@<TRIPOS>MOLECULE
tmp/5uyzA00.pdb
 206 191 0 0 0
SMALL
GASTEIGER

@<TRIPOS>ATOM
      1  N         90.6110  -46.8890   76.3700 N.3    21  SER21      -0.1202
      2  CA        90.9580  -47.4530   77.6660 C.3    21  SER21       0.2020
      3  C         90.0020  -48.5540   78.1020 C.2    21  SER21       0.2619
      4  O         90.0650  -48.9930   79.2550 O.2    21  SER21      -0.2717
      5  CB        90.9960  -46.3490   78.7260 C.3    21  SER21       0.2103
      6  OG        91.9760  -45.3740   78.4140 O.3    21  SER21      -0.2182
      7  N         89.1220  -49.0070   77.2130 N.am   22  LEU22      -0.1965
      8  CA        88.1480  -50.0310   77.5590 C.3    22  LEU22       0.1728
      9  C         88.7540  -51.4210   77.4240 C.2    22  LEU22       0.2617
     10  O         89.4800  -51.7110   76.4690 O.2    22  LEU22      -0.2715
     11  CB        86.9100  -49.9050   76.6700 C.3    22  LEU22       0.0311
     12  CG        85.6960  -50.7480   77.0570 C.3    22  LEU22       0.0022
     13  CD1       85.0990  -50.2480   78.3570 C.3    22  LEU22       0.0001
     14  CD2       84.6570  -50.7010   75.9500 C.3    22  LEU22       0.0001
     15  N         88.4550  -52.2810   78.3950 N.am   23  GLY23      -0.1941
     16  CA        88.9330  -53.6420   78.3830 C.3    23  GLY23       0.1998
     17  C         90.2770  -53.7950   79.0640 C.2    23  GLY23       0.2480
     18  O         90.8570  -52.8320   79.5770 O.2    23  GLY23      -0.2729
     19  N         90.8020  -55.0240   79.0770 N.am   24  PRO24      -0.2726
     20  CA        92.1040  -55.2470   79.7220 C.3    24  PRO24       0.1402
     21  C         93.2630  -54.6360   78.9560 C.2    24  PRO24       0.2269
     22  O         94.2910  -54.3170   79.5640 O.2    24  PRO24      -0.2865
     23  CB        92.2060  -56.7760   79.7780 C.3    24  PRO24       0.0296
     24  CG        91.3890  -57.2390   78.6170 C.3    24  PRO24       0.0237
     25  CD        90.2520  -56.2580   78.4900 C.3    24  PRO24       0.0939
     26  N         94.1890  -47.4540   83.8560 N.3    42  ASN42      -0.1225
     27  CA        92.9640  -47.7220   83.1150 C.3    42  ASN42       0.1785
     28  C         91.7890  -47.4270   84.0370 C.2    42  ASN42       0.2597
     29  O         91.9280  -46.6280   84.9700 O.2    42  ASN42      -0.2718
     30  CB        92.9240  -49.1690   82.6250 C.3    42  ASN42       0.1169
     31  CG        94.2130  -49.5880   81.9500 C.2    42  ASN42       0.2627
     32  OD1       94.8340  -50.5760   82.3360 O.2    42  ASN42      -0.2716
     33  ND2       94.6260  -48.8330   80.9400 N.am   42  ASN42      -0.0877
     34  N         90.6450  -48.0750   83.8040 N.am   43  ASP43      -0.1974
     35  CA        89.4730  -47.9180   84.6620 C.3    43  ASP43       0.1709
     36  C         89.0790  -46.4500   84.7940 C.2    43  ASP43       0.2293
     37  O         89.5090  -45.7660   85.7290 O.2    43  ASP43      -0.2864
     38  CB        89.7340  -48.5350   86.0410 C.3    43  ASP43       0.1436
     39  CG        88.5180  -48.4870   86.9490 C.2    43  ASP43       0.3671
     40  OD1       87.5610  -49.2570   86.7180 O.co2  43  ASP43      -0.2456
     41  OD2       88.5270  -47.6830   87.9050 O.co2  43  ASP43      -0.2456
     42  N         81.0240  -51.1480   89.6890 N.3    74  ASP74      -0.1225
     43  CA        82.4330  -51.1160   89.2990 C.3    74  ASP74       0.1805
     44  C         82.6380  -50.4560   87.9430 C.2    74  ASP74       0.2598
     45  O         83.2800  -49.4040   87.8690 O.2    74  ASP74      -0.2718
     46  CB        83.0120  -52.5350   89.2970 C.3    74  ASP74       0.1424
     47  CG        84.3290  -52.6230   88.5510 C.2    74  ASP74       0.3668
     48  OD1       85.2430  -51.8280   88.8600 O.co2  74  ASP74      -0.2456
     49  OD2       84.4530  -53.4900   87.6620 O.co2  74  ASP74      -0.2456
     50  N         82.1160  -51.0430   86.8660 N.am   75  GLY75      -0.1942
     51  CA        82.3360  -50.5530   85.5190 C.3    75  GLY75       0.2014
     52  C         81.9060  -49.1200   85.2780 C.2    75  GLY75       0.2640
     53  O         80.7160  -48.7980   85.3400 O.2    75  GLY75      -0.2714
     54  N         82.8720  -48.2510   84.9920 N.am   76  THR76      -0.1936
     55  CA        82.6130  -46.8450   84.7180 C.3    76  THR76       0.2028
     56  C         82.8900  -46.4720   83.2700 C.2    76  THR76       0.2643
     57  O         82.0610  -45.8160   82.6310 O.2    76  THR76      -0.2714
     58  CB        83.4620  -45.9620   85.6420 C.3    76  THR76       0.1808
     59  OG1       83.1390  -46.2390   87.0110 O.3    76  THR76      -0.2208
     60  CG2       83.2090  -44.4890   85.3490 C.3    76  THR76       0.0379
     61  N         84.0530  -46.8650   82.7440 N.am   77  THR77      -0.1936
     62  CA        84.4000  -46.5620   81.3590 C.3    77  THR77       0.2028
     63  C         83.3000  -46.9920   80.3950 C.2    77  THR77       0.2642
     64  O         82.9710  -46.2660   79.4490 O.2    77  THR77      -0.2714
     65  CB        85.7170  -47.2500   80.9870 C.3    77  THR77       0.1808
     66  OG1       86.6230  -47.2140   82.0990 O.3    77  THR77      -0.2208
     67  CG2       86.3550  -46.5760   79.7830 C.3    77  THR77       0.0379
     68  N         82.7200  -48.1730   80.6200 N.am   78  GLY78      -0.1954
     69  CA        81.6630  -48.6450   79.7410 C.3    78  GLY78       0.1869
     70  C         80.4670  -47.7140   79.7060 C.2    78  GLY78       0.2309
     71  O         79.8110  -47.5690   78.6710 O.2    78  GLY78      -0.2863
     72  N         88.7680  -62.4730   87.1850 N.3   138  THR138     -0.1218
     73  CA        88.3690  -61.5560   86.1240 C.3   138  THR138      0.1862
     74  C         88.8040  -60.1240   86.4060 C.2   138  THR138      0.2287
     75  O         89.0920  -59.3740   85.4680 O.2   138  THR138     -0.2866
     76  CB        86.8540  -61.5810   85.9560 C.3   138  THR138      0.1770
     77  OG1       86.2550  -60.7240   86.9350 O.3   138  THR138     -0.2211
     78  CG2       86.3530  -62.9720   86.2180 C.3   138  THR138      0.0375
     79  N         93.6440  -50.3710   93.0520 N.3   357  ARG357     -0.1245
     80  CA        92.4410  -50.3770   92.2250 C.3   357  ARG357      0.1563
     81  C         92.0200  -51.7990   91.8720 C.2   357  ARG357      0.2260
     82  O         90.8240  -52.1170   91.8740 O.2   357  ARG357     -0.2867
     83  CB        92.6570  -49.5420   90.9570 C.3   357  ARG357      0.0307
     84  CG        93.5970  -50.1490   89.9140 C.3   357  ARG357      0.0489
     85  CD        93.6090  -49.3310   88.6270 C.3   357  ARG357      0.2205
     86  NE        94.3800  -49.9740   87.5630 N.pl3 357  ARG357     -0.0865
     87  CZ        93.8550  -50.7490   86.6180 C.cat 357  ARG357      0.5346
     88  NH1       94.6330  -51.2910   85.6920 N.pl3 357  ARG357      0.1354
     89  NH2       92.5500  -50.9930   86.6040 N.pl3 357  ARG357      0.1354
     90  N         88.3180  -53.3940   92.8520 N.3   361  ASP361     -0.1239
     91  CA        87.4330  -54.1570   91.9800 C.3   361  ASP361      0.1674
     92  C         86.9520  -55.4330   92.6580 C.2   361  ASP361      0.2266
     93  O         85.7940  -55.8350   92.4970 O.2   361  ASP361     -0.2867
     94  CB        88.1550  -54.4930   90.6750 C.3   361  ASP361      0.1410
     95  CG        88.2520  -53.3040   89.7360 C.2   361  ASP361      0.3668
     96  OD1       87.7330  -52.2240   90.0860 O.co2 361  ASP361     -0.2456
     97  OD2       88.8460  -53.4520   88.6460 O.co2 361  ASP361     -0.2456
     98  N         81.1250  -61.5700   80.3610 N.3   378  GLY378     -0.1210
     99  CA        81.6050  -60.3080   79.8300 C.3   378  GLY378      0.1956
    100  C         82.1970  -60.4170   78.4420 C.2   378  GLY378      0.2612
    101  O         81.7670  -61.2280   77.6130 O.2   378  GLY378     -0.2717
    102  N         83.2020  -59.5840   78.1840 N.am  379  GLY379     -0.1942
    103  CA        83.7790  -59.5110   76.8560 C.3   379  GLY379      0.2014
    104  C         82.8420  -58.9800   75.7990 C.2   379  GLY379      0.2639
    105  O         83.0660  -59.2170   74.6090 O.2   379  GLY379     -0.2714
    106  N         81.7950  -58.2620   76.1990 N.am  380  GLY380     -0.1954
    107  CA        80.7960  -57.7810   75.2720 C.3   380  GLY380      0.1869
    108  C         79.7120  -58.7760   74.9250 C.2   380  GLY380      0.2309
    109  O         78.8030  -58.4290   74.1610 O.2   380  GLY380     -0.2863
    110  N         80.5800  -51.7750   72.5820 N.3   415  ILE415     -0.1245
    111  CA        81.4400  -52.4320   73.5630 C.3   415  ILE415      0.1561
    112  C         82.2170  -53.5840   72.9390 C.2   415  ILE415      0.2260
    113  O         83.4500  -53.6210   73.0950 O.2   415  ILE415     -0.2867
    114  CB        80.6100  -52.8640   74.7950 C.3   415  ILE415      0.0252
    115  CG1       80.4540  -51.7150   75.7940 C.3   415  ILE415      0.0019
    116  CG2       81.2550  -54.0580   75.4860 C.3   415  ILE415      0.0019
    117  CD1       79.4280  -50.6670   75.3960 C.3   415  ILE415      0.0001
    118  N         86.1970  -53.1930   72.4430 N.3   419  LEU419     -0.1245
    119  CA        86.9780  -54.3270   72.9280 C.3   419  LEU419      0.1561
    120  C         87.7740  -54.9780   71.8070 C.2   419  LEU419      0.2260
    121  O         88.8710  -55.4960   72.0410 O.2   419  LEU419     -0.2867
    122  CB        86.0600  -55.3680   73.5780 C.3   419  LEU419      0.0270
    123  CG        85.9540  -55.4670   75.1040 C.3   419  LEU419      0.0019
    124  CD1       87.2960  -55.8080   75.7360 C.3   419  LEU419      0.0001
    125  CD2       85.3830  -54.1940   75.7030 C.3   419  LEU419      0.0001
    126  N         84.7380  -61.9410   71.5720 N.3   448  ILE448     -0.1231
    127  CA        85.9160  -61.1260   71.8760 C.3   448  ILE448      0.1692
    128  C         86.7740  -61.8370   72.9180 C.2   448  ILE448      0.2592
    129  O         86.4370  -61.8480   74.1070 O.2   448  ILE448     -0.2718
    130  CB        85.5220  -59.7070   72.3380 C.3   448  ILE448      0.0266
    131  CG1       84.2780  -59.2070   71.5920 C.3   448  ILE448      0.0019
    132  CG2       86.6830  -58.7260   72.1420 C.3   448  ILE448      0.0020
    133  CD1       84.4320  -59.1310   70.0840 C.3   448  ILE448      0.0001
    134  N         87.9130  -62.3910   72.4810 N.am  449  ASP449     -0.1960
    135  CA        88.6610  -63.3840   73.2550 C.3   449  ASP449      0.1840
    136  C         88.7460  -63.1000   74.7610 C.2   449  ASP449      0.2622
    137  O         88.3410  -63.9470   75.5640 O.2   449  ASP449     -0.2715
    138  CB        90.0670  -63.5710   72.6630 C.3   449  ASP449      0.1450
    139  CG        90.7790  -64.7870   73.2250 C.2   449  ASP449      0.3671
    140  OD1       90.2260  -65.9020   73.1250 O.co2 449  ASP449     -0.2456
    141  OD2       91.8850  -64.6230   73.7790 O.co2 449  ASP449     -0.2456
    142  N         89.2480  -61.9370   75.1940 N.am  450  CYS450     -0.1954
    143  CA        89.7530  -60.8250   74.3940 C.3   450  CYS450      0.1843
    144  C         91.2770  -60.8300   74.4800 C.2   450  CYS450      0.2625
    145  O         91.9580  -60.0820   73.7830 O.2   450  CYS450     -0.2714
    146  CB        89.1610  -59.4960   74.8870 C.3   450  CYS450      0.0997
    147  SG        89.7810  -57.9890   74.0900 S.3   450  CYS450     -0.0797
    148  N         91.8090  -61.7020   75.3400 N.am  451  LEU451     -0.1977
    149  CA        93.2480  -61.7710   75.6150 C.3   451  LEU451      0.1596
    150  C         94.0580  -62.3630   74.4750 C.2   451  LEU451      0.2287
    151  O         95.2540  -62.6010   74.7110 O.2   451  LEU451     -0.2864
    152  CB        93.5100  -62.5730   76.8910 C.3   451  LEU451      0.0297
    153  CG        93.3080  -61.9050   78.2560 C.3   451  LEU451      0.0022
    154  CD1       94.2920  -60.7610   78.4300 C.3   451  LEU451      0.0001
    155  CD2       91.8790  -61.4290   78.4790 C.3   451  LEU451      0.0001
    156  N         84.3770  -67.9500   75.8930 N.3   458  MET458     -0.1245
    157  CA        84.0870  -67.0590   77.0130 C.3   458  MET458      0.1570
    158  C         83.3230  -67.7480   78.1440 C.2   458  MET458      0.2261
    159  O         83.2590  -67.2140   79.2570 O.2   458  MET458     -0.2867
    160  CB        83.3240  -65.8250   76.5290 C.3   458  MET458      0.0387
    161  CG        84.1680  -64.8430   75.7220 C.3   458  MET458      0.0595
    162  SD        85.4260  -64.0350   76.7260 S.3   458  MET458     -0.1393
    163  CE        84.3870  -63.1220   77.8550 C.3   458  MET458      0.0692
    164  N         87.5540  -69.1130   80.5890 N.3   461  GLN461     -0.1245
    165  CA        88.1070  -67.8130   80.9790 C.3   461  GLN461      0.1566
    166  C         87.2580  -67.1770   82.0730 C.2   461  GLN461      0.2260
    167  O         87.6860  -66.2110   82.7150 O.2   461  GLN461     -0.2867
    168  CB        88.2190  -66.8490   79.7910 C.3   461  GLN461      0.0367
    169  CG        89.0300  -67.3640   78.6200 C.3   461  GLN461      0.0905
    170  CD        89.4940  -66.2470   77.7030 C.2   461  GLN461      0.2608
    171  OE1       89.9050  -65.1800   78.1590 O.2   461  GLN461     -0.2717
    172  NE2       89.4190  -66.4860   76.3990 N.am  461  GLN461     -0.0878
    173  N         84.7490  -65.0230   82.5590 N.3   463  VAL463     -0.1245
    174  CA        84.6680  -63.5740   82.6980 C.3   463  VAL463      0.1561
    175  C         83.2460  -63.2310   83.1220 C.2   463  VAL463      0.2260
    176  O         82.3020  -63.3850   82.3430 O.2   463  VAL463     -0.2867
    177  CB        85.0510  -62.8610   81.3980 C.3   463  VAL463      0.0252
    178  CG1       84.9520  -61.3520   81.5730 C.3   463  VAL463      0.0019
    179  CG2       86.4530  -63.2570   80.9650 C.3   463  VAL463      0.0019
    180  N         80.5390  -60.3940   84.9690 N.3   465  GLU465     -0.1245
    181  CA        80.2920  -58.9880   85.2720 C.3   465  GLU465      0.1567
    182  C         79.1650  -58.8060   86.2790 C.2   465  GLU465      0.2260
    183  O         78.6350  -57.6980   86.4120 O.2   465  GLU465     -0.2867
    184  CB        79.9700  -58.2040   84.0000 C.3   465  GLU465      0.0388
    185  CG        81.0520  -58.2230   82.9520 C.3   465  GLU465      0.1160
    186  CD        81.0610  -56.9440   82.1420 C.2   465  GLU465      0.3649
    187  OE1       81.1650  -55.8590   82.7530 O.co2 465  GLU465     -0.2457
    188  OE2       80.9570  -57.0200   80.9000 O.co2 465  GLU465     -0.2457
    189  N         75.7730  -54.6790   85.2610 N.3   470  LYS470     -0.1245
    190  CA        75.2390  -54.4250   83.9280 C.3   470  LYS470      0.1561
    191  C         73.9290  -53.6500   83.9840 C.2   470  LYS470      0.2260
    192  O         73.7400  -52.6840   83.2350 O.2   470  LYS470     -0.2867
    193  CB        75.0470  -55.7440   83.1800 C.3   470  LYS470      0.0271
    194  CG        76.3320  -56.3540   82.6680 C.3   470  LYS470      0.0035
    195  CD        77.1160  -55.3340   81.8630 C.3   470  LYS470      0.0206
    196  CE        78.0630  -56.0180   80.9000 C.3   470  LYS470      0.1093
    197  NZ        79.0320  -55.0670   80.2930 N.3   470  LYS470     -0.1314
    198  N         74.7770  -50.2660   84.7380 N.3   473  GLN473     -0.1245
    199  CA        75.4860  -49.6580   83.6150 C.3   473  GLN473      0.1566
    200  C         74.5070  -49.1490   82.5640 C.2   473  GLN473      0.2260
    201  O         74.6150  -48.0110   82.0960 O.2   473  GLN473     -0.2867
    202  CB        76.4610  -50.6590   82.9920 C.3   473  GLN473      0.0367
    203  CG        77.8840  -50.5760   83.5260 C.3   473  GLN473      0.0905
    204  CD        78.8500  -51.4450   82.7410 C.2   473  GLN473      0.2608
    205  OE1       78.4400  -52.2440   81.9010 O.2   473  GLN473     -0.2717
    206  NE2       80.1410  -51.2920   83.0150 N.am  473  GLN473     -0.0878
@<TRIPOS>BOND
     1   133   131    1
     2   126   127    1
     3   131   130    1
     4   120   121    2
     5   120   119    1
     6   127   130    1
     7   127   128    1
     8   132   130    1
     9   118   119    1
    10   134   128   am
    11   134   135    1
    12   110   111    1
    13   138   139    1
    14   138   135    1
    15   128   129    2
    16   119   122    1
    17   112   113    2
    18   112   111    1
    19   140   139   ar
    20   139   141   ar
    21   135   136    1
    22   111   114    1
    23   122   123    1
    24   145   144    2
    25   147   146    1
    26   109   108    2
    27   143   144    1
    28   143   146    1
    29   143   142    1
    30   150   151    2
    31   150   149    1
    32   144   148   am
    33   105   104    2
    34   136   142   am
    35   136   137    2
    36   114   116    1
    37   114   115    1
    38   108   107    1
    39   123   125    1
    40   123   124    1
    41   107   106    1
    42   148   149    1
    43   117   115    1
    44   149   152    1
    45   161   160    1
    46   161   162    1
    47   104   106   am
    48   104   103    1
    49   156   157    1
    50    14    12    1
    51     1     2    1
    52   172   170   am
    53    10     9    2
    54   160   157    1
    55    11    12    1
    56    11     8    1
    57   162   163    1
    58   103   102    1
    59   152   153    1
    60   157   158    1
    61    12    13    1
    62     7     8    1
    63     7     3   am
    64     9     8    1
    65     9    15   am
    66   101   100    2
    67     2     3    1
    68     2     5    1
    69   170   171    2
    70   170   169    1
    71     3     4    2
    72   158   159    2
    73   102   100   am
    74   153   154    1
    75   153   155    1
    76    16    15    1
    77    16    17    1
    78     6     5    1
    79   100    99    1
    80    25    24    1
    81    25    19    1
    82    24    23    1
    83   169   168    1
    84    71    70    2
    85    21    22    2
    86    21    20    1
    87    17    19   am
    88    17    18    2
    89    19    20    1
    90    64    63    2
    91    70    69    1
    92    20    23    1
    93    69    68    1
    94    67    65    1
    95   168   165    1
    96    99    98    1
    97   197   196    1
    98    63    68   am
    99    63    62    1
   100   164   165    1
   101   196   195    1
   102   188   186   ar
   103    33    31   am
   104   179   177    1
   105   165   166    1
   106    65    62    1
   107    65    66    1
   108    62    61    1
   109   177   178    1
   110   177   174    1
   111   195   194    1
   112   205   204    2
   113    31    32    2
   114    31    30    1
   115   166   167    2
   116   201   200    2
   117   186   187   ar
   118   186   185    1
   119   176   175    2
   120   173   174    1
   121   200   199    1
   122    30    27    1
   123    57    56    2
   124   194   193    1
   125   174   175    1
   126   204   206   am
   127   204   203    1
   128    61    56   am
   129   185   184    1
   130   202   203    1
   131   202   199    1
   132    27    26    1
   133    27    28    1
   134   193   190    1
   135   192   191    2
   136    56    55    1
   137   199   198    1
   138    34    28   am
   139    34    35    1
   140   190   191    1
   141   190   189    1
   142   184   181    1
   143    28    29    2
   144    35    36    1
   145    35    38    1
   146    55    54    1
   147    55    58    1
   148    36    37    2
   149   180   181    1
   150    54    52   am
   151   181   182    1
   152    52    53    2
   153    52    51    1
   154    60    58    1
   155    75    74    2
   156    51    50    1
   157    58    59    1
   158    88    87    1
   159    76    73    1
   160    76    78    1
   161    76    77    1
   162    38    39    1
   163    73    74    1
   164    73    72    1
   165   182   183    2
   166    89    87    1
   167    87    86    2
   168    40    39   ar
   169    50    44   am
   170    39    41   ar
   171    86    85    1
   172    49    47   ar
   173    45    44    2
   174    44    43    1
   175    47    48   ar
   176    47    46    1
   177    85    84    1
   178    97    95   ar
   179    46    43    1
   180    43    42    1
   181    95    96   ar
   182    95    94    1
   183    84    83    1
   184    94    91    1
   185    83    80    1
   186    81    82    2
   187    81    80    1
   188    91    92    1
   189    91    90    1
   190    80    79    1
   191    93    92    2
