@<TRIPOS>MOLECULE
tmp/5uzcB00.pdb
 182 170 0 0 0
SMALL
GASTEIGER

@<TRIPOS>ATOM
      1  N         19.9100   18.9020   28.9020 N.3    50  ALA50      -0.1231
      2  CA        20.1540   17.5370   29.3420 C.3    50  ALA50       0.1694
      3  C         21.6230   17.1330   29.1800 C.2    50  ALA50       0.2593
      4  O         22.3300   17.5950   28.2740 O.2    50  ALA50      -0.2718
      5  CB        19.2690   16.5730   28.5290 C.3    50  ALA50       0.0304
      6  N         22.0850   16.2520   30.0740 N.am   51  SER51      -0.1938
      7  CA        23.4700   15.7570   30.0440 C.3    51  SER51       0.2055
      8  C         23.5590   14.6010   29.0540 C.2    51  SER51       0.2642
      9  O         23.6170   13.4180   29.4120 O.2    51  SER51      -0.2714
     10  CB        23.9240   15.3250   31.4320 C.3    51  SER51       0.2130
     11  OG        23.1220   14.2520   31.9020 O.3    51  SER51      -0.2179
     12  N         23.5650   14.9500   27.7720 N.am   52  MET52      -0.1976
     13  CA        23.4990   13.9370   26.7230 C.3    52  MET52       0.1605
     14  C         24.4820   14.2770   25.6200 C.2    52  MET52       0.2287
     15  O         24.7250   15.4510   25.3230 O.2    52  MET52      -0.2864
     16  CB        22.0950   13.8350   26.1230 C.3    52  MET52       0.0413
     17  CG        21.0340   13.5660   27.1590 C.3    52  MET52       0.0598
     18  SD        19.3150   13.6060   26.5310 S.3    52  MET52      -0.1393
     19  CE        19.2980   12.1640   25.4460 C.3    52  MET52       0.0692
     20  N         24.1460   11.0260   37.9780 N.3   125  ASP125     -0.1239
     21  CA        23.2030   10.6250   36.9560 C.3   125  ASP125      0.1674
     22  C         23.1040    9.1420   36.6530 C.2   125  ASP125      0.2266
     23  O         24.0390    8.5580   36.1500 O.2   125  ASP125     -0.2867
     24  CB        23.7580   11.2930   35.7010 C.3   125  ASP125      0.1410
     25  CG        22.7430   11.5090   34.6460 C.2   125  ASP125      0.3668
     26  OD1       23.0640   12.2280   33.6850 O.co2 125  ASP125     -0.2456
     27  OD2       21.6410   10.9680   34.7660 O.co2 125  ASP125     -0.2456
     28  N         18.0260    9.4130   38.4310 N.3   154  ASN154     -0.1240
     29  CA        16.6590    9.9430   38.3770 C.3   154  ASN154      0.1653
     30  C         15.7080    9.0890   39.2290 C.2   154  ASN154      0.2266
     31  O         15.9730    7.8890   39.5020 O.2   154  ASN154     -0.2867
     32  CB        16.1620    9.9810   36.9360 C.3   154  ASN154      0.1155
     33  CG        16.5250   11.2710   36.2290 C.2   154  ASN154      0.2627
     34  OD1       17.5290   11.9200   36.5760 O.2   154  ASN154     -0.2716
     35  ND2       15.7140   11.6590   35.2320 N.am  154  ASN154     -0.0877
     36  N         16.4520   14.7900   40.9380 N.3   173  LYS173     -0.1245
     37  CA        15.9980   14.8920   39.5540 C.3   173  LYS173      0.1561
     38  C         14.9580   13.8070   39.2840 C.2   173  LYS173      0.2260
     39  O         15.2260   12.6180   39.4970 O.2   173  LYS173     -0.2867
     40  CB        17.1790   14.7800   38.5840 C.3   173  LYS173      0.0271
     41  CG        16.7820   15.0890   37.1360 C.3   173  LYS173      0.0035
     42  CD        17.8020   16.0360   36.4190 C.3   173  LYS173      0.0206
     43  CE        19.0990   15.2790   36.1470 C.3   173  LYS173      0.1093
     44  NZ        18.8280   14.0270   35.2930 N.3   173  LYS173     -0.1314
     45  N         12.2780   11.6980   36.9480 N.3   175  GLY175     -0.1225
     46  CA        11.9520   11.2720   35.5950 C.3   175  GLY175      0.1811
     47  C         12.4160    9.8660   35.2900 C.2   175  GLY175      0.2280
     48  O         13.6190    9.6520   35.1200 O.2   175  GLY175     -0.2866
     49  N         11.4010    7.1940   32.5170 N.3   177  GLY177     -0.1225
     50  CA        10.6140    6.8570   31.3460 C.3   177  GLY177      0.1811
     51  C          9.9080    7.9290   30.5100 C.2   177  GLY177      0.2280
     52  O          9.3140    7.5830   29.4890 O.2   177  GLY177     -0.2866
     53  N         11.3210   10.5010   28.7220 N.3   179  GLY179     -0.1210
     54  CA        12.0870   11.1750   27.6830 C.3   179  GLY179      0.1956
     55  C         11.6450   10.7620   26.2890 C.2   179  GLY179      0.2613
     56  O         11.1540    9.6420   26.0520 O.2   179  GLY179     -0.2717
     57  N         11.7680   11.7070   25.3550 N.am  180  SER180     -0.1938
     58  CA        11.3230   11.4530   23.9810 C.3   180  SER180      0.2055
     59  C         12.0450   10.2640   23.3410 C.2   180  SER180      0.2643
     60  O         11.4610    9.5660   22.5010 O.2   180  SER180     -0.2714
     61  CB        11.5370   12.7050   23.1270 C.3   180  SER180      0.2130
     62  OG        12.9300   12.9650   23.0390 O.3   180  SER180     -0.2179
     63  N         13.3000   10.0160   23.7160 N.am  181  ILE181     -0.1963
     64  CA        14.0950    8.9360   23.1370 C.3   181  ILE181      0.1727
     65  C         14.1560    7.7020   24.0430 C.2   181  ILE181      0.2616
     66  O         14.9920    6.8200   23.8270 O.2   181  ILE181     -0.2715
     67  CB        15.5260    9.4340   22.8070 C.3   181  ILE181      0.0290
     68  CG1       16.1320   10.1670   24.0140 C.3   181  ILE181      0.0022
     69  CG2       15.4600   10.4190   21.6600 C.3   181  ILE181      0.0023
     70  CD1       16.1640    9.3830   25.3400 C.3   181  ILE181      0.0001
     71  N         13.3180    7.6380   25.0620 N.am  182  CYS182     -0.1968
     72  CA        13.4400    6.6430   26.1160 C.3   182  CYS182      0.1712
     73  C         12.5100    5.4460   25.8950 C.2   182  CYS182      0.2296
     74  O         11.3360    5.6110   25.5320 O.2   182  CYS182     -0.2864
     75  CB        13.1160    7.3000   27.4560 C.3   182  CYS182      0.0983
     76  SG        12.8290    6.1270   28.8100 S.3   182  CYS182     -0.0798
     77  N         12.7070    2.8380   28.4860 N.3   184  THR184     -0.1218
     78  CA        12.6560    2.2030   29.8030 C.3   184  THR184      0.1862
     79  C         11.2810    1.5990   30.1170 C.2   184  THR184      0.2287
     80  O         11.1710    0.4280   30.5010 O.2   184  THR184     -0.2866
     81  CB        13.0460    3.2420   30.8650 C.3   184  THR184      0.1770
     82  OG1       14.4060    3.6090   30.6600 O.3   184  THR184     -0.2211
     83  CG2       12.9300    2.6680   32.3000 C.3   184  THR184      0.0375
     84  N         12.5530   16.3380   34.8080 N.3   215  ASP215     -0.1225
     85  CA        13.4950   15.9810   33.7470 C.3   215  ASP215      0.1805
     86  C         12.7980   15.0810   32.7320 C.2   215  ASP215      0.2598
     87  O         12.5740   13.9060   33.0050 O.2   215  ASP215     -0.2718
     88  CB        14.7240   15.2970   34.3450 C.3   215  ASP215      0.1424
     89  CG        15.7050   14.7900   33.2780 C.2   215  ASP215      0.3668
     90  OD1       15.6440   15.2540   32.1020 O.co2 215  ASP215     -0.2456
     91  OD2       16.5440   13.9160   33.6360 O.co2 215  ASP215     -0.2456
     92  N         12.5080   15.6080   31.5480 N.am  216  GLY216     -0.1942
     93  CA        12.1270   14.7170   30.4690 C.3   216  GLY216      0.2014
     94  C         10.6460   14.8150   30.1480 C.2   216  GLY216      0.2639
     95  O          9.8180   15.1430   31.0060 O.2   216  GLY216     -0.2714
     96  N         10.3040   14.5230   28.8820 N.am  217  GLY217     -0.1939
     97  CA         8.9240   14.4770   28.4250 C.3   217  GLY217      0.2014
     98  C          8.3120   15.8190   28.0660 C.2   217  GLY217      0.2638
     99  O          7.1040   15.8750   27.7980 O.2   217  GLY217     -0.2714
    100  N          9.1050   16.8970   28.0510 N.am  218  LEU218     -0.1977
    101  CA         8.5800   18.2360   27.8010 C.3   218  LEU218      0.1596
    102  C          8.6450   18.5300   26.3030 C.2   218  LEU218      0.2287
    103  O          9.6860   18.3290   25.6700 O.2   218  LEU218     -0.2864
    104  CB         9.3700   19.2680   28.6040 C.3   218  LEU218      0.0297
    105  CG         9.3440   19.0830   30.1270 C.3   218  LEU218      0.0022
    106  CD1       10.4720   19.8680   30.8300 C.3   218  LEU218      0.0001
    107  CD2        7.9860   19.5310   30.6760 C.3   218  LEU218      0.0001
    108  N         14.2800   20.1880   32.8480 N.3   236  MET236     -0.1230
    109  CA        15.4210   19.7350   32.0600 C.3   236  MET236      0.1702
    110  C         14.9080   19.1620   30.7500 C.2   236  MET236      0.2592
    111  O         13.9460   18.3840   30.7350 O.2   236  MET236     -0.2718
    112  CB        16.2530   18.6960   32.8030 C.3   236  MET236      0.0401
    113  CG        17.4340   18.1910   31.9630 C.3   236  MET236      0.0596
    114  SD        18.5240   17.0510   32.8410 S.3   236  MET236     -0.1393
    115  CE        19.5600   18.2320   33.6970 C.3   236  MET236      0.0692
    116  N         15.5340   19.5630   29.6640 N.am  237  MET237     -0.1965
    117  CA        15.0660   19.2270   28.3360 C.3   237  MET237      0.1736
    118  C         16.2120   18.7000   27.4950 C.2   237  MET237      0.2617
    119  O         17.3030   19.2790   27.4990 O.2   237  MET237     -0.2715
    120  CB        14.4800   20.4510   27.6730 C.3   237  MET237      0.0427
    121  CG        13.1190   20.8170   28.2600 C.3   237  MET237      0.0599
    122  SD        12.8140   22.5300   27.9150 S.3   237  MET237     -0.1393
    123  CE        13.7530   23.2680   29.2780 C.3   237  MET237      0.0692
    124  N         15.9460   17.6110   26.7640 N.am  238  GLY238     -0.1940
    125  CA        16.8340   17.1270   25.7280 C.3   238  GLY238      0.2014
    126  C         16.3010   17.4920   24.3570 C.2   238  GLY238      0.2640
    127  O         16.8970   18.3150   23.6590 O.2   238  GLY238     -0.2714
    128  N         15.1460   16.9140   23.9840 N.am  239  SER239     -0.1935
    129  CA        14.6010   17.0800   22.6350 C.3   239  SER239      0.2055
    130  C         14.4500   18.5470   22.2440 C.2   239  SER239      0.2642
    131  O         14.7570   18.9220   21.1060 O.2   239  SER239     -0.2714
    132  CB        13.2430   16.3800   22.5070 C.3   239  SER239      0.2130
    133  OG        12.6930   16.5800   21.2000 O.3   239  SER239     -0.2179
    134  N         13.9910   19.3930   23.1720 N.am  240  ILE240     -0.1977
    135  CA        13.7220   20.7910   22.8150 C.3   240  ILE240      0.1596
    136  C         15.0070   21.5320   22.4290 C.2   240  ILE240      0.2287
    137  O         14.9520   22.4830   21.6350 O.2   240  ILE240     -0.2864
    138  CB        12.9500   21.4670   23.9700 C.3   240  ILE240      0.0276
    139  CG1       11.4560   21.0960   23.8790 C.3   240  ILE240      0.0022
    140  CG2       13.0950   23.0090   23.9960 C.3   240  ILE240      0.0022
    141  CD1       10.6150   21.5690   25.0920 C.3   240  ILE240      0.0001
    142  N         19.6700   13.0960   17.4680 N.3   262  TYR262     -0.1241
    143  CA        19.3350   13.0790   18.8810 C.3   262  TYR262      0.1605
    144  C         19.1630   11.6220   19.2810 C.2   262  TYR262      0.2264
    145  O         18.5600   10.8580   18.5250 O.2   262  TYR262     -0.2867
    146  CB        18.0510   13.8530   19.1450 C.3   262  TYR262      0.0534
    147  CG        17.6600   13.9000   20.5940 C.ar  262  TYR262     -0.0201
    148  CD1       18.5950   14.1940   21.5750 C.ar  262  TYR262     -0.0009
    149  CD2       16.3190   13.7090   20.9770 C.ar  262  TYR262     -0.0009
    150  CE1       18.2250   14.2750   22.9260 C.ar  262  TYR262      0.0417
    151  CE2       15.9500   13.7370   22.3280 C.ar  262  TYR262      0.0417
    152  CZ        16.9010   14.0160   23.2900 C.ar  262  TYR262      0.1957
    153  OH        16.5250   14.0660   24.6220 O.3   262  TYR262     -0.2866
    154  N         19.0610    8.6180   22.8580 N.3   264  GLY264     -0.1210
    155  CA        19.1700    8.3190   24.2690 C.3   264  GLY264      0.1956
    156  C         20.5860    7.9380   24.6520 C.2   264  GLY264      0.2612
    157  O         21.3420    7.3630   23.8650 O.2   264  GLY264     -0.2717
    158  N         20.9500    8.2570   25.8930 N.am  265  MET265     -0.1965
    159  CA        22.2480    7.8260   26.3830 C.3   265  MET265      0.1736
    160  C         22.2540    6.3370   26.6480 C.2   265  MET265      0.2617
    161  O         23.3340    5.7520   26.7930 O.2   265  MET265     -0.2715
    162  CB        22.6380    8.5960   27.6480 C.3   265  MET265      0.0427
    163  CG        22.9500   10.0650   27.3690 C.3   265  MET265      0.0599
    164  SD        24.4460   10.2620   26.4030 S.3   265  MET265     -0.1393
    165  CE        25.6540   10.2830   27.7150 C.3   265  MET265      0.0692
    166  N         21.0720    5.7200   26.7030 N.am  266  GLY266     -0.1955
    167  CA        20.9210    4.2840   26.8170 C.3   266  GLY266      0.1869
    168  C         20.6740    3.5780   25.4990 C.2   266  GLY266      0.2309
    169  O         20.2790    2.4010   25.4950 O.2   266  GLY266     -0.2863
    170  N         17.9500    0.9570   26.5850 N.3   276  GLU276     -0.1231
    171  CA        16.7100    1.5920   27.0260 C.3   276  GLU276      0.1699
    172  C         16.4890    2.9410   26.3430 C.2   276  GLU276      0.2592
    173  O         15.8540    3.8320   26.9020 O.2   276  GLU276     -0.2718
    174  CB        16.6830    1.7310   28.5450 C.3   276  GLU276      0.0402
    175  CG        16.6590    0.3680   29.2250 C.3   276  GLU276      0.1161
    176  CD        16.6740    0.4850   30.7210 C.2   276  GLU276      0.3649
    177  OE1       16.0570    1.4550   31.2210 O.co2 276  GLU276     -0.2457
    178  OE2       17.2940   -0.3910   31.3720 O.co2 276  GLU276     -0.2457
    179  N         16.9900    3.0910   25.1180 N.am  277  GLY277     -0.1957
    180  CA        16.7590    4.3050   24.3530 C.3   277  GLY277      0.1869
    181  C         16.9150    4.0400   22.8750 C.2   277  GLY277      0.2309
    182  O         17.3250    2.9540   22.4560 O.2   277  GLY277     -0.2863
@<TRIPOS>BOND
     1   142   143    1
     2   145   144    2
     3   143   146    1
     4   143   144    1
     5   146   147    1
     6   147   149   ar
     7   147   148   ar
     8   149   151   ar
     9   131   130    2
    10   133   132    1
    11   148   150   ar
    12   137   136    2
    13    69    67    1
    14   130   129    1
    15   130   134   am
    16   151   152   ar
    17   136   135    1
    18   182   181    2
    19    60    59    2
    20   132   129    1
    21   129   128    1
    22    67    64    1
    23    67    68    1
    24   135   134    1
    25   135   138    1
    26   154   155    1
    27   181   180    1
    28   150   152   ar
    29    62    61    1
    30    61    58    1
    31    64    63    1
    32    64    65    1
    33   152   153    1
    34    59    63   am
    35    59    58    1
    36   127   126    2
    37    66    65    2
    38   157   156    2
    39   139   138    1
    40   139   141    1
    41   138   140    1
    42    58    57    1
    43   128   126   am
    44    68    70    1
    45    65    71   am
    46   155   156    1
    47   180   179    1
    48   126   125    1
    49   156   158   am
    50    71    72    1
    51   179   172   am
    52    15    14    2
    53    57    55   am
    54    19    18    1
    55   169   168    2
    56   168   167    1
    57    74    73    2
    58    14    13    1
    59   103   102    2
    60   125   124    1
    61   158   159    1
    62    73    72    1
    63    56    55    2
    64    72    75    1
    65    16    13    1
    66    16    17    1
    67    55    54    1
    68   102   101    1
    69   172   173    2
    70   172   171    1
    71   159   160    1
    72   159   162    1
    73   164   163    1
    74   164   165    1
    75    18    17    1
    76   170   171    1
    77   160   166   am
    78   160   161    2
    79   166   167    1
    80    13    12    1
    81   124   118   am
    82   171   174    1
    83   163   162    1
    84    75    76    1
    85   118   119    2
    86   118   117    1
    87   120   121    1
    88   120   117    1
    89    54    53    1
    90    12     8   am
    91    99    98    2
    92   101   100    1
    93   101   104    1
    94   122   121    1
    95   122   123    1
    96   100    98   am
    97    98    97    1
    98     4     3    2
    99   117   116    1
   100    97    96    1
   101    77    78    1
   102     5     2    1
   103   174   175    1
   104   104   105    1
   105    96    94   am
   106     1     2    1
   107     8     9    2
   108     8     7    1
   109     3     2    1
   110     3     6   am
   111   175   176    1
   112    52    51    2
   113   116   110   am
   114    78    79    1
   115    78    81    1
   116     7     6    1
   117     7    10    1
   118    79    80    2
   119   105   107    1
   120   105   106    1
   121    94    93    1
   122    94    95    2
   123    93    92    1
   124    51    50    1
   125    82    81    1
   126   176   177   ar
   127   176   178   ar
   128   111   110    2
   129   110   109    1
   130    81    83    1
   131    50    49    1
   132    10    11    1
   133    92    86   am
   134   113   112    1
   135   113   114    1
   136   109   112    1
   137   109   108    1
   138    90    89   ar
   139    86    87    2
   140    86    85    1
   141   114   115    1
   142    89    91   ar
   143    89    88    1
   144    26    25   ar
   145    85    88    1
   146    85    84    1
   147    25    27   ar
   148    25    24    1
   149    48    47    2
   150    35    33   am
   151    47    46    1
   152    44    43    1
   153    46    45    1
   154    24    21    1
   155    43    42    1
   156    23    22    2
   157    33    34    2
   158    33    32    1
   159    42    41    1
   160    22    21    1
   161    32    29    1
   162    21    20    1
   163    41    40    1
   164    29    28    1
   165    29    30    1
   166    40    37    1
   167    30    31    2
   168    38    39    2
   169    38    37    1
   170    37    36    1
