@<TRIPOS>MOLECULE
tmp/5uzcB01.pdb
 103 94 0 0 0
SMALL
GASTEIGER

@<TRIPOS>ATOM
      1  N         27.7350    6.0950   38.5220 N.3   103  VAL103     -0.1245
      2  CA        28.1140    5.1380   39.5600 C.3   103  VAL103      0.1561
      3  C         29.1350    4.1510   38.9920 C.2   103  VAL103      0.2260
      4  O         28.7830    3.0510   38.5410 O.2   103  VAL103     -0.2867
      5  CB        26.8760    4.4020   40.1290 C.3   103  VAL103      0.0252
      6  CG1       27.3130    3.3650   41.1380 C.3   103  VAL103      0.0019
      7  CG2       25.9430    5.3880   40.7930 C.3   103  VAL103      0.0019
      8  N         24.1460   11.0260   37.9780 N.3   125  ASP125     -0.1225
      9  CA        23.2030   10.6250   36.9560 C.3   125  ASP125      0.1805
     10  C         23.1040    9.1420   36.6530 C.2   125  ASP125      0.2598
     11  O         24.0390    8.5580   36.1500 O.2   125  ASP125     -0.2718
     12  CB        23.7580   11.2930   35.7010 C.3   125  ASP125      0.1424
     13  CG        22.7430   11.5090   34.6460 C.2   125  ASP125      0.3668
     14  OD1       23.0640   12.2280   33.6850 O.co2 125  ASP125     -0.2456
     15  OD2       21.6410   10.9680   34.7660 O.co2 125  ASP125     -0.2456
     16  N         21.9510    8.5570   36.9470 N.am  126  THR126     -0.1939
     17  CA        21.7150    7.1450   36.7080 C.3   126  THR126      0.2028
     18  C         20.2780    6.8480   36.2940 C.2   126  THR126      0.2642
     19  O         19.3880    7.6500   36.4930 O.2   126  THR126     -0.2714
     20  CB        21.9790    6.3190   37.9640 C.3   126  THR126      0.1808
     21  OG1       20.9250    6.5480   38.9000 O.3   126  THR126     -0.2208
     22  CG2       23.2960    6.7070   38.5830 C.3   126  THR126      0.0379
     23  N         20.0810    5.6750   35.7190 N.am  127  ALA127     -0.1963
     24  CA        18.7680    5.2180   35.3090 C.3   127  ALA127      0.1728
     25  C         17.8660    5.0630   36.5260 C.2   127  ALA127      0.2616
     26  O         16.6800    5.3120   36.4530 O.2   127  ALA127     -0.2715
     27  CB        18.8730    3.9040   34.5620 C.3   127  ALA127      0.0334
     28  N         18.4390    4.6060   37.6320 N.am  128  HIS128     -0.1973
     29  CA        17.6990    4.3820   38.8640 C.3   128  HIS128      0.1656
     30  C         18.3860    5.0410   40.0560 C.2   128  HIS128      0.2291
     31  O         19.2260    4.4330   40.6770 O.2   128  HIS128     -0.2864
     32  CB        17.5850    2.8710   39.0780 C.3   128  HIS128      0.0771
     33  CG        16.6160    2.4640   40.1400 C.ar  128  HIS128      0.0820
     34  ND1       15.5650    3.2520   40.5360 N.ar  128  HIS128     -0.2267
     35  CD2       16.5380    1.3370   40.8820 C.ar  128  HIS128      0.1154
     36  CE1       14.8880    2.6350   41.4850 C.ar  128  HIS128      0.1986
     37  NE2       15.4570    1.4700   41.7110 N.ar  128  HIS128     -0.2212
     38  N         18.7310    3.8760   44.6250 N.3   131  SER131     -0.1217
     39  CA        19.5110    2.6600   44.6880 C.3   131  SER131      0.1889
     40  C         20.6620    2.8250   45.6820 C.2   131  SER131      0.2288
     41  O         21.0940    3.9400   46.0060 O.2   131  SER131     -0.2866
     42  CB        20.0780    2.3100   43.3110 C.3   131  SER131      0.2089
     43  OG        20.9900    3.3220   42.9190 O.3   131  SER131     -0.2183
     44  N         23.7580    2.2150   45.2390 N.3   133  GLY133     -0.1210
     45  CA        24.9890    2.7840   44.6960 C.3   133  GLY133      0.1956
     46  C         24.9490    4.2990   44.6510 C.2   133  GLY133      0.2611
     47  O         25.9540    4.9740   44.9180 O.2   133  GLY133     -0.2717
     48  N         23.7830    4.8570   44.3390 N.am  134  VAL134     -0.1979
     49  CA        23.6480    6.3040   44.2740 C.3   134  VAL134      0.1595
     50  C         23.6250    6.8910   45.6750 C.2   134  VAL134      0.2287
     51  O         24.2600    7.9150   45.9390 O.2   134  VAL134     -0.2864
     52  CB        22.3930    6.6950   43.4630 C.3   134  VAL134      0.0276
     53  CG1       22.1200    8.2110   43.5600 C.3   134  VAL134      0.0022
     54  CG2       22.5810    6.2960   42.0080 C.3   134  VAL134      0.0022
     55  N         13.3180    7.6380   25.0620 N.3   182  CYS182     -0.1235
     56  CA        13.4400    6.6430   26.1160 C.3   182  CYS182      0.1677
     57  C         12.5100    5.4460   25.8950 C.2   182  CYS182      0.2270
     58  O         11.3360    5.6110   25.5320 O.2   182  CYS182     -0.2867
     59  CB        13.1160    7.3000   27.4560 C.3   182  CYS182      0.0956
     60  SG        12.8290    6.1270   28.8100 S.3   182  CYS182     -0.0801
     61  N         12.7070    2.8380   28.4860 N.3   184  THR184     -0.1218
     62  CA        12.6560    2.2030   29.8030 C.3   184  THR184      0.1862
     63  C         11.2810    1.5990   30.1170 C.2   184  THR184      0.2287
     64  O         11.1710    0.4280   30.5010 O.2   184  THR184     -0.2866
     65  CB        13.0460    3.2420   30.8650 C.3   184  THR184      0.1770
     66  OG1       14.4060    3.6090   30.6600 O.3   184  THR184     -0.2211
     67  CG2       12.9300    2.6680   32.3000 C.3   184  THR184      0.0375
     68  N         20.9500    8.2570   25.8930 N.3   265  MET265     -0.1230
     69  CA        22.2480    7.8260   26.3830 C.3   265  MET265      0.1702
     70  C         22.2540    6.3370   26.6480 C.2   265  MET265      0.2592
     71  O         23.3340    5.7520   26.7930 O.2   265  MET265     -0.2718
     72  CB        22.6380    8.5960   27.6480 C.3   265  MET265      0.0401
     73  CG        22.9500   10.0650   27.3690 C.3   265  MET265      0.0596
     74  SD        24.4460   10.2620   26.4030 S.3   265  MET265     -0.1393
     75  CE        25.6540   10.2830   27.7150 C.3   265  MET265      0.0692
     76  N         21.0720    5.7200   26.7030 N.am  266  GLY266     -0.1957
     77  CA        20.9210    4.2840   26.8170 C.3   266  GLY266      0.1869
     78  C         20.6740    3.5780   25.4990 C.2   266  GLY266      0.2309
     79  O         20.2790    2.4010   25.4950 O.2   266  GLY266     -0.2863
     80  N         25.8060    3.9490   23.9210 N.3   271  MET271     -0.1245
     81  CA        26.5430    3.0110   24.7700 C.3   271  MET271      0.1570
     82  C         27.7930    2.4600   24.0910 C.2   271  MET271      0.2261
     83  O         28.7560    2.0690   24.7710 O.2   271  MET271     -0.2867
     84  CB        25.6340    1.8640   25.1860 C.3   271  MET271      0.0387
     85  CG        24.5740    2.3060   26.1760 C.3   271  MET271      0.0595
     86  SD        23.7090    0.9200   26.8830 S.3   271  MET271     -0.1393
     87  CE        22.9340    0.2120   25.4410 C.3   271  MET271      0.0692
     88  N         21.4720   -4.4120   26.1710 N.3   274  VAL274     -0.1245
     89  CA        20.0090   -4.3350   26.2290 C.3   274  VAL274      0.1561
     90  C         19.6420   -2.8640   26.4120 C.2   274  VAL274      0.2260
     91  O         19.5620   -2.3580   27.5430 O.2   274  VAL274     -0.2867
     92  CB        19.4270   -5.2380   27.3260 C.3   274  VAL274      0.0252
     93  CG1       17.9140   -5.0180   27.4570 C.3   274  VAL274      0.0019
     94  CG2       19.7250   -6.6900   27.0150 C.3   274  VAL274      0.0019
     95  N         17.9500    0.9570   26.5850 N.3   276  GLU276     -0.1245
     96  CA        16.7100    1.5920   27.0260 C.3   276  GLU276      0.1567
     97  C         16.4890    2.9410   26.3430 C.2   276  GLU276      0.2260
     98  O         15.8540    3.8320   26.9020 O.2   276  GLU276     -0.2867
     99  CB        16.6830    1.7310   28.5450 C.3   276  GLU276      0.0388
    100  CG        16.6590    0.3680   29.2250 C.3   276  GLU276      0.1160
    101  CD        16.6740    0.4850   30.7210 C.2   276  GLU276      0.3649
    102  OE1       16.0570    1.4550   31.2210 O.co2 276  GLU276     -0.2457
    103  OE2       17.2940   -0.3910   31.3720 O.co2 276  GLU276     -0.2457
@<TRIPOS>BOND
     1    80    81    1
     2    82    81    1
     3    82    83    2
     4    81    84    1
     5    55    56    1
     6    84    85    1
     7    87    86    1
     8    79    78    2
     9    78    77    1
    10    58    57    2
    11    68    69    1
    12    57    56    1
    13    56    59    1
    14    88    89    1
    15    85    86    1
    16    89    90    1
    17    89    92    1
    18    97    98    2
    19    97    96    1
    20    69    70    1
    21    69    72    1
    22    74    73    1
    23    74    75    1
    24    90    91    2
    25    95    96    1
    26    70    76   am
    27    70    71    2
    28    76    77    1
    29    94    92    1
    30    96    99    1
    31    92    93    1
    32    73    72    1
    33    59    60    1
    34    61    62    1
    35    99   100    1
    36   100   101    1
    37    62    63    1
    38    62    65    1
    39    63    64    2
    40    66    65    1
    41   101   102   ar
    42   101   103   ar
    43    65    67    1
    44    14    13   ar
    45    27    24    1
    46    13    15   ar
    47    13    12    1
    48    24    23    1
    49    24    25    1
    50    12     9    1
    51    23    18   am
    52    11    10    2
    53    18    19    2
    54    18    17    1
    55    26    25    2
    56    25    28   am
    57    10    16   am
    58    10     9    1
    59    17    16    1
    60    17    20    1
    61     9     8    1
    62    28    29    1
    63    20    22    1
    64    20    21    1
    65     1     2    1
    66     4     3    2
    67    29    32    1
    68    29    30    1
    69     3     2    1
    70    32    33    1
    71     2     5    1
    72    30    31    2
    73     5     7    1
    74     5     6    1
    75    33    34   ar
    76    33    35   ar
    77    34    36   ar
    78    35    37   ar
    79    36    37   ar
    80    54    52    1
    81    43    42    1
    82    42    39    1
    83    52    53    1
    84    52    49    1
    85    49    48    1
    86    49    50    1
    87    48    46   am
    88    38    39    1
    89    46    45    1
    90    46    47    2
    91    39    40    1
    92    45    44    1
    93    50    51    2
    94    40    41    2
