@<TRIPOS>MOLECULE
tmp/5uzeB01.pdb
 115 104 0 0 0
SMALL
GASTEIGER

@<TRIPOS>ATOM
      1  N        -15.8910   19.9790  -29.5970 N.3    98  VAL98      -0.1245
      2  CA       -16.0980   19.4280  -30.9310 C.3    98  VAL98       0.1561
      3  C        -17.5990   19.3390  -31.1810 C.2    98  VAL98       0.2260
      4  O        -18.2140   18.3000  -30.9340 O.2    98  VAL98      -0.2867
      5  CB       -15.4300   18.0450  -31.0830 C.3    98  VAL98       0.0252
      6  CG1      -15.7650   17.4240  -32.4620 C.3    98  VAL98       0.0019
      7  CG2      -13.9280   18.1650  -30.8970 C.3    98  VAL98       0.0019
      8  N        -11.4770   18.0500  -24.5680 N.3   121  THR121     -0.1203
      9  CA       -12.3500   16.9270  -24.8340 C.3   121  THR121      0.1994
     10  C        -11.9290   15.7820  -23.9340 C.2   121  THR121      0.2618
     11  O        -10.7990   15.7300  -23.4480 O.2   121  THR121     -0.2717
     12  CB       -12.2640   16.4640  -26.2990 C.3   121  THR121      0.1784
     13  OG1      -11.0420   15.7360  -26.4920 O.3   121  THR121     -0.2211
     14  CG2      -12.2670   17.6460  -27.2710 C.3   121  THR121      0.0376
     15  N        -12.8730   14.8760  -23.7050 N.am  122  ALA122     -0.1965
     16  CA       -12.5820   13.5830  -23.0920 C.3   122  ALA122      0.1728
     17  C        -11.3010   12.9660  -23.6450 C.2   122  ALA122      0.2616
     18  O        -10.4070   12.5850  -22.8880 O.2   122  ALA122     -0.2715
     19  CB       -13.7700   12.6550  -23.3210 C.3   122  ALA122      0.0334
     20  N        -11.1840   12.9030  -24.9740 N.am  123  HIS123     -0.1973
     21  CA       -10.1150   12.1880  -25.6800 C.3   123  HIS123      0.1656
     22  C         -9.5300   13.1070  -26.7540 C.2   123  HIS123      0.2291
     23  O         -9.9900   13.1140  -27.9020 O.2   123  HIS123     -0.2864
     24  CB       -10.6620   10.8990  -26.2710 C.3   123  HIS123      0.0771
     25  CG        -9.6160    9.9600  -26.7950 C.ar  123  HIS123      0.0820
     26  ND1       -8.3460    9.8760  -26.2660 N.ar  123  HIS123     -0.2267
     27  CD2       -9.6710    9.0340  -27.7830 C.ar  123  HIS123      0.1154
     28  CE1       -7.6570    8.9560  -26.9170 C.ar  123  HIS123      0.1986
     29  NE2       -8.4380    8.4330  -27.8470 N.ar  123  HIS123     -0.2212
     30  N         -7.9240   12.2390  -30.9390 N.3   126  SER126     -0.1217
     31  CA        -9.0440   11.7210  -31.7130 C.3   126  SER126      0.1889
     32  C         -9.1640   12.4760  -33.0300 C.2   126  SER126      0.2288
     33  O         -8.6710   13.5990  -33.1840 O.2   126  SER126     -0.2866
     34  CB       -10.3550   11.8490  -30.9470 C.3   126  SER126      0.2089
     35  OG       -10.5300   13.2020  -30.5540 O.3   126  SER126     -0.2183
     36  N        -11.7270   13.8850  -34.2890 N.3   128  GLY128     -0.1210
     37  CA       -12.4580   15.1230  -34.1080 C.3   128  GLY128      0.1956
     38  C        -11.5490   16.2680  -33.7200 C.2   128  GLY128      0.2611
     39  O        -11.4430   17.2650  -34.4420 O.2   128  GLY128     -0.2717
     40  N        -10.8590   16.1150  -32.5890 N.am  129  VAL129     -0.1979
     41  CA        -9.9420   17.1480  -32.1260 C.3   129  VAL129      0.1595
     42  C         -8.9020   17.4560  -33.1910 C.2   129  VAL129      0.2287
     43  O         -8.6140   18.6270  -33.4770 O.2   129  VAL129     -0.2864
     44  CB        -9.2900   16.7110  -30.8030 C.3   129  VAL129      0.0276
     45  CG1       -8.3800   17.7940  -30.2500 C.3   129  VAL129      0.0022
     46  CG2      -10.3530   16.3360  -29.8130 C.3   129  VAL129      0.0022
     47  N         -7.9120   16.6170  -23.9230 N.3   149  ASN149     -0.1240
     48  CA        -6.7720   16.2250  -23.1060 C.3   149  ASN149      0.1653
     49  C         -6.1190   14.9640  -23.6540 C.2   149  ASN149      0.2266
     50  O         -6.7460   14.1860  -24.3790 O.2   149  ASN149     -0.2867
     51  CB        -7.1960   16.0000  -21.6560 C.3   149  ASN149      0.1155
     52  CG        -7.2930   17.2930  -20.8700 C.2   149  ASN149      0.2627
     53  OD1       -7.2630   18.3940  -21.4420 O.2   149  ASN149     -0.2716
     54  ND2       -7.3910   17.1710  -19.5440 N.am  149  ASN149     -0.0877
     55  N         -5.6620   12.3990  -18.5720 N.3   171  ILE171     -0.1231
     56  CA        -6.7740   11.4790  -18.7570 C.3   171  ILE171      0.1692
     57  C         -7.0360   10.7980  -17.4160 C.2   171  ILE171      0.2592
     58  O         -6.3140    9.8580  -17.0320 O.2   171  ILE171     -0.2718
     59  CB        -6.4850   10.4630  -19.8640 C.3   171  ILE171      0.0266
     60  CG1       -6.2860   11.2310  -21.1780 C.3   171  ILE171      0.0019
     61  CG2       -7.6190    9.3920  -19.9560 C.3   171  ILE171      0.0020
     62  CD1       -7.5640   11.7370  -21.6880 C.3   171  ILE171      0.0001
     63  N         -8.0490   11.2940  -16.6860 N.am  172  GLY172     -0.1957
     64  CA        -8.4850   10.6530  -15.4670 C.3   172  GLY172      0.1869
     65  C         -7.9490   11.0940  -14.1030 C.2   172  GLY172      0.2309
     66  O         -8.3600   10.5170  -13.0970 O.2   172  GLY172     -0.2863
     67  N        -13.3080   13.0110  -11.2090 N.3   177  CYS177     -0.1235
     68  CA       -13.3100   12.2750  -12.4640 C.3   177  CYS177      0.1677
     69  C        -13.4720   10.7790  -12.1990 C.2   177  CYS177      0.2270
     70  O        -12.8540   10.2340  -11.2800 O.2   177  CYS177     -0.2867
     71  CB       -12.0200   12.5620  -13.2340 C.3   177  CYS177      0.0956
     72  SG       -11.6510   11.4780  -14.6140 S.3   177  CYS177     -0.0801
     73  N        -13.3630    8.6250  -15.0900 N.3   179  THR179     -0.1218
     74  CA       -12.9980    8.0230  -16.3740 C.3   179  THR179      0.1862
     75  C        -12.2320    6.7110  -16.2070 C.2   179  THR179      0.2287
     76  O        -12.4550    5.7510  -16.9490 O.2   179  THR179     -0.2866
     77  CB       -12.1610    9.0230  -17.1860 C.3   179  THR179      0.1770
     78  OG1      -12.9620   10.1710  -17.4910 O.3   179  THR179     -0.2211
     79  CG2      -11.6650    8.4010  -18.4790 C.3   179  THR179      0.0375
     80  N        -17.5460   18.1900  -15.2110 N.3   260  MET260     -0.1230
     81  CA       -18.3000   18.5590  -16.3990 C.3   260  MET260      0.1702
     82  C        -18.9440   17.3470  -17.0520 C.2   260  MET260      0.2592
     83  O        -19.9140   17.5030  -17.8000 O.2   260  MET260     -0.2718
     84  CB       -17.3940   19.2780  -17.3990 C.3   260  MET260      0.0401
     85  CG       -16.9420   20.6270  -16.9230 C.3   260  MET260      0.0596
     86  SD       -18.3440   21.7250  -16.6640 S.3   260  MET260     -0.1393
     87  CE       -18.4040   22.5750  -18.2440 C.3   260  MET260      0.0692
     88  N        -18.4210   16.1490  -16.7960 N.am  261  GLY261     -0.1957
     89  CA       -19.0200   14.9430  -17.3380 C.3   261  GLY261      0.1869
     90  C        -19.9420   14.2660  -16.3440 C.2   261  GLY261      0.2309
     91  O        -20.2810   13.0920  -16.4990 O.2   261  GLY261     -0.2863
     92  N        -24.1420   17.7600  -17.2480 N.3   266  MET266     -0.1245
     93  CA       -24.6080   17.4350  -18.5890 C.3   266  MET266      0.1570
     94  C        -26.0920   17.7160  -18.7880 C.2   266  MET266      0.2261
     95  O        -26.5650   17.6430  -19.9220 O.2   266  MET266     -0.2867
     96  CB       -24.3090   15.9750  -18.9180 C.3   266  MET266      0.0387
     97  CG       -22.8240   15.6470  -18.9510 C.3   266  MET266      0.0595
     98  SD       -22.5140   13.9330  -19.4320 S.3   266  MET266     -0.1393
     99  CE       -23.2710   13.0320  -18.0770 C.3   266  MET266      0.0692
    100  N        -24.2680    8.5200  -19.6680 N.3   271  VAL271     -0.1245
    101  CA       -23.2860    7.7010  -18.9680 C.3   271  VAL271      0.1561
    102  C        -22.1840    8.6410  -18.4870 C.2   271  VAL271      0.2260
    103  O        -21.2540    8.9480  -19.2490 O.2   271  VAL271     -0.2867
    104  CB       -22.7410    6.5900  -19.8770 C.3   271  VAL271      0.0252
    105  CG1      -21.7960    5.7160  -19.1120 C.3   271  VAL271      0.0019
    106  CG2      -23.8850    5.7700  -20.4590 C.3   271  VAL271      0.0019
    107  N        -18.9640   10.6100  -16.6280 N.3   273  GLU273     -0.1245
    108  CA       -17.5780   10.3140  -16.2960 C.3   273  GLU273      0.1567
    109  C        -17.0580   11.2420  -15.1990 C.2   273  GLU273      0.2260
    110  O        -15.8430   11.4160  -15.0530 O.2   273  GLU273     -0.2867
    111  CB       -16.7140   10.3570  -17.5650 C.3   273  GLU273      0.0388
    112  CG       -16.9580    9.1010  -18.4270 C.3   273  GLU273      0.1160
    113  CD       -16.2000    9.0560  -19.7420 C.2   273  GLU273      0.3649
    114  OE1      -14.9850    9.3590  -19.7480 O.co2 273  GLU273     -0.2457
    115  OE2      -16.8290    8.6910  -20.7670 O.co2 273  GLU273     -0.2457
@<TRIPOS>BOND
     1    39    38    2
     2    36    37    1
     3    37    38    1
     4    38    40   am
     5    43    42    2
     6    42    41    1
     7    33    32    2
     8    32    31    1
     9    40    41    1
    10     6     5    1
    11    41    44    1
    12    31    34    1
    13    31    30    1
    14     3     4    2
    15     3     2    1
    16     5     2    1
    17     5     7    1
    18    34    35    1
    19     2     1    1
    20    44    45    1
    21    44    46    1
    22    23    22    2
    23    29    27   ar
    24    29    28   ar
    25    27    25   ar
    26    14    12    1
    27    28    26   ar
    28    25    24    1
    29    25    26   ar
    30    22    21    1
    31    13    12    1
    32    12     9    1
    33    24    21    1
    34    21    20    1
    35    20    17   am
    36     9     8    1
    37     9    10    1
    38    50    49    2
    39    10    15   am
    40    10    11    2
    41    47    48    1
    42    15    16    1
    43    49    48    1
    44    17    16    1
    45    17    18    2
    46    19    16    1
    47    48    51    1
    48    62    60    1
    49    51    52    1
    50    53    52    2
    51    60    59    1
    52    52    54   am
    53   115   113   ar
    54   106   104    1
    55    61    59    1
    56    95    94    2
    57   104   105    1
    58   104   101    1
    59    59    56    1
    60   114   113   ar
    61   113   112    1
    62   100   101    1
    63    98    97    1
    64    98    99    1
    65   103   102    2
    66   101   102    1
    67    97    96    1
    68    96    93    1
    69    94    93    1
    70    56    55    1
    71    56    57    1
    72    93    92    1
    73    79    77    1
    74   112   111    1
    75    87    86    1
    76    83    82    2
    77   111   108    1
    78    78    77    1
    79    57    58    2
    80    57    63   am
    81    84    85    1
    82    84    81    1
    83    89    88    1
    84    89    90    1
    85    77    74    1
    86    82    88   am
    87    82    81    1
    88    76    75    2
    89    85    86    1
    90    63    64    1
    91   107   108    1
    92    91    90    2
    93    81    80    1
    94    74    75    1
    95    74    73    1
    96   108   109    1
    97    64    65    1
    98   109   110    2
    99    72    71    1
   100    65    66    2
   101    71    68    1
   102    68    69    1
   103    68    67    1
   104    69    70    2
