@<TRIPOS>MOLECULE
tmp/5uzhA00.pdb
 222 214 0 0 0
SMALL
GASTEIGER

@<TRIPOS>ATOM
      1  N        -18.0160   -2.8240    1.2010 N.3    89  SER89      -0.1202
      2  CA       -19.2100   -1.9920    1.0510 C.3    89  SER89       0.2020
      3  C        -19.9680   -1.7630    2.3520 C.2    89  SER89       0.2619
      4  O        -21.0030   -1.0970    2.3270 O.2    89  SER89      -0.2717
      5  CB       -20.1600   -2.5930    0.0060 C.3    89  SER89       0.2103
      6  OG       -20.8300   -3.7350    0.5090 O.3    89  SER89      -0.2182
      7  N        -19.4730   -2.2610    3.4810 N.am   90  HIS90      -0.1961
      8  CA       -20.2210   -2.2460    4.7340 C.3    90  HIS90       0.1787
      9  C        -19.7940   -1.0720    5.6250 C.2    90  HIS90       0.2620
     10  O        -18.6130   -0.9370    5.9800 O.2    90  HIS90      -0.2715
     11  CB       -20.0540   -3.5880    5.4530 C.3    90  HIS90       0.0785
     12  CG       -21.1880   -3.9190    6.3700 C.ar   90  HIS90       0.0821
     13  ND1      -21.3870   -3.2640    7.5700 N.ar   90  HIS90      -0.2267
     14  CD2      -22.1940   -4.8190    6.2620 C.ar   90  HIS90       0.1154
     15  CE1      -22.4600   -3.7570    8.1660 C.ar   90  HIS90       0.1986
     16  NE2      -22.9700   -4.7000    7.3930 N.ar   90  HIS90      -0.2212
     17  N        -20.7730   -0.2490    6.0160 N.am   91  VAL91      -0.1963
     18  CA       -20.5050    0.9420    6.8260 C.3    91  VAL91       0.1727
     19  C        -19.9350    0.5600    8.1910 C.2    91  VAL91       0.2616
     20  O        -18.9190    1.1060    8.6410 O.2    91  VAL91      -0.2715
     21  CB       -21.7930    1.7790    6.9680 C.3    91  VAL91       0.0290
     22  CG1      -21.6570    2.7940    8.1170 C.3    91  VAL91       0.0023
     23  CG2      -22.1160    2.4670    5.6520 C.3    91  VAL91       0.0023
     24  N        -20.5920   -0.3710    8.8780 N.am   92  LYS92      -0.1977
     25  CA       -20.1400   -0.7800   10.2050 C.3    92  LYS92       0.1596
     26  C        -18.7280   -1.3510   10.1560 C.2    92  LYS92       0.2287
     27  O        -17.8710   -0.9860   10.9650 O.2    92  LYS92      -0.2864
     28  CB       -21.1190   -1.8010   10.7880 C.3    92  LYS92       0.0298
     29  CG       -20.6860   -2.4000   12.1150 C.3    92  LYS92       0.0038
     30  CD       -20.6480   -1.3790   13.2140 C.3    92  LYS92       0.0206
     31  CE       -20.3800   -2.0470   14.5630 C.3    92  LYS92       0.1093
     32  NZ       -20.2770   -1.0130   15.6120 N.3    92  LYS92      -0.1314
     33  N        -24.8970    7.3760    1.0270 N.3   134  GLU134     -0.1245
     34  CA       -24.0950    7.5370    2.2330 C.3   134  GLU134      0.1567
     35  C        -23.2660    8.8170    2.2150 C.2   134  GLU134      0.2260
     36  O        -22.9140    9.3280    3.2870 O.2   134  GLU134     -0.2867
     37  CB       -23.1820    6.3070    2.4040 C.3   134  GLU134      0.0388
     38  CG       -22.8550    5.9580    3.8340 C.3   134  GLU134      0.1160
     39  CD       -24.0960    5.6060    4.6660 C.2   134  GLU134      0.3649
     40  OE1      -24.0020    5.6370    5.9030 O.co2 134  GLU134     -0.2457
     41  OE2      -25.1720    5.3190    4.0960 O.co2 134  GLU134     -0.2457
     42  N        -16.1300    4.5580    5.5740 N.3   156  TYR156     -0.1241
     43  CA       -16.6370    4.1590    4.2630 C.3   156  TYR156      0.1605
     44  C        -17.0810    5.3710    3.4510 C.2   156  TYR156      0.2264
     45  O        -16.7460    5.4990    2.2660 O.2   156  TYR156     -0.2867
     46  CB       -17.8130    3.1910    4.4250 C.3   156  TYR156      0.0534
     47  CG       -18.6350    2.9670    3.1670 C.ar  156  TYR156     -0.0201
     48  CD1      -18.2390    2.0300    2.2090 C.ar  156  TYR156     -0.0009
     49  CD2      -19.8070    3.6880    2.9330 C.ar  156  TYR156     -0.0009
     50  CE1      -18.9890    1.8170    1.0650 C.ar  156  TYR156      0.0417
     51  CE2      -20.5680    3.4740    1.7880 C.ar  156  TYR156      0.0417
     52  CZ       -20.1530    2.5350    0.8600 C.ar  156  TYR156      0.1957
     53  OH       -20.8980    2.3250   -0.2800 O.3   156  TYR156     -0.2866
     54  N        -29.9910    3.2980   -1.0480 N.3   185  ASN185     -0.1240
     55  CA       -29.9020    1.9080   -0.6090 C.3   185  ASN185      0.1653
     56  C        -30.7590    1.0120   -1.4940 C.2   185  ASN185      0.2266
     57  O        -31.9090    1.3370   -1.7950 O.2   185  ASN185     -0.2867
     58  CB       -30.3570    1.7600    0.8540 C.3   185  ASN185      0.1155
     59  CG       -29.4500    2.4840    1.8630 C.2   185  ASN185      0.2627
     60  OD1      -29.2860    3.7000    1.8300 O.2   185  ASN185     -0.2716
     61  ND2      -28.9090    1.7190    2.8070 N.am  185  ASN185     -0.0877
     62  N        -31.6680   -3.3270   -2.1420 N.3   187  GLU187     -0.1245
     63  CA       -31.6020   -4.6410   -1.5210 C.3   187  GLU187      0.1567
     64  C        -32.1730   -5.6720   -2.4880 C.2   187  GLU187      0.2260
     65  O        -32.6070   -5.3410   -3.5950 O.2   187  GLU187     -0.2867
     66  CB       -32.3890   -4.6800   -0.2010 C.3   187  GLU187      0.0388
     67  CG       -32.4390   -3.3520    0.5570 C.3   187  GLU187      0.1160
     68  CD       -31.0960   -2.9600    1.1680 C.2   187  GLU187      0.3649
     69  OE1      -30.6350   -3.6610    2.0890 O.co2 187  GLU187     -0.2457
     70  OE2      -30.5250   -1.9280    0.7770 O.co2 187  GLU187     -0.2457
     71  N        -28.7830   -9.6290   -1.2620 N.3   191  ARG191     -0.1245
     72  CA       -28.0830   -8.7230   -0.3650 C.3   191  ARG191      0.1563
     73  C        -27.2090   -9.5050    0.6090 C.2   191  ARG191      0.2260
     74  O        -27.5700  -10.6050    1.0530 O.2   191  ARG191     -0.2867
     75  CB       -29.0860   -7.8400    0.3890 C.3   191  ARG191      0.0307
     76  CG       -28.4190   -6.7700    1.2890 C.3   191  ARG191      0.0489
     77  CD       -27.9890   -5.5980    0.3910 C.3   191  ARG191      0.2205
     78  NE       -28.2490   -4.2560    0.9070 N.pl3 191  ARG191     -0.0865
     79  CZ       -27.3290   -3.3070    1.0700 C.cat 191  ARG191      0.5346
     80  NH1      -26.0550   -3.5440    0.7990 N.pl3 191  ARG191      0.1354
     81  NH2      -27.6920   -2.1020    1.5070 N.pl3 191  ARG191      0.1354
     82  N        -25.2820   -9.4310    6.3370 N.3   194  THR194     -0.1203
     83  CA       -25.1720   -8.5870    7.5280 C.3   194  THR194      0.1994
     84  C        -25.6730   -7.1620    7.3090 C.2   194  THR194      0.2618
     85  O        -25.5520   -6.3330    8.2160 O.2   194  THR194     -0.2717
     86  CB       -23.7220   -8.5600    8.0630 C.3   194  THR194      0.1784
     87  OG1      -22.8750   -7.8130    7.1720 O.3   194  THR194     -0.2211
     88  CG2      -23.1800   -9.9850    8.2020 C.3   194  THR194      0.0376
     89  N        -26.2230   -6.8530    6.1420 N.am  195  PHE195     -0.1961
     90  CA       -26.9950   -5.6240    5.9740 C.3   195  PHE195      0.1771
     91  C        -28.3550   -5.7990    6.6340 C.2   195  PHE195      0.2619
     92  O        -28.8570   -6.9190    6.7590 O.2   195  PHE195     -0.2715
     93  CB       -27.1380   -5.2730    4.4900 C.3   195  PHE195      0.0574
     94  CG       -25.8370   -4.9180    3.8660 C.ar  195  PHE195     -0.0200
     95  CD1      -25.0570   -5.8910    3.2650 C.ar  195  PHE195     -0.0042
     96  CD2      -25.3440   -3.6250    3.9590 C.ar  195  PHE195     -0.0042
     97  CE1      -23.8180   -5.5690    2.7220 C.ar  195  PHE195     -0.0003
     98  CE2      -24.1090   -3.2980    3.4200 C.ar  195  PHE195     -0.0003
     99  CZ       -23.3440   -4.2740    2.8090 C.ar  195  PHE195     -0.0000
    100  N        -28.9370   -4.6870    7.0980 N.am  196  VAL196     -0.1963
    101  CA       -30.0440   -4.8120    8.0440 C.3   196  VAL196      0.1727
    102  C        -31.2400   -5.5050    7.3960 C.2   196  VAL196      0.2616
    103  O        -31.8690   -6.3700    8.0130 O.2   196  VAL196     -0.2715
    104  CB       -30.4150   -3.4440    8.6490 C.3   196  VAL196      0.0290
    105  CG1      -31.1590   -2.5450    7.6410 C.3   196  VAL196      0.0023
    106  CG2      -31.2280   -3.6470    9.9430 C.3   196  VAL196      0.0023
    107  N        -31.5360   -5.1840    6.1300 N.am  197  THR197     -0.1951
    108  CA       -32.7070   -5.7560    5.4750 C.3   197  THR197      0.1897
    109  C        -32.5650   -7.2630    5.3320 C.2   197  THR197      0.2313
    110  O        -33.4740   -8.0160    5.6900 O.2   197  THR197     -0.2863
    111  CB       -32.9310   -5.1140    4.1000 C.3   197  THR197      0.1794
    112  OG1      -31.8160   -5.4050    3.2330 O.3   197  THR197     -0.2208
    113  CG2      -33.1140   -3.5990    4.2330 C.3   197  THR197      0.0378
    114  N        -30.4840   -9.2400    6.9520 N.3   199  LYS199     -0.1245
    115  CA       -30.4570   -9.7850    8.3000 C.3   199  LYS199      0.1561
    116  C        -31.8700   -9.9630    8.8390 C.2   199  LYS199      0.2260
    117  O        -32.1700  -10.9600    9.5020 O.2   199  LYS199     -0.2867
    118  CB       -29.6490   -8.8610    9.2070 C.3   199  LYS199      0.0271
    119  CG       -29.6140   -9.2630   10.6610 C.3   199  LYS199      0.0035
    120  CD       -28.3980   -8.6820   11.3510 C.3   199  LYS199      0.0206
    121  CE       -28.7370   -8.3110   12.7740 C.3   199  LYS199      0.1093
    122  NZ       -27.5620   -8.0740   13.6600 N.3   199  LYS199     -0.1314
    123  N        -30.8650   -6.3860   16.7900 N.3   217  LEU217     -0.1231
    124  CA       -30.6250   -5.2690   15.8890 C.3   217  LEU217      0.1693
    125  C        -30.0010   -4.1080   16.6570 C.2   217  LEU217      0.2593
    126  O        -29.8570   -4.1420   17.8850 O.2   217  LEU217     -0.2718
    127  CB       -31.9340   -4.8180   15.2270 C.3   217  LEU217      0.0284
    128  CG       -32.4940   -5.7910   14.1990 C.3   217  LEU217      0.0019
    129  CD1      -33.8190   -5.2900   13.6690 C.3   217  LEU217      0.0001
    130  CD2      -31.5020   -5.9920   13.0660 C.3   217  LEU217      0.0001
    131  N        -29.6470   -3.0590   15.9240 N.am  218  GLY218     -0.1942
    132  CA       -29.1740   -1.8530   16.5730 C.3   218  GLY218      0.2014
    133  C        -30.2510   -0.7880   16.6370 C.2   218  GLY218      0.2638
    134  O        -31.2420   -0.9140   17.3630 O.2   218  GLY218     -0.2714
    135  N        -30.0590    0.2600   15.8470 N.am  219  ASN219     -0.1972
    136  CA       -30.9310    1.4270   15.8240 C.3   219  ASN219      0.1688
    137  C        -32.2000    1.1170   15.0300 C.2   219  ASN219      0.2292
    138  O        -32.1620    1.0060   13.7980 O.2   219  ASN219     -0.2864
    139  CB       -30.1560    2.5910   15.2170 C.3   219  ASN219      0.1181
    140  CG       -30.9980    3.8110   15.0320 C.2   219  ASN219      0.2629
    141  OD1      -32.0410    3.9590   15.6710 O.2   219  ASN219     -0.2716
    142  ND2      -30.5500    4.7110   14.1530 N.am  219  ASN219     -0.0877
    143  N        -33.4970    4.3600   12.4610 N.3   222  ALA222     -0.1245
    144  CA       -32.8960    4.7740   11.1980 C.3   222  ALA222      0.1562
    145  C        -33.8820    4.6080   10.0440 C.2   222  ALA222      0.2260
    146  O        -34.6300    3.6270    9.9740 O.2   222  ALA222     -0.2867
    147  CB       -31.6310    3.9590   10.9270 C.3   222  ALA222      0.0290
    148  N        -34.4630    4.8060    5.7590 N.3   224  ARG224     -0.1245
    149  CA       -33.7460    4.6020    4.5070 C.3   224  ARG224      0.1563
    150  C        -34.7280    4.6160    3.3490 C.2   224  ARG224      0.2260
    151  O        -35.8320    4.0700    3.4490 O.2   224  ARG224     -0.2867
    152  CB       -33.0020    3.2570    4.4710 C.3   224  ARG224      0.0307
    153  CG       -31.6960    3.1710    5.2520 C.3   224  ARG224      0.0489
    154  CD       -30.8250    4.4040    5.1070 C.3   224  ARG224      0.2205
    155  NE       -29.5510    4.2550    5.8070 N.pl3 224  ARG224     -0.0865
    156  CZ       -29.2510    4.9490    6.9040 C.cat 224  ARG224      0.5346
    157  NH1      -30.1600    5.7780    7.4230 N.pl3 224  ARG224      0.1354
    158  NH2      -28.0860    4.7980    7.5140 N.pl3 224  ARG224      0.1354
    159  N        -35.2860    2.7710    0.1730 N.3   226  TRP226     -0.1241
    160  CA       -34.9290    1.3740   -0.1060 C.3   226  TRP226      0.1605
    161  C        -35.5710    0.9050   -1.4130 C.2   226  TRP226      0.2264
    162  O        -36.8020    0.7880   -1.5020 O.2   226  TRP226     -0.2867
    163  CB       -35.3790    0.4650    1.0350 C.3   226  TRP226      0.0550
    164  CG       -34.4040    0.2730    2.1750 C.ar  226  TRP226      0.0003
    165  CD1      -33.0570    0.0140    2.0900 C.ar  226  TRP226      0.0946
    166  CD2      -34.7230    0.2700    3.5710 C.ar  226  TRP226      0.0152
    167  NE1      -32.5200   -0.1350    3.3560 N.ar  226  TRP226     -0.2442
    168  CE2      -33.5220    0.0240    4.2790 C.ar  226  TRP226      0.0810
    169  CE3      -35.9090    0.4580    4.2920 C.ar  226  TRP226      0.0012
    170  CZ2      -33.4740   -0.0350    5.6700 C.ar  226  TRP226      0.0191
    171  CZ3      -35.8580    0.4080    5.6780 C.ar  226  TRP226      0.0001
    172  CH2      -34.6410    0.1660    6.3500 C.ar  226  TRP226      0.0015
    173  N        -36.1410    1.1920    9.9420 N.3   258  VAL258     -0.1245
    174  CA       -35.7620   -0.1890   10.2450 C.3   258  VAL258      0.1561
    175  C        -36.8970   -0.8850   10.9880 C.2   258  VAL258      0.2260
    176  O        -37.2570   -2.0340   10.6870 O.2   258  VAL258     -0.2867
    177  CB       -34.4500   -0.2130   11.0540 C.3   258  VAL258      0.0252
    178  CG1      -34.2120   -1.5790   11.7470 C.3   258  VAL258      0.0019
    179  CG2      -33.2560    0.1490   10.1500 C.3   258  VAL258      0.0019
    180  N        -24.4990   -3.2630   17.5430 N.3   300  TYR300     -0.1227
    181  CA       -24.8420   -2.9780   16.1550 C.3   300  TYR300      0.1736
    182  C        -24.9960   -1.4870   15.8620 C.2   300  TYR300      0.2595
    183  O        -25.2470   -1.1250   14.7030 O.2   300  TYR300     -0.2718
    184  CB       -26.1170   -3.7340   15.7690 C.3   300  TYR300      0.0548
    185  CG       -25.9040   -5.2120   15.9200 C.ar  300  TYR300     -0.0200
    186  CD1      -24.9230   -5.8590   15.1780 C.ar  300  TYR300     -0.0009
    187  CD2      -26.6280   -5.9520   16.8420 C.ar  300  TYR300     -0.0009
    188  CE1      -24.6820   -7.2080   15.3370 C.ar  300  TYR300      0.0417
    189  CE2      -26.3930   -7.3070   17.0120 C.ar  300  TYR300      0.0417
    190  CZ       -25.4220   -7.9280   16.2530 C.ar  300  TYR300      0.1957
    191  OH       -25.1820   -9.2730   16.4130 O.3   300  TYR300     -0.2866
    192  N        -24.8560   -0.6220   16.8710 N.am  301  PHE301     -0.1962
    193  CA       -24.8590    0.8120   16.6320 C.3   301  PHE301      0.1771
    194  C        -23.6080    1.2230   15.8610 C.2   301  PHE301      0.2619
    195  O        -22.5720    0.5500   15.8920 O.2   301  PHE301     -0.2715
    196  CB       -24.9070    1.6050   17.9490 C.3   301  PHE301      0.0574
    197  CG       -26.2130    1.4790   18.7140 C.ar  301  PHE301     -0.0200
    198  CD1      -27.3770    1.0710   18.0890 C.ar  301  PHE301     -0.0042
    199  CD2      -26.2610    1.7770   20.0710 C.ar  301  PHE301     -0.0042
    200  CE1      -28.5820    0.9470   18.8150 C.ar  301  PHE301     -0.0003
    201  CE2      -27.4470    1.6630   20.7900 C.ar  301  PHE301     -0.0003
    202  CZ       -28.6100    1.2410   20.1510 C.ar  301  PHE301     -0.0000
    203  N        -23.7070    2.3600   15.1790 N.am  302  ARG302     -0.1977
    204  CA       -22.4980    2.9680   14.6500 C.3   302  ARG302      0.1597
    205  C        -22.1380    4.1870   15.4910 C.2   302  ARG302      0.2287
    206  O        -23.0300    4.8470   16.0290 O.2   302  ARG302     -0.2864
    207  CB       -22.6560    3.3870   13.1790 C.3   302  ARG302      0.0334
    208  CG       -22.7390    2.2150   12.1770 C.3   302  ARG302      0.0492
    209  CD       -24.1600    1.6610   12.1150 C.3   302  ARG302      0.2205
    210  NE       -24.2500    0.3890   11.4000 N.pl3 302  ARG302     -0.0865
    211  CZ       -24.4870    0.2880   10.0940 C.cat 302  ARG302      0.5346
    212  NH1      -24.6390    1.3820    9.3490 N.pl3 302  ARG302      0.1354
    213  NH2      -24.5650   -0.9040    9.5280 N.pl3 302  ARG302      0.1354
    214  N        -24.0950    7.8000   13.5160 N.3   305  GLU305     -0.1245
    215  CA       -25.1940    7.2210   12.7500 C.3   305  GLU305      0.1567
    216  C        -25.6350    8.1820   11.6480 C.2   305  GLU305      0.2260
    217  O        -25.4240    9.4010   11.7250 O.2   305  GLU305     -0.2867
    218  CB       -26.3640    6.8770   13.6920 C.3   305  GLU305      0.0388
    219  CG       -27.6700    6.3630   13.0360 C.3   305  GLU305      0.1160
    220  CD       -27.5180    4.9970   12.3610 C.2   305  GLU305      0.3649
    221  OE1      -26.9570    4.9470   11.2440 O.co2 305  GLU305     -0.2457
    222  OE2      -27.9660    3.9730   12.9410 O.co2 305  GLU305     -0.2457
@<TRIPOS>BOND
     1    65    64    2
     2    64    63    1
     3    62    63    1
     4    57    56    2
     5    63    66    1
     6   162   161    2
     7    56    55    1
     8   161   160    1
     9    71    72    1
    10    54    55    1
    11    55    58    1
    12    72    75    1
    13    72    73    1
    14    53    52    1
    15    66    67    1
    16   160   159    1
    17   160   163    1
    18     5     6    1
    19     5     2    1
    20    75    76    1
    21    77    78    1
    22    77    76    1
    23    67    68    1
    24    73    74    2
    25    70    68   ar
    26    80    79    1
    27    58    59    1
    28    52    50   ar
    29    52    51   ar
    30    78    79    2
    31    33    34    1
    32   163   164    1
    33     2     1    1
    34     2     3    1
    35    50    48   ar
    36    79    81    1
    37    68    69   ar
    38    51    49   ar
    39    60    59    2
    40    59    61   am
    41   165   164   ar
    42   165   167   ar
    43   164   166   ar
    44    48    47   ar
    45    35    34    1
    46    35    36    2
    47    34    37    1
    48    45    44    2
    49     4     3    2
    50     3     7   am
    51    37    38    1
    52    97    99   ar
    53    97    95   ar
    54    99    98   ar
    55    49    47   ar
    56    47    46    1
    57   112   111    1
    58    95    94   ar
    59   150   151    2
    60   150   149    1
    61   167   168   ar
    62    98    96   ar
    63    44    43    1
    64     7     8    1
    65   166   168   ar
    66   166   169   ar
    67    38    39    1
    68    94    96   ar
    69    94    93    1
    70    41    39   ar
    71   111   113    1
    72   111   108    1
    73    43    46    1
    74    43    42    1
    75   168   170   ar
    76   169   171   ar
    77   152   149    1
    78   152   153    1
    79    93    90    1
    80   149   148    1
    81    39    40   ar
    82     8    11    1
    83     8     9    1
    84   154   153    1
    85   154   155    1
    86   109   108    1
    87   109   110    2
    88    11    12    1
    89   108   107    1
    90     9    10    2
    91     9    17   am
    92    23    21    1
    93   170   172   ar
    94   171   172   ar
    95   155   156    2
    96    90    89    1
    97    90    91    1
    98    17    18    1
    99   107   102   am
   100    89    84   am
   101    14    12   ar
   102    14    16   ar
   103    82    83    1
   104    12    13   ar
   105    91    92    2
   106    91   100   am
   107    18    21    1
   108    18    19    1
   109   156   157    1
   110   156   158    1
   111   114   115    1
   112    21    22    1
   113   100   101    1
   114    87    86    1
   115    84    83    1
   116    84    85    2
   117    16    15   ar
   118   102   103    2
   119   102   101    1
   120    83    86    1
   121    13    15   ar
   122   105   104    1
   123   101   104    1
   124    86    88    1
   125    19    20    2
   126    19    24   am
   127   115   116    1
   128   115   118    1
   129   104   106    1
   130   116   117    2
   131    24    25    1
   132   118   119    1
   133   212   211    1
   134   213   211    1
   135   173   174    1
   136   146   145    2
   137   145   144    1
   138   211   210    2
   139   179   177    1
   140    26    25    1
   141    26    27    2
   142    25    28    1
   143   174   175    1
   144   174   177    1
   145   119   120    1
   146   176   175    2
   147    28    29    1
   148   147   144    1
   149   177   178    1
   150   144   143    1
   151   221   220   ar
   152   120   121    1
   153   210   209    1
   154   216   217    2
   155   216   215    1
   156   209   208    1
   157    29    30    1
   158   208   207    1
   159   220   222   ar
   160   220   219    1
   161   215   214    1
   162   215   218    1
   163   121   122    1
   164   219   218    1
   165   130   128    1
   166   207   204    1
   167    30    31    1
   168   129   128    1
   169   138   137    2
   170   142   140   am
   171   128   127    1
   172    31    32    1
   173   204   203    1
   174   204   205    1
   175   183   182    2
   176   137   136    1
   177   140   139    1
   178   140   141    2
   179   186   188   ar
   180   186   185   ar
   181   203   194   am
   182   139   136    1
   183   127   124    1
   184   188   190   ar
   185   205   206    2
   186   184   185    1
   187   184   181    1
   188   136   135    1
   189   135   133   am
   190   194   195    2
   191   194   193    1
   192   182   181    1
   193   182   192   am
   194   124   125    1
   195   124   123    1
   196   185   187   ar
   197   131   132    1
   198   131   125   am
   199   181   180    1
   200   190   191    1
   201   190   189   ar
   202   132   133    1
   203   193   192    1
   204   193   196    1
   205   133   134    2
   206   125   126    2
   207   187   189   ar
   208   196   197    1
   209   198   197   ar
   210   198   200   ar
   211   197   199   ar
   212   200   202   ar
   213   199   201   ar
   214   202   201   ar
