@<TRIPOS>MOLECULE
tmp/5uzjB00.pdb
 201 193 0 0 0
SMALL
GASTEIGER

@<TRIPOS>ATOM
      1  N          2.6130  145.9750   20.5780 N.3    78  ILE78      -0.1231
      2  CA         1.2800  145.6290   20.0830 C.3    78  ILE78       0.1696
      3  C          0.4310  144.8580   21.1190 C.2    78  ILE78       0.2632
      4  O         -0.7250  144.5130   20.8280 O.2    78  ILE78      -0.2714
      5  CB         1.3540  144.8950   18.7120 C.3    78  ILE78       0.0266
      6  CG1        2.2400  143.6410   18.7640 C.3    78  ILE78       0.0019
      7  CG2        1.8010  145.8370   17.6020 C.3    78  ILE78       0.0020
      8  CD1        1.5380  142.4310   18.3870 C.3    78  ILE78       0.0001
      9  N          0.9870  144.6260   22.3120 N.am   79  GLY79      -0.1718
     10  CA         0.3050  143.8630   23.3450 C.2    79  GLY79       0.1480
     11  C          1.0470  143.7460   24.6500 C.2    79  GLY79       0.2820
     12  O          2.2370  144.0720   24.7520 O.2    79  GLY79      -0.2669
     13  N          0.3070  143.2760   25.6600 N.am   80  ARG80      -0.1929
     14  CA         0.7620  143.0400   27.0270 C.3    80  ARG80       0.1732
     15  C         -0.0400  141.8710   27.6210 C.2    80  ARG80       0.2617
     16  O         -1.1850  141.6240   27.2260 O.2    80  ARG80      -0.2715
     17  CB         0.6120  144.3090   27.8730 C.3    80  ARG80       0.0348
     18  CG         1.6210  144.4300   29.0010 C.3    80  ARG80       0.0492
     19  CD         2.7970  145.3490   28.6730 C.3    80  ARG80       0.2205
     20  NE         2.4010  146.6820   28.1870 N.pl3  80  ARG80      -0.0865
     21  CZ         3.2460  147.6860   27.9400 C.cat  80  ARG80       0.5346
     22  NH1        4.5480  147.5370   28.1490 N.pl3  80  ARG80       0.1354
     23  NH2        2.7920  148.8460   27.4840 N.pl3  80  ARG80       0.1354
     24  N          0.6110  141.1350   28.5140 N.am   81  GLY81      -0.1940
     25  CA         0.0650  139.9720   29.2040 C.3    81  GLY81       0.2014
     26  C          0.5930  139.8970   30.6210 C.2    81  GLY81       0.2639
     27  O          1.0910  140.9050   31.1580 O.2    81  GLY81      -0.2714
     28  N          0.5090  138.6930   31.2280 N.am   82  ALA82      -0.1963
     29  CA         0.9180  138.4540   32.6180 C.3    82  ALA82       0.1728
     30  C          2.4100  138.6450   32.8680 C.2    82  ALA82       0.2616
     31  O          2.8170  139.5620   33.6070 O.2    82  ALA82      -0.2715
     32  CB         0.4800  137.0650   33.0640 C.3    82  ALA82       0.0334
     33  N          3.2180  137.7940   32.2110 N.am   83  PHE83      -0.1960
     34  CA         4.6650  137.7350   32.3480 C.3    83  PHE83       0.1774
     35  C          5.4580  138.4480   31.2500 C.2    83  PHE83       0.2659
     36  O          6.6200  138.1260   31.0630 O.2    83  PHE83      -0.2711
     37  CB         5.0980  136.2750   32.4380 C.3    83  PHE83       0.0574
     38  CG         4.4350  135.4990   33.5380 C.ar   83  PHE83      -0.0200
     39  CD1        4.9290  135.5410   34.8350 C.ar   83  PHE83      -0.0042
     40  CD2        3.3330  134.6900   33.2720 C.ar   83  PHE83      -0.0042
     41  CE1        4.3370  134.7870   35.8490 C.ar   83  PHE83      -0.0003
     42  CE2        2.7320  133.9430   34.2930 C.ar   83  PHE83      -0.0003
     43  CZ         3.2380  133.9980   35.5760 C.ar   83  PHE83      -0.0000
     44  N          4.8720  139.4130   30.5590 N.am   84  GLY84      -0.1716
     45  CA         5.6210  140.1330   29.5410 C.2    84  GLY84       0.1480
     46  C          4.7970  140.9430   28.5700 C.2    84  GLY84       0.2820
     47  O          3.6550  141.3120   28.8620 O.2    84  GLY84      -0.2669
     48  N          5.3880  141.2250   27.4050 N.am   85  GLU85      -0.1929
     49  CA         4.7780  142.0040   26.3240 C.3    85  GLU85       0.1736
     50  C          5.1130  141.4410   24.9510 C.2    85  GLU85       0.2616
     51  O          6.1250  140.7400   24.7950 O.2    85  GLU85      -0.2715
     52  CB         5.1520  143.5090   26.4080 C.3    85  GLU85       0.0429
     53  CG         6.6070  143.8330   26.7300 C.3    85  GLU85       0.1163
     54  CD         6.9890  145.2800   26.4620 C.2    85  GLU85       0.3649
     55  OE1        7.1530  145.6440   25.2740 O.co2  85  GLU85      -0.2457
     56  OE2        7.1510  146.0460   27.4380 O.co2  85  GLU85      -0.2457
     57  N          4.2490  141.7310   23.9600 N.am   86  VAL86      -0.1977
     58  CA         4.4330  141.3040   22.5690 C.3    86  VAL86       0.1596
     59  C          4.7560  142.5520   21.8010 C.2    86  VAL86       0.2287
     60  O          4.1490  143.5880   22.0730 O.2    86  VAL86      -0.2864
     61  CB         3.1940  140.5650   21.9910 C.3    86  VAL86       0.0276
     62  CG1        3.4210  140.1410   20.5490 C.3    86  VAL86       0.0022
     63  CG2        2.8370  139.3520   22.8330 C.3    86  VAL86       0.0022
     64  N          6.5260  139.3590   14.9670 N.3    99  ALA99      -0.1245
     65  CA         5.9280  139.5990   16.2730 C.3    99  ALA99       0.1562
     66  C          6.7980  138.8320   17.3140 C.2    99  ALA99       0.2260
     67  O          7.1000  137.6360   17.1610 O.2    99  ALA99      -0.2867
     68  CB         4.4870  139.1140   16.3000 C.3    99  ALA99       0.0290
     69  N          7.1240  137.8670   21.3180 N.3   101  LYS101     -0.1231
     70  CA         6.5920  137.7490   22.6840 C.3   101  LYS101      0.1693
     71  C          7.7770  137.5740   23.6540 C.2   101  LYS101      0.2592
     72  O          8.6350  136.7060   23.4400 O.2   101  LYS101     -0.2718
     73  CB         5.6030  136.5850   22.8030 C.3   101  LYS101      0.0285
     74  CG         4.9760  136.4180   24.1960 C.3   101  LYS101      0.0035
     75  CD         3.8190  135.4210   24.1350 C.3   101  LYS101      0.0206
     76  CE         3.7770  134.4500   25.2890 C.3   101  LYS101      0.1093
     77  NZ         2.4270  133.8230   25.4180 N.3   101  LYS101     -0.1314
     78  N          7.8260  138.4270   24.6970 N.am  102  LEU102     -0.1966
     79  CA         8.8710  138.4360   25.7300 C.3   102  LEU102      0.1728
     80  C          8.3040  137.8460   27.0120 C.2   102  LEU102      0.2616
     81  O          7.1530  138.1450   27.3350 O.2   102  LEU102     -0.2715
     82  CB         9.3120  139.8880   26.0070 C.3   102  LEU102      0.0311
     83  CG        10.3840  140.5130   25.1300 C.3   102  LEU102      0.0022
     84  CD1        9.8950  140.7300   23.6850 C.3   102  LEU102      0.0001
     85  CD2       10.8030  141.8290   25.7070 C.3   102  LEU102      0.0001
     86  N          9.0830  137.0200   27.7480 N.am  103  LEU103     -0.1977
     87  CA         8.6310  136.4500   29.0340 C.3   103  LEU103      0.1596
     88  C          9.6560  136.6880   30.1230 C.2   103  LEU103      0.2287
     89  O         10.8010  136.2680   29.9710 O.2   103  LEU103     -0.2864
     90  CB         8.2520  134.9630   28.9510 C.3   103  LEU103      0.0297
     91  CG         7.1240  134.5370   27.9910 C.3   103  LEU103      0.0022
     92  CD1        6.9490  133.0330   28.0100 C.3   103  LEU103      0.0001
     93  CD2        5.8160  135.1960   28.3490 C.3   103  LEU103      0.0001
     94  N          4.9170  126.6130   31.3420 N.3   116  PHE116     -0.1241
     95  CA         3.8530  126.7230   30.3260 C.3   116  PHE116      0.1605
     96  C          4.3830  126.8820   28.9160 C.2   116  PHE116      0.2264
     97  O          3.8750  126.2310   27.9960 O.2   116  PHE116     -0.2867
     98  CB         2.8480  127.8400   30.6480 C.3   116  PHE116      0.0534
     99  CG         3.4640  129.1510   31.0660 C.ar  116  PHE116     -0.0203
    100  CD1        3.7950  129.3840   32.3840 C.ar  116  PHE116     -0.0042
    101  CD2        3.6990  130.1600   30.1400 C.ar  116  PHE116     -0.0042
    102  CE1        4.3520  130.6000   32.7750 C.ar  116  PHE116     -0.0003
    103  CE2        4.2670  131.3760   30.5300 C.ar  116  PHE116     -0.0003
    104  CZ         4.5640  131.6010   31.8510 C.ar  116  PHE116     -0.0000
    105  N          3.6610  125.9430   24.3640 N.3   120  GLU120     -0.1245
    106  CA         3.5560  127.0550   23.4140 C.3   120  GLU120      0.1567
    107  C          4.6640  127.0300   22.3280 C.2   120  GLU120      0.2260
    108  O          4.4010  127.3630   21.1690 O.2   120  GLU120     -0.2867
    109  CB         3.5430  128.3940   24.1700 C.3   120  GLU120      0.0388
    110  CG         3.7750  129.6050   23.2820 C.3   120  GLU120      0.1160
    111  CD         2.8290  130.7600   23.5120 C.2   120  GLU120      0.3649
    112  OE1        2.0650  131.1140   22.5820 O.co2 120  GLU120     -0.2457
    113  OE2        2.8480  131.3050   24.6390 O.co2 120  GLU120     -0.2457
    114  N          3.8850  126.0550   18.1720 N.3   124  MET124     -0.1245
    115  CA         4.1800  127.0500   17.1530 C.3   124  MET124      0.1570
    116  C          5.3560  126.6600   16.2340 C.2   124  MET124      0.2261
    117  O          5.3670  127.0250   15.0430 O.2   124  MET124     -0.2867
    118  CB         4.4510  128.4050   17.8120 C.3   124  MET124      0.0387
    119  CG         3.2580  129.0680   18.4210 C.3   124  MET124      0.0595
    120  SD         3.6020  130.8320   18.5680 S.3   124  MET124     -0.1393
    121  CE         4.8700  130.8440   19.8080 C.3   124  MET124      0.0692
    122  N         -0.0890  129.9850   14.3240 N.3   133  VAL133     -0.1245
    123  CA         0.9150  131.0480   14.2030 C.3   133  VAL133      0.1561
    124  C          2.3040  130.4010   14.2800 C.2   133  VAL133      0.2260
    125  O          2.5820  129.6360   15.2190 O.2   133  VAL133     -0.2867
    126  CB         0.7380  132.1620   15.2510 C.3   133  VAL133      0.0252
    127  CG1        1.9290  133.1240   15.2400 C.3   133  VAL133      0.0019
    128  CG2       -0.5700  132.9150   15.0280 C.3   133  VAL133      0.0019
    129  N          7.6830  135.1380   15.9980 N.3   149  MET149     -0.1230
    130  CA         6.5790  134.5840   15.1890 C.3   149  MET149      0.1702
    131  C          6.2340  135.4450   13.9710 C.2   149  MET149      0.2592
    132  O          6.6730  136.5910   13.9110 O.2   149  MET149     -0.2718
    133  CB         5.3190  134.4630   16.0580 C.3   149  MET149      0.0401
    134  CG         5.5650  133.8760   17.4310 C.3   149  MET149      0.0596
    135  SD         4.3100  134.4190   18.5940 S.3   149  MET149     -0.1393
    136  CE         4.9690  136.0130   19.0820 C.3   149  MET149      0.0692
    137  N          5.4120  134.9330   13.0210 N.am  150  GLU150     -0.1966
    138  CA         4.9550  135.7550   11.8810 C.3   150  GLU150      0.1733
    139  C          3.8600  136.6880   12.3740 C.2   150  GLU150      0.2616
    140  O          2.9650  136.2570   13.1120 O.2   150  GLU150     -0.2715
    141  CB         4.4850  134.9340   10.6670 C.3   150  GLU150      0.0429
    142  CG         3.4180  133.8960   10.9740 C.3   150  GLU150      0.1163
    143  CD         2.8320  133.1600    9.7860 C.2   150  GLU150      0.3649
    144  OE1        2.2960  132.0440   10.0010 O.co2 150  GLU150     -0.2457
    145  OE2        2.9190  133.6880    8.6470 O.co2 150  GLU150     -0.2457
    146  N          3.9750  137.9820   12.0340 N.am  151  TYR151     -0.1960
    147  CA         3.0360  139.0210   12.4730 C.3   151  TYR151      0.1771
    148  C          1.6620  138.9010   11.8060 C.2   151  TYR151      0.2619
    149  O          1.5790  138.8120   10.5720 O.2   151  TYR151     -0.2715
    150  CB         3.6570  140.4110   12.2600 C.3   151  TYR151      0.0574
    151  CG         2.6960  141.5750   12.3840 C.ar  151  TYR151     -0.0198
    152  CD1        2.0210  141.8250   13.5820 C.ar  151  TYR151     -0.0009
    153  CD2        2.5340  142.4880   11.3380 C.ar  151  TYR151     -0.0009
    154  CE1        1.1930  142.9360   13.7270 C.ar  151  TYR151      0.0417
    155  CE2        1.7100  143.6030   11.4730 C.ar  151  TYR151      0.0417
    156  CZ         1.0340  143.8160   12.6670 C.ar  151  TYR151      0.1957
    157  OH         0.2070  144.9020   12.8180 O.3   151  TYR151     -0.2866
    158  N          0.5970  138.8940   12.6380 N.am  152  MET152     -0.1977
    159  CA        -0.8020  138.8280   12.2050 C.3   152  MET152      0.1605
    160  C         -1.3460  140.2660   12.1280 C.2   152  MET152      0.2287
    161  O         -1.7010  140.8530   13.1520 O.2   152  MET152     -0.2864
    162  CB        -1.6120  137.9590   13.1640 C.3   152  MET152      0.0413
    163  CG        -1.1880  136.5120   13.1330 C.3   152  MET152      0.0598
    164  SD        -1.5230  135.7730   11.5220 S.3   152  MET152     -0.1393
    165  CE         0.0690  135.3320   11.0500 C.3   152  MET152      0.0692
    166  N         -6.5340  135.1320   15.9140 N.3   201  LEU201     -0.1245
    167  CA        -5.9380  136.2290   15.1380 C.3   201  LEU201      0.1561
    168  C         -6.2240  136.1570   13.6680 C.2   201  LEU201      0.2260
    169  O         -6.5100  135.0850   13.1430 O.2   201  LEU201     -0.2867
    170  CB        -4.4230  136.4120   15.3550 C.3   201  LEU201      0.0270
    171  CG        -3.8320  136.3960   16.7760 C.3   201  LEU201      0.0019
    172  CD1       -2.4050  136.8880   16.7570 C.3   201  LEU201      0.0001
    173  CD2       -4.6560  137.2050   17.7690 C.3   201  LEU201      0.0001
    174  N         -3.3210  131.7380   18.4590 N.3   211  ALA211     -0.1231
    175  CA        -2.1090  132.2620   19.1050 C.3   211  ALA211      0.1694
    176  C         -2.2300  132.2490   20.6500 C.2   211  ALA211      0.2592
    177  O         -3.3410  132.0690   21.1630 O.2   211  ALA211     -0.2718
    178  CB        -1.8180  133.6640   18.5940 C.3   211  ALA211      0.0304
    179  N         -1.0830  132.4100   21.3860 N.am  212  ASP212     -0.1974
    180  CA        -1.0400  132.3750   22.8600 C.3   212  ASP212      0.1709
    181  C         -1.4760  130.9910   23.4090 C.2   212  ASP212      0.2293
    182  O         -2.5900  130.8360   23.9270 O.2   212  ASP212     -0.2864
    183  CB        -1.8550  133.5400   23.4610 C.3   212  ASP212      0.1436
    184  CG        -1.8630  133.6840   24.9680 C.2   212  ASP212      0.3671
    185  OD1       -0.9570  133.1040   25.6310 O.co2 212  ASP212     -0.2456
    186  OD2       -2.7270  134.4400   25.4840 O.co2 212  ASP212     -0.2456
    187  N         -0.5540  129.3090   26.0130 N.3   214  GLY214     -0.1225
    188  CA        -0.1950  129.2840   27.4280 C.3   214  GLY214      0.1811
    189  C         -0.7730  128.1120   28.2020 C.2   214  GLY214      0.2280
    190  O         -0.0170  127.2570   28.6860 O.2   214  GLY214     -0.2866
    191  N         -4.3430  147.4150   16.1660 N.3   358  PHE358     -0.1241
    192  CA        -3.8260  147.2420   17.5140 C.3   358  PHE358      0.1605
    193  C         -3.8980  148.5230   18.3070 C.2   358  PHE358      0.2264
    194  O         -3.4350  149.5720   17.8460 O.2   358  PHE358     -0.2867
    195  CB        -2.4140  146.6320   17.4930 C.3   358  PHE358      0.0534
    196  CG        -2.3970  145.2620   16.8640 C.ar  358  PHE358     -0.0203
    197  CD1       -2.7710  144.1420   17.5950 C.ar  358  PHE358     -0.0042
    198  CD2       -2.0650  145.0990   15.5260 C.ar  358  PHE358     -0.0042
    199  CE1       -2.7860  142.8860   17.0080 C.ar  358  PHE358     -0.0003
    200  CE2       -2.0910  143.8370   14.9390 C.ar  358  PHE358     -0.0003
    201  CZ        -2.4380  142.7410   15.6880 C.ar  358  PHE358     -0.0000
@<TRIPOS>BOND
     1   145   143   ar
     2   143   144   ar
     3   143   142    1
     4   149   148    2
     5   141   142    1
     6   141   138    1
     7   165   164    1
     8   153   155   ar
     9   153   151   ar
    10   155   156   ar
    11   164   163    1
    12   148   147    1
    13   148   158   am
    14   138   139    1
    15   138   137    1
    16   146   139   am
    17   146   147    1
    18   160   159    1
    19   160   161    2
    20   159   158    1
    21   159   162    1
    22   150   151    1
    23   150   147    1
    24   139   140    2
    25   151   152   ar
    26   156   157    1
    27   156   154   ar
    28   137   131   am
    29   163   162    1
    30   169   168    2
    31   152   154   ar
    32   168   167    1
    33   132   131    2
    34   131   130    1
    35   123   124    1
    36   123   122    1
    37   123   126    1
    38   124   125    2
    39   200   198   ar
    40   200   201   ar
    41    64    65    1
    42   128   126    1
    43   117   116    2
    44   167   170    1
    45   167   166    1
    46   130   129    1
    47   130   133    1
    48   127   126    1
    49   170   171    1
    50   198   196   ar
    51   201   199   ar
    52   133   134    1
    53   191   192    1
    54   116   115    1
    55    65    68    1
    56    65    66    1
    57   172   171    1
    58   171   173    1
    59   196   195    1
    60   196   197   ar
    61   199   197   ar
    62   115   118    1
    63   115   114    1
    64    67    66    2
    65   134   135    1
    66   195   192    1
    67   192   193    1
    68     7     5    1
    69   118   119    1
    70   194   193    2
    71     8     6    1
    72   119   120    1
    73   174   175    1
    74   120   121    1
    75   135   136    1
    76   178   175    1
    77     5     6    1
    78     5     2    1
    79   175   176    1
    80     2     1    1
    81     2     3    1
    82    62    61    1
    83   176   177    2
    84   176   179   am
    85     4     3    2
    86     3     9    1
    87   108   107    2
    88    69    70    1
    89   179   180    1
    90    59    60    2
    91    59    58    1
    92    61    58    1
    93    61    63    1
    94     9    10    2
    95   107   106    1
    96    58    57    1
    97   112   111   ar
    98    70    73    1
    99    70    71    1
   100    73    74    1
   101   180   181    1
   102   180   183    1
   103   110   111    1
   104   110   109    1
   105    10    11    1
   106   181   182    2
   107   106   109    1
   108   106   105    1
   109    72    71    2
   110   183   184    1
   111   111   113   ar
   112    71    78   am
   113    84    83    1
   114    57    50   am
   115    75    74    1
   116    75    76    1
   117    11    12    2
   118    11    13   am
   119    78    79    1
   120    51    50    2
   121    50    49    1
   122   184   186   ar
   123   184   185   ar
   124    83    85    1
   125    83    82    1
   126    55    54   ar
   127    76    77    1
   128    13    14    1
   129    79    82    1
   130    79    80    1
   131   187   188    1
   132    49    52    1
   133    49    48    1
   134    52    53    1
   135    54    53    1
   136    54    56   ar
   137    80    81    2
   138    80    86   am
   139    14    15    1
   140    14    17    1
   141    16    15    2
   142    48    46   am
   143   188   189    1
   144    23    21    1
   145    15    24   am
   146    86    87    1
   147    17    18    1
   148    21    22    1
   149    21    20    2
   150    91    92    1
   151    91    93    1
   152    91    90    1
   153    97    96    2
   154    20    19    1
   155   189   190    2
   156    24    25    1
   157    46    47    2
   158    46    45    1
   159    19    18    1
   160    96    95    1
   161    90    87    1
   162    87    88    1
   163    25    26    1
   164    45    44    2
   165    89    88    2
   166   101   103   ar
   167   101    99   ar
   168    95    98    1
   169    95    94    1
   170   103   104   ar
   171    44    35    1
   172    26    27    2
   173    26    28   am
   174    98    99    1
   175    36    35    2
   176    99   100   ar
   177    28    29    1
   178    35    34    1
   179   104   102   ar
   180    33    34    1
   181    33    30   am
   182    34    37    1
   183   100   102   ar
   184    37    38    1
   185    29    30    1
   186    29    32    1
   187    30    31    2
   188    40    38   ar
   189    40    42   ar
   190    38    39   ar
   191    42    43   ar
   192    39    41   ar
   193    43    41   ar
