@<TRIPOS>MOLECULE
tmp/5uzsD05.pdb
 83 79 0 0 0
SMALL
GASTEIGER

@<TRIPOS>ATOM
      1  N        -13.4500   -6.3380   15.6400 N.3     8  LEU8       -0.1231
      2  CA       -12.4190   -6.6450   14.6550 C.3     8  LEU8        0.1693
      3  C        -11.4770   -5.4720   14.4040 C.2     8  LEU8        0.2592
      4  O        -10.2650   -5.6730   14.2720 O.2     8  LEU8       -0.2718
      5  CB       -13.0620   -7.0630   13.3390 C.3     8  LEU8        0.0284
      6  CG       -13.7870   -8.4020   13.2970 C.3     8  LEU8        0.0019
      7  CD1      -14.2700   -8.6520   11.8900 C.3     8  LEU8        0.0001
      8  CD2      -12.8900   -9.5280   13.7740 C.3     8  LEU8        0.0001
      9  N        -12.0140   -4.2530   14.3120 N.am    9  LYS9       -0.1966
     10  CA       -11.2900   -3.0980   13.7940 C.3     9  LYS9        0.1728
     11  C        -12.2310   -1.8990   13.8570 C.2     9  LYS9        0.2617
     12  O        -13.4170   -2.0360   14.1780 O.2     9  LYS9       -0.2715
     13  CB       -10.8240   -3.3260   12.3580 C.3     9  LYS9        0.0311
     14  CG       -11.9600   -3.3330   11.3500 C.3     9  LYS9        0.0038
     15  CD       -11.7080   -4.2750   10.1920 C.3     9  LYS9        0.0206
     16  CE       -12.5590   -3.8600    9.0090 C.3     9  LYS9        0.1093
     17  NZ       -12.5790   -4.8920    7.9430 N.3     9  LYS9       -0.1314
     18  N        -11.6860   -0.7170   13.5650 N.am   10  THR10      -0.1937
     19  CA       -12.5060    0.4590   13.3080 C.3    10  THR10       0.2028
     20  C        -12.7400    0.5670   11.8090 C.2    10  THR10       0.2642
     21  O        -11.8260    0.3510   11.0120 O.2    10  THR10      -0.2714
     22  CB       -11.8390    1.7350   13.8210 C.3    10  THR10       0.1808
     23  OG1      -11.7120    1.6680   15.2430 O.3    10  THR10      -0.2208
     24  CG2      -12.6640    2.9830   13.4350 C.3    10  THR10       0.0379
     25  N        -13.9730    0.8890   11.4360 N.am   11  ALA11      -0.1977
     26  CA       -14.3790    1.0410   10.0500 C.3    11  ALA11       0.1597
     27  C        -14.8390    2.4770    9.8250 C.2    11  ALA11       0.2287
     28  O        -15.4180    3.0930   10.7240 O.2    11  ALA11      -0.2864
     29  CB       -15.5150    0.0560    9.6980 C.3    11  ALA11       0.0319
     30  N        -21.4490   -6.2990    1.9690 N.3   156  ALA156     -0.1231
     31  CA       -20.4770   -5.3980    2.5740 C.3   156  ALA156      0.1694
     32  C        -19.1600   -6.0730    2.9290 C.2   156  ALA156      0.2593
     33  O        -18.3570   -5.4390    3.6160 O.2   156  ALA156     -0.2718
     34  CB       -21.0610   -4.7240    3.8460 C.3   156  ALA156      0.0304
     35  N        -18.8910   -7.3130    2.5020 N.am  157  THR157     -0.1940
     36  CA       -17.6430   -7.9770    2.8680 C.3   157  THR157      0.2013
     37  C        -16.9780   -8.6250    1.6630 C.2   157  THR157      0.2484
     38  O        -17.6530   -8.9880    0.6920 O.2   157  THR157     -0.2729
     39  CB       -17.8640   -9.0600    3.9310 C.3   157  THR157      0.1807
     40  OG1      -18.7410  -10.0700    3.4080 O.3   157  THR157     -0.2208
     41  CG2      -18.4510   -8.4740    5.1790 C.3   157  THR157      0.0379
     42  N        -15.6470   -8.8000    1.7150 N.am  158  PRO158     -0.2726
     43  CA       -14.9450   -9.4910    0.6170 C.3   158  PRO158      0.1402
     44  C        -15.4370  -10.9070    0.3850 C.2   158  PRO158      0.2269
     45  O        -15.5230  -11.3560   -0.7700 O.2   158  PRO158     -0.2865
     46  CB       -13.4740   -9.4760    1.0720 C.3   158  PRO158      0.0296
     47  CG       -13.3740   -8.4000    2.0670 C.3   158  PRO158      0.0237
     48  CD       -14.7130   -8.3130    2.7480 C.3   158  PRO158      0.0939
     49  N        -21.8960   -1.9850    7.8260 N.3   192  VAL192     -0.1245
     50  CA       -20.4690   -1.6710    7.7380 C.3   192  VAL192      0.1561
     51  C        -20.3360   -0.2640    7.1700 C.2   192  VAL192      0.2260
     52  O        -20.8170   -0.0200    6.0540 O.2   192  VAL192     -0.2867
     53  CB       -19.7110   -2.6840    6.8640 C.3   192  VAL192      0.0252
     54  CG1      -18.2850   -2.2340    6.6890 C.3   192  VAL192      0.0019
     55  CG2      -19.7600   -4.0690    7.4700 C.3   192  VAL192      0.0019
     56  N        -15.0990    1.9880    4.2620 N.3   196  THR196     -0.1203
     57  CA       -14.3960    0.7360    4.5330 C.3   196  THR196      0.1994
     58  C        -15.0070   -0.4220    3.7460 C.2   196  THR196      0.2617
     59  O        -14.2850   -1.2670    3.2000 O.2   196  THR196     -0.2717
     60  CB       -14.4350    0.4330    6.0370 C.3   196  THR196      0.1784
     61  OG1      -13.5150    1.2930    6.7300 O.3   196  THR196     -0.2211
     62  CG2      -14.0250   -1.0200    6.3010 C.3   196  THR196      0.0376
     63  N        -16.3360   -0.4800    3.6790 N.am  197  ALA197     -0.1979
     64  CA       -16.9880   -1.5440    2.9100 C.3   197  ALA197      0.1597
     65  C        -16.6280   -1.4580    1.4300 C.2   197  ALA197      0.2287
     66  O        -16.3490   -2.4820    0.7980 O.2   197  ALA197     -0.2864
     67  CB       -18.5090   -1.4960    3.1000 C.3   197  ALA197      0.0319
     68  N        -13.8710   -0.0250    0.1020 N.3   199  MET199     -0.1230
     69  CA       -12.4510   -0.3400   -0.0940 C.3   199  MET199      0.1702
     70  C        -12.2050   -1.8390    0.0050 C.2   199  MET199      0.2592
     71  O        -11.5690   -2.4290   -0.8720 O.2   199  MET199     -0.2718
     72  CB       -11.5710    0.3750    0.9250 C.3   199  MET199      0.0401
     73  CG       -11.0260    1.7050    0.5110 C.3   199  MET199      0.0596
     74  SD        -9.9200    2.3890    1.7780 S.3   199  MET199     -0.1393
     75  CE        -8.3970    1.5420    1.3920 C.3   199  MET199      0.0692
     76  N        -12.6940   -2.4680    1.0800 N.am  200  ASP200     -0.1974
     77  CA       -12.5210   -3.9070    1.2380 C.3   200  ASP200      0.1709
     78  C        -13.1120   -4.6600    0.0430 C.2   200  ASP200      0.2293
     79  O        -12.4690   -5.5460   -0.5300 O.2   200  ASP200     -0.2864
     80  CB       -13.1650   -4.3810    2.5480 C.3   200  ASP200      0.1436
     81  CG       -12.4250   -3.8920    3.8130 C.2   200  ASP200      0.3671
     82  OD1      -12.9580   -4.1020    4.9420 O.co2 200  ASP200     -0.2456
     83  OD2      -11.3220   -3.3120    3.6920 O.co2 200  ASP200     -0.2456
@<TRIPOS>BOND
     1    71    70    2
     2    45    44    2
     3    79    78    2
     4    69    70    1
     5    69    68    1
     6    69    72    1
     7    70    76   am
     8    78    77    1
     9    44    43    1
    10    73    72    1
    11    73    74    1
    12    43    46    1
    13    43    42    1
    14    38    37    2
    15    66    65    2
    16    46    47    1
    17    76    77    1
    18    77    80    1
    19    75    74    1
    20    65    64    1
    21    37    42   am
    22    37    36    1
    23    42    48    1
    24    30    31    1
    25    47    48    1
    26    35    36    1
    27    35    32   am
    28    80    81    1
    29    31    32    1
    30    31    34    1
    31    36    39    1
    32    64    67    1
    33    64    63    1
    34    32    33    2
    35    59    58    2
    36    40    39    1
    37    63    58   am
    38    83    81   ar
    39    58    57    1
    40    81    82   ar
    41    39    41    1
    42    56    57    1
    43    57    60    1
    44    60    62    1
    45    60    61    1
    46    52    51    2
    47    54    53    1
    48    53    55    1
    49    53    50    1
    50    51    50    1
    51    50    49    1
    52    17    16    1
    53    16    15    1
    54    29    26    1
    55    27    26    1
    56    27    28    2
    57    26    25    1
    58    15    14    1
    59    21    20    2
    60    14    13    1
    61    25    20   am
    62    20    19    1
    63     7     6    1
    64    13    10    1
    65     6     5    1
    66     6     8    1
    67    19    18    1
    68    19    22    1
    69     5     2    1
    70    24    22    1
    71    18    11   am
    72    10    11    1
    73    10     9    1
    74    22    23    1
    75    11    12    2
    76     4     3    2
    77     9     3   am
    78     3     2    1
    79     2     1    1
