@<TRIPOS>MOLECULE
tmp/5uzsB01.pdb
 129 121 0 0 0
SMALL
GASTEIGER

@<TRIPOS>ATOM
      1  N        -40.0530   -3.3650   43.9000 N.3    75  LYS75      -0.1245
      2  CA       -40.1090   -3.5450   45.3440 C.3    75  LYS75       0.1561
      3  C        -40.4900   -2.2720   46.0940 C.2    75  LYS75       0.2260
      4  O        -40.3990   -2.2400   47.3250 O.2    75  LYS75      -0.2867
      5  CB       -38.7700   -4.0710   45.8520 C.3    75  LYS75       0.0271
      6  CG       -37.6100   -3.1130   45.6690 C.3    75  LYS75       0.0035
      7  CD       -36.3180   -3.7400   46.1780 C.3    75  LYS75       0.0206
      8  CE       -35.0860   -3.1340   45.4950 C.3    75  LYS75       0.1093
      9  NZ       -34.8150   -1.7400   45.9410 N.3    75  LYS75      -0.1314
     10  N        -28.8390   -4.0620   43.5690 N.3   126  THR126     -0.1203
     11  CA       -28.3940   -2.9150   44.3230 C.3   126  THR126      0.1994
     12  C        -27.7500   -1.9530   43.3460 C.2   126  THR126      0.2618
     13  O        -27.4670   -2.2960   42.1930 O.2   126  THR126     -0.2717
     14  CB       -27.3990   -3.3210   45.4150 C.3   126  THR126      0.1784
     15  OG1      -27.8040   -4.5820   45.9500 O.3   126  THR126     -0.2211
     16  CG2      -27.3510   -2.2810   46.5470 C.3   126  THR126      0.0376
     17  N        -27.5270   -0.7310   43.8190 N.am  127  ALA127     -0.1965
     18  CA       -26.6720    0.1740   43.0780 C.3   127  ALA127      0.1728
     19  C        -25.3270   -0.4740   42.7850 C.2   127  ALA127      0.2616
     20  O        -24.7450   -0.2360   41.7240 O.2   127  ALA127     -0.2715
     21  CB       -26.4930    1.4720   43.8660 C.3   127  ALA127      0.0334
     22  N        -24.8250   -1.3120   43.7020 N.am  128  HIS128     -0.1973
     23  CA       -23.4660   -1.8550   43.6030 C.3   128  HIS128      0.1656
     24  C        -23.4920   -3.3320   43.9890 C.2   128  HIS128      0.2291
     25  O        -23.3510   -3.6820   45.1640 O.2   128  HIS128     -0.2864
     26  CB       -22.4930   -1.0720   44.4730 C.3   128  HIS128      0.0771
     27  CG       -21.0670   -1.4800   44.2800 C.ar  128  HIS128      0.0820
     28  ND1      -20.6020   -2.0040   43.0940 N.ar  128  HIS128     -0.2267
     29  CD2      -20.0080   -1.4530   45.1210 C.ar  128  HIS128      0.1154
     30  CE1      -19.3150   -2.2710   43.2080 C.ar  128  HIS128      0.1986
     31  NE2      -18.9330   -1.9530   44.4320 N.ar  128  HIS128     -0.2212
     32  N        -20.4690   -6.2420   46.1270 N.3   131  SER131     -0.1217
     33  CA       -20.3730   -5.7360   47.4810 C.3   131  SER131      0.1889
     34  C        -20.4710   -6.8970   48.4570 C.2   131  SER131      0.2288
     35  O        -20.8900   -8.0020   48.1040 O.2   131  SER131     -0.2866
     36  CB       -21.4650   -4.6960   47.7520 C.3   131  SER131      0.2089
     37  OG       -22.6920   -5.1240   47.1960 O.3   131  SER131     -0.2183
     38  N        -26.5010   -4.8530   40.4510 N.3   154  ASN154     -0.1240
     39  CA       -25.9210   -4.7630   39.1170 C.3   154  ASN154      0.1653
     40  C        -24.4070   -4.7040   39.2140 C.2   154  ASN154      0.2266
     41  O        -23.8490   -4.2910   40.2300 O.2   154  ASN154     -0.2867
     42  CB       -26.4720   -3.5490   38.3840 C.3   154  ASN154      0.1155
     43  CG       -27.7530   -3.8670   37.6390 C.2   154  ASN154      0.2627
     44  OD1      -28.4490   -4.8380   37.9610 O.2   154  ASN154     -0.2716
     45  ND2      -28.0560   -3.0730   36.6150 N.am  154  ASN154     -0.0877
     46  N        -23.9080   -0.6850   35.0530 N.3   176  ILE176     -0.1231
     47  CA       -23.6670    0.4030   35.9930 C.3   176  ILE176      0.1692
     48  C        -23.6760    1.6970   35.1850 C.2   176  ILE176      0.2592
     49  O        -22.7070    2.0160   34.4790 O.2   176  ILE176     -0.2718
     50  CB       -22.3520    0.2300   36.7570 C.3   176  ILE176      0.0266
     51  CG1      -22.4210   -1.0080   37.6430 C.3   176  ILE176      0.0019
     52  CG2      -22.0730    1.4500   37.6040 C.3   176  ILE176      0.0020
     53  CD1      -23.4850   -0.9070   38.6870 C.3   176  ILE176      0.0001
     54  N        -24.7810    2.4380   35.2600 N.am  177  GLY177     -0.1957
     55  CA       -24.8450    3.7380   34.6360 C.3   177  GLY177      0.1869
     56  C        -25.6090    3.9200   33.3280 C.2   177  GLY177      0.2309
     57  O        -26.0220    5.0480   33.0310 O.2   177  GLY177     -0.2863
     58  N        -30.6730    7.3940   34.3910 N.3   182  CYS182     -0.1235
     59  CA       -29.6480    7.2050   35.4090 C.3   182  CYS182      0.1677
     60  C        -28.6400    8.3490   35.3880 C.2   182  CYS182      0.2270
     61  O        -28.2270    8.7920   34.3180 O.2   182  CYS182     -0.2867
     62  CB       -28.9420    5.8710   35.1790 C.3   182  CYS182      0.0956
     63  SG       -27.5740    5.5550   36.2490 S.3   182  CYS182     -0.0801
     64  N        -25.9530    8.0050   37.8250 N.3   184  THR184     -0.1218
     65  CA       -24.8570    7.4640   38.6270 C.3   184  THR184      0.1862
     66  C        -23.4880    7.8580   38.0790 C.2   184  THR184      0.2287
     67  O        -22.5730    8.1740   38.8470 O.2   184  THR184     -0.2866
     68  CB       -24.9790    5.9430   38.7060 C.3   184  THR184      0.1770
     69  OG1      -26.1590    5.6190   39.4410 O.3   184  THR184     -0.2211
     70  CG2      -23.7580    5.3100   39.3870 C.3   184  THR184      0.0375
     71  N        -21.5320   10.1370   40.7620 N.3   188  ALA188     -0.1245
     72  CA       -20.4250    9.4060   41.3680 C.3   188  ALA188      0.1562
     73  C        -19.2390    9.1670   40.4320 C.2   188  ALA188      0.2260
     74  O        -18.1740    8.7740   40.9120 O.2   188  ALA188     -0.2867
     75  CB       -20.9110    8.0620   41.9230 C.3   188  ALA188      0.0290
     76  N        -35.4260    4.8810   39.8660 N.3   264  MET264     -0.1230
     77  CA       -35.7020    4.5360   41.2480 C.3   264  MET264      0.1702
     78  C        -34.6990    5.1450   42.2170 C.2   264  MET264      0.2592
     79  O        -34.9110    5.0690   43.4330 O.2   264  MET264     -0.2718
     80  CB       -35.7740    3.0150   41.4070 C.3   264  MET264      0.0401
     81  CG       -36.7580    2.4070   40.4390 C.3   264  MET264      0.0596
     82  SD       -38.4050    2.4630   41.1960 S.3   264  MET264     -0.1393
     83  CE       -38.2830    1.2170   42.4770 C.3   264  MET264      0.0692
     84  N        -33.6410    5.7720   41.7120 N.am  265  GLY265     -0.1957
     85  CA       -32.7750    6.6290   42.4960 C.3   265  GLY265      0.1869
     86  C        -33.1370    8.1020   42.4600 C.2   265  GLY265      0.2309
     87  O        -32.4400    8.9350   43.0570 O.2   265  GLY265     -0.2863
     88  N        -38.0330    7.7980   45.6270 N.3   270  MET270     -0.1245
     89  CA       -37.5620    7.5330   46.9790 C.3   270  MET270      0.1570
     90  C        -38.4000    8.1970   48.0660 C.2   270  MET270      0.2261
     91  O        -38.0920    8.0230   49.2490 O.2   270  MET270     -0.2867
     92  CB       -36.1010    7.9770   47.1180 C.3   270  MET270      0.0387
     93  CG       -35.1120    6.9790   46.5440 C.3   270  MET270      0.0595
     94  SD       -33.3980    7.5480   46.6440 S.3   270  MET270     -0.1393
     95  CE       -33.5240    9.2730   46.1760 C.3   270  MET270      0.0692
     96  N        -28.9950   10.2240   51.7300 N.3   272  PHE272     -0.1227
     97  CA       -28.4020    9.7560   50.4780 C.3   272  PHE272      0.1736
     98  C        -28.8000   10.6160   49.2810 C.2   272  PHE272      0.2595
     99  O        -29.9140   11.1280   49.1890 O.2   272  PHE272     -0.2718
    100  CB       -28.7850    8.3010   50.1940 C.3   272  PHE272      0.0547
    101  CG       -27.6940    7.3090   50.5070 C.ar  272  PHE272     -0.0202
    102  CD1      -27.0810    7.3030   51.7560 C.ar  272  PHE272     -0.0042
    103  CD2      -27.2920    6.3730   49.5550 C.ar  272  PHE272     -0.0042
    104  CE1      -26.0820    6.3870   52.0510 C.ar  272  PHE272     -0.0003
    105  CE2      -26.2930    5.4520   49.8410 C.ar  272  PHE272     -0.0003
    106  CZ       -25.6860    5.4580   51.0920 C.ar  272  PHE272     -0.0000
    107  N        -27.8700   10.7330   48.3460 N.am  273  VAL273     -0.1966
    108  CA       -27.9590   11.6970   47.2570 C.3   273  VAL273      0.1712
    109  C        -28.5850   11.0110   46.0430 C.2   273  VAL273      0.2458
    110  O        -28.2670    9.8450   45.7730 O.2   273  VAL273     -0.2730
    111  CB       -26.5620   12.2790   46.9890 C.3   273  VAL273      0.0289
    112  CG1      -26.4240   12.7570   45.6070 C.3   273  VAL273      0.0023
    113  CG2      -26.2890   13.4090   47.9690 C.3   273  VAL273      0.0023
    114  N        -29.4880   11.6730   45.3040 N.am  274  PRO274     -0.2716
    115  CA       -30.1720   10.9970   44.1880 C.3   274  PRO274      0.1536
    116  C        -29.2110   10.5890   43.0870 C.2   274  PRO274      0.2598
    117  O        -28.1910   11.2420   42.8470 O.2   274  PRO274     -0.2715
    118  CB       -31.1690   12.0460   43.6810 C.3   274  PRO274      0.0310
    119  CG       -30.6620   13.3420   44.1820 C.3   274  PRO274      0.0237
    120  CD       -29.9660   13.0560   45.4860 C.3   274  PRO274      0.0939
    121  N        -29.5660    9.4850   42.4160 N.am  275  GLU275     -0.1978
    122  CA       -28.8290    8.9610   41.2710 C.3   275  GLU275      0.1602
    123  C        -29.7550    8.6800   40.0910 C.2   275  GLU275      0.2287
    124  O        -29.4370    7.8440   39.2350 O.2   275  GLU275     -0.2864
    125  CB       -28.0590    7.6920   41.6520 C.3   275  GLU275      0.0415
    126  CG       -27.2360    7.8210   42.9330 C.3   275  GLU275      0.1163
    127  CD       -26.1370    6.7850   43.0190 C.2   275  GLU275      0.3649
    128  OE1      -26.0640    5.9290   42.1130 O.co2 275  GLU275     -0.2457
    129  OE2      -25.3430    6.8280   43.9830 O.co2 275  GLU275     -0.2457
@<TRIPOS>BOND
     1    57    56    2
     2    56    55    1
     3    61    60    2
     4    58    59    1
     5    49    48    2
     6    55    54    1
     7    46    47    1
     8    62    59    1
     9    62    63    1
    10    48    54   am
    11    48    47    1
    12    60    59    1
    13    47    50    1
    14    45    43   am
    15    50    52    1
    16    50    51    1
    17    43    44    2
    18    43    42    1
    19    51    53    1
    20    64    65    1
    21    66    65    1
    22    66    67    2
    23    42    39    1
    24    65    68    1
    25    68    70    1
    26    68    69    1
    27    39    40    1
    28    39    38    1
    29    40    41    2
    30   124   123    2
    31    76    77    1
    32   123   122    1
    33    73    74    2
    34    73    72    1
    35    81    82    1
    36    81    80    1
    37    71    72    1
    38    82    83    1
    39    77    80    1
    40    77    78    1
    41   122   125    1
    42   122   121    1
    43    72    75    1
    44   125   126    1
    45    84    78   am
    46    84    85    1
    47    20    19    2
    48   128   127   ar
    49    13    12    2
    50    78    79    2
    51   121   116   am
    52    86    85    1
    53    86    87    2
    54    19    18    1
    55    19    22   am
    56   117   116    2
    57   126   127    1
    58   127   129   ar
    59    18    17    1
    60    18    21    1
    61   116   115    1
    62    28    30   ar
    63    28    27   ar
    64    30    31   ar
    65    12    17   am
    66    12    11    1
    67    10    11    1
    68    23    22    1
    69    23    24    1
    70    23    26    1
    71   118   119    1
    72   118   115    1
    73     1     2    1
    74    24    25    2
    75   119   120    1
    76   115   114    1
    77    27    26    1
    78    27    29   ar
    79    11    14    1
    80    31    29   ar
    81   114   120    1
    82   114   109   am
    83     2     5    1
    84     2     3    1
    85    14    15    1
    86    14    16    1
    87     8     9    1
    88     8     7    1
    89   112   111    1
    90    88    89    1
    91     6     5    1
    92     6     7    1
    93   110   109    2
    94   109   108    1
    95     3     4    2
    96    32    33    1
    97    95    94    1
    98    93    94    1
    99    93    92    1
   100    89    92    1
   101    89    90    1
   102   111   108    1
   103   111   113    1
   104    37    36    1
   105   108   107    1
   106    33    36    1
   107    33    34    1
   108    90    91    2
   109    35    34    2
   110   107    98   am
   111    99    98    2
   112    98    97    1
   113   103   105   ar
   114   103   101   ar
   115   105   106   ar
   116   100    97    1
   117   100   101    1
   118    97    96    1
   119   101   102   ar
   120   106   104   ar
   121   102   104   ar
