@<TRIPOS>MOLECULE
tmp/5uzwC01.pdb
 164 159 0 0 0
SMALL
GASTEIGER

@<TRIPOS>ATOM
      1  N         71.7390   35.3540  108.3050 N.3   177  LYS177     -0.1231
      2  CA        70.7090   35.1450  107.2830 C.3   177  LYS177      0.1693
      3  C         69.4450   34.5240  107.8820 C.2   177  LYS177      0.2592
      4  O         68.5010   35.2430  108.1990 O.2   177  LYS177     -0.2718
      5  CB        71.2440   34.2660  106.1510 C.3   177  LYS177      0.0285
      6  CG        71.9800   35.0280  105.0710 C.3   177  LYS177      0.0035
      7  CD        72.4050   34.0740  103.9830 C.3   177  LYS177      0.0206
      8  CE        73.5620   34.5680  103.1990 C.3   177  LYS177      0.1093
      9  NZ        73.2960   35.8470  102.5040 N.3   177  LYS177     -0.1314
     10  N         69.4370   33.1960  108.0320 N.am  178  PHE178     -0.1976
     11  CA        68.2310   32.4570  108.4480 C.3   178  PHE178      0.1639
     12  C         68.2590   32.0040  109.9040 C.2   178  PHE178      0.2290
     13  O         67.3460   31.3140  110.3570 O.2   178  PHE178     -0.2864
     14  CB        68.0190   31.2400  107.5480 C.3   178  PHE178      0.0560
     15  CG        67.9280   31.5850  106.0990 C.ar  178  PHE178     -0.0200
     16  CD1       67.0290   32.5520  105.6560 C.ar  178  PHE178     -0.0042
     17  CD2       68.7500   30.9620  105.1700 C.ar  178  PHE178     -0.0042
     18  CE1       66.9500   32.8890  104.3160 C.ar  178  PHE178     -0.0003
     19  CE2       68.6760   31.2990  103.8270 C.ar  178  PHE178     -0.0003
     20  CZ        67.7760   32.2600  103.3970 C.ar  178  PHE178     -0.0000
     21  N         77.5400   33.7530  109.5040 N.3   195  TYR195     -0.1241
     22  CA        78.5830   33.4080  108.5510 C.3   195  TYR195      0.1605
     23  C         79.7780   34.3190  108.8340 C.2   195  TYR195      0.2264
     24  O         79.6220   35.3850  109.4410 O.2   195  TYR195     -0.2867
     25  CB        78.0340   33.5710  107.1370 C.3   195  TYR195      0.0534
     26  CG        76.9530   32.5430  106.8040 C.ar  195  TYR195     -0.0201
     27  CD1       75.5990   32.7780  107.0850 C.ar  195  TYR195     -0.0009
     28  CD2       77.2870   31.3340  106.2250 C.ar  195  TYR195     -0.0009
     29  CE1       74.6200   31.8500  106.7850 C.ar  195  TYR195      0.0417
     30  CE2       76.3210   30.4020  105.9220 C.ar  195  TYR195      0.0417
     31  CZ        74.9950   30.6610  106.2070 C.ar  195  TYR195      0.1957
     32  OH        74.0550   29.7170  105.8820 O.3   195  TYR195     -0.2866
     33  N         75.0400   23.4680  106.8070 N.3   228  HIS228     -0.1241
     34  CA        74.4280   24.6180  107.4610 C.3   228  HIS228      0.1621
     35  C         73.6770   24.1990  108.7240 C.2   228  HIS228      0.2264
     36  O         73.4720   23.0140  108.9720 O.2   228  HIS228     -0.2867
     37  CB        73.5460   25.3850  106.4800 C.3   228  HIS228      0.0745
     38  CG        72.4650   24.5680  105.8450 C.ar  228  HIS228      0.0817
     39  ND1       71.1850   24.4920  106.3660 N.ar  228  HIS228     -0.2268
     40  CD2       72.4570   23.8190  104.7170 C.ar  228  HIS228      0.1154
     41  CE1       70.4450   23.7070  105.6030 C.ar  228  HIS228      0.1986
     42  NE2       71.1920   23.2860  104.5960 N.ar  228  HIS228     -0.2212
     43  N         72.5000   20.2680  102.2760 N.3   247  GLY247     -0.1210
     44  CA        71.5590   20.5440  101.1910 C.3   247  GLY247      0.1956
     45  C         70.1270   20.7620  101.6610 C.2   247  GLY247      0.2612
     46  O         69.9140   21.3710  102.7090 O.2   247  GLY247     -0.2717
     47  N         69.1510   20.2990  100.8720 N.am  248  CYS248     -0.1970
     48  CA        67.7200   20.4000  101.2140 C.3   248  CYS248      0.1712
     49  C         67.1170   19.0190  101.5080 C.2   248  CYS248      0.2296
     50  O         65.8990   18.8430  101.4620 O.2   248  CYS248     -0.2864
     51  CB        66.9520   21.1100  100.0880 C.3   248  CYS248      0.0983
     52  SG        67.3100   22.8840   99.9500 S.3   248  CYS248     -0.0798
     53  N         53.3880   22.7470   92.8030 N.3   464  TYR464     -0.1241
     54  CA        54.8150   23.0080   93.1010 C.3   464  TYR464      0.1605
     55  C         55.6830   21.8280   92.6640 C.2   464  TYR464      0.2264
     56  O         56.4180   21.9580   91.6570 O.2   464  TYR464     -0.2867
     57  CB        55.0060   23.3340   94.5820 C.3   464  TYR464      0.0534
     58  CG        56.3920   23.8080   95.0100 C.ar  464  TYR464     -0.0201
     59  CD1       56.7610   25.1540   94.9190 C.ar  464  TYR464     -0.0009
     60  CD2       57.3120   22.9230   95.5700 C.ar  464  TYR464     -0.0009
     61  CE1       58.0160   25.5800   95.3380 C.ar  464  TYR464      0.0417
     62  CE2       58.5740   23.3390   95.9950 C.ar  464  TYR464      0.0417
     63  CZ        58.9250   24.6630   95.8820 C.ar  464  TYR464      0.1957
     64  OH        60.1750   25.0790   96.3070 O.3   464  TYR464     -0.2866
     65  N         60.9600   18.8560   96.8730 N.3   467  PHE467     -0.1241
     66  CA        61.5680   19.2990   98.1480 C.3   467  PHE467      0.1605
     67  C         60.7020   19.0330   99.3780 C.2   467  PHE467      0.2264
     68  O         60.7740   19.7400  100.3760 O.2   467  PHE467     -0.2867
     69  CB        61.9450   20.7960   98.0750 C.3   467  PHE467      0.0534
     70  CG        62.8130   21.1400   96.9020 C.ar  467  PHE467     -0.0203
     71  CD1       64.1940   21.0570   97.0040 C.ar  467  PHE467     -0.0042
     72  CD2       62.2470   21.4810   95.6780 C.ar  467  PHE467     -0.0042
     73  CE1       65.0000   21.3210   95.9010 C.ar  467  PHE467     -0.0003
     74  CE2       63.0440   21.7600   94.5770 C.ar  467  PHE467     -0.0003
     75  CZ        64.4270   21.6920   94.6940 C.ar  467  PHE467     -0.0000
     76  N         57.7380   19.7330  100.0300 N.3   469  ILE469     -0.1245
     77  CA        56.7950   20.7790  100.4220 C.3   469  ILE469      0.1561
     78  C         55.3640   20.2970  100.2560 C.2   469  ILE469      0.2260
     79  O         55.0120   19.7160   99.2280 O.2   469  ILE469     -0.2867
     80  CB        56.9450   22.0670   99.5970 C.3   469  ILE469      0.0252
     81  CG1       58.3740   22.6260   99.6660 C.3   469  ILE469      0.0019
     82  CG2       55.9760   23.1170  100.0880 C.3   469  ILE469      0.0019
     83  CD1       58.9700   22.7080  101.0540 C.3   469  ILE469      0.0001
     84  N         59.1750   29.3690   91.7320 N.3   545  SER545     -0.1202
     85  CA        60.4220   28.7200   92.0850 C.3   545  SER545      0.2020
     86  C         60.4560   27.3390   91.3990 C.2   545  SER545      0.2618
     87  O         60.4200   27.2580   90.1840 O.2   545  SER545     -0.2717
     88  CB        60.5820   28.6900   93.6310 C.3   545  SER545      0.2103
     89  OG        61.8820   28.2280   94.0460 O.3   545  SER545     -0.2182
     90  N         60.4910   26.2540   92.1680 N.am  546  ASN546     -0.1974
     91  CA        60.4210   24.9000   91.6180 C.3   546  ASN546      0.1688
     92  C         59.1310   24.6140   90.8410 C.2   546  ASN546      0.2292
     93  O         59.0720   23.6870   90.0390 O.2   546  ASN546     -0.2864
     94  CB        60.5480   23.9010   92.7580 C.3   546  ASN546      0.1181
     95  CG        60.3760   22.4800   92.2950 C.2   546  ASN546      0.2629
     96  OD1       61.2530   21.9270   91.6420 O.2   546  ASN546     -0.2716
     97  ND2       59.2210   21.8940   92.5890 N.am  546  ASN546     -0.0877
     98  N         63.2370   27.8340   87.9580 N.3   571  VAL571     -0.1245
     99  CA        64.5120   27.2500   87.5830 C.3   571  VAL571      0.1561
    100  C         64.4450   26.6220   86.1790 C.2   571  VAL571      0.2260
    101  O         63.9910   25.4880   85.9890 O.2   571  VAL571     -0.2867
    102  CB        64.9670   26.1570   88.5790 C.3   571  VAL571      0.0252
    103  CG1       66.3950   25.6820   88.2630 C.3   571  VAL571      0.0019
    104  CG2       64.9000   26.6640   90.0090 C.3   571  VAL571      0.0019
    105  N         73.8160   29.2840   95.7900 N.3   582  LEU582     -0.1245
    106  CA        72.9910   28.4000   96.6200 C.3   582  LEU582      0.1561
    107  C         72.1880   27.3420   95.8750 C.2   582  LEU582      0.2260
    108  O         71.6580   26.4320   96.5130 O.2   582  LEU582     -0.2867
    109  CB        72.1410   29.0620   97.7380 C.3   582  LEU582      0.0270
    110  CG        70.7640   29.6900   97.6500 C.3   582  LEU582      0.0019
    111  CD1       69.7570   28.8430   96.9040 C.3   582  LEU582      0.0001
    112  CD2       70.2610   29.9640   99.0570 C.3   582  LEU582      0.0001
    113  N         72.6580   23.6480   96.7000 N.3   585  LEU585     -0.1231
    114  CA        71.8270   22.9320   97.6870 C.3   585  LEU585      0.1693
    115  C         70.6200   22.2080   97.0960 C.2   585  LEU585      0.2592
    116  O         69.8770   21.5660   97.8350 O.2   585  LEU585     -0.2718
    117  CB        71.2720   23.8820   98.7560 C.3   585  LEU585      0.0284
    118  CG        72.1580   24.9610   99.3740 C.3   585  LEU585      0.0019
    119  CD1       71.3280   26.0930   99.9640 C.3   585  LEU585      0.0001
    120  CD2       73.0440   24.3150  100.4270 C.3   585  LEU585      0.0001
    121  N         70.4140   22.3360   95.7870 N.am  586  TRP586     -0.1976
    122  CA        69.2730   21.7180   95.1400 C.3   586  TRP586      0.1640
    123  C         69.6270   20.4410   94.3810 C.2   586  TRP586      0.2290
    124  O         68.8120   19.9640   93.5980 O.2   586  TRP586     -0.2864
    125  CB        68.5920   22.7210   94.2020 C.3   586  TRP586      0.0576
    126  CG        68.2800   24.0530   94.8620 C.ar  586  TRP586      0.0006
    127  CD1       68.0120   24.2800   96.1720 C.ar  586  TRP586      0.0946
    128  CD2       68.2130   25.3320   94.2180 C.ar  586  TRP586      0.0152
    129  NE1       67.7930   25.6230   96.3920 N.ar  586  TRP586     -0.2442
    130  CE2       67.9150   26.2910   95.2100 C.ar  586  TRP586      0.0810
    131  CE3       68.3930   25.7590   92.8980 C.ar  586  TRP586      0.0012
    132  CZ2       67.7670   27.6450   94.9210 C.ar  586  TRP586      0.0191
    133  CZ3       68.2540   27.1180   92.6170 C.ar  586  TRP586      0.0001
    134  CH2       67.9500   28.0380   93.6230 C.ar  586  TRP586      0.0015
    135  N         67.3120   17.5450   92.3660 N.3   590  TYR590     -0.1241
    136  CA        67.4910   17.5520   90.9060 C.3   590  TYR590      0.1605
    137  C         68.5210   16.6870   90.1980 C.2   590  TYR590      0.2264
    138  O         68.4780   16.5830   88.9720 O.2   590  TYR590     -0.2867
    139  CB        67.7970   18.9850   90.4640 C.3   590  TYR590      0.0534
    140  CG        66.7170   19.9980   90.7450 C.ar  590  TYR590     -0.0201
    141  CD1       65.3810   19.6510   90.6780 C.ar  590  TYR590     -0.0009
    142  CD2       67.0360   21.3230   91.0060 C.ar  590  TYR590     -0.0009
    143  CE1       64.3950   20.5860   90.8970 C.ar  590  TYR590      0.0417
    144  CE2       66.0460   22.2600   91.2200 C.ar  590  TYR590      0.0417
    145  CZ        64.7340   21.8780   91.1690 C.ar  590  TYR590      0.1957
    146  OH        63.7310   22.7710   91.3940 O.3   590  TYR590     -0.2866
    147  N         68.2380   34.1500   95.2700 N.3   638  ARG638     -0.1227
    148  CA        67.9270   32.7190   95.3830 C.3   638  ARG638      0.1737
    149  C         67.9690   32.0390   94.0290 C.2   638  ARG638      0.2595
    150  O         68.9870   31.4560   93.6490 O.2   638  ARG638     -0.2718
    151  CB        66.5660   32.4920   96.0810 C.3   638  ARG638      0.0576
    152  CG        66.6770   32.6900   97.5960 C.2   638  ARG638      0.0160
    153  CD        65.8230   32.0270   98.6460 C.2   638  ARG638      0.1886
    154  NE        64.8980   30.9500   98.3210 N.pl3 638  ARG638     -0.0578
    155  CZ        64.2040   30.2800   99.2450 C.cat 638  ARG638      0.5393
    156  NH1       64.3480   30.5460  100.5440 N.pl3 638  ARG638      0.1358
    157  NH2       63.3610   29.3280   98.8710 N.pl3 638  ARG638      0.1358
    158  N         66.8750   32.1320   93.2900 N.am  639  VAL639     -0.1980
    159  CA        66.8280   31.6070   91.9360 C.3   639  VAL639      0.1595
    160  C         67.2920   32.7420   91.0340 C.2   639  VAL639      0.2287
    161  O         66.5200   33.6550   90.7360 O.2   639  VAL639     -0.2864
    162  CB        65.4080   31.1400   91.5590 C.3   639  VAL639      0.0276
    163  CG1       65.3860   30.5670   90.1520 C.3   639  VAL639      0.0022
    164  CG2       64.9130   30.1110   92.5550 C.3   639  VAL639      0.0022
@<TRIPOS>BOND
     1   101   100    2
     2   100    99    1
     3    99    98    1
     4    99   102    1
     5   103   102    1
     6   102   104    1
     7   138   137    2
     8    93    92    2
     9   163   162    1
    10    87    86    2
    11   137   136    1
    12   139   140    1
    13   139   136    1
    14   141   140   ar
    15   141   143   ar
    16   161   160    2
    17   140   142   ar
    18    92    91    1
    19   143   145   ar
    20   136   135    1
    21   142   144   ar
    22   160   159    1
    23   145   144   ar
    24   145   146    1
    25    86    85    1
    26    86    90   am
    27   162   159    1
    28   162   164    1
    29    91    90    1
    30    91    94    1
    31    96    95    2
    32    56    55    2
    33    84    85    1
    34   159   158    1
    35    85    88    1
    36    95    97   am
    37    95    94    1
    38   133   131   ar
    39   133   134   ar
    40    55    54    1
    41    53    54    1
    42   131   128   ar
    43    54    57    1
    44   158   149   am
    45   124   123    2
    46   134   132   ar
    47    88    89    1
    48   150   149    2
    49   149   148    1
    50   125   126    1
    51   125   122    1
    52   128   126   ar
    53   128   130   ar
    54   123   122    1
    55    74    75   ar
    56    74    72   ar
    57    57    58    1
    58    75    73   ar
    59   126   127   ar
    60    59    58   ar
    61    59    61   ar
    62   132   130   ar
    63    58    60   ar
    64   122   121    1
    65   130   129   ar
    66   147   148    1
    67    61    63   ar
    68   148   151    1
    69    60    62   ar
    70    72    70   ar
    71   121   115   am
    72   105   106    1
    73   107   108    2
    74   107   106    1
    75    63    62   ar
    76    63    64    1
    77    73    71   ar
    78   151   152    1
    79   127   129   ar
    80   106   109    1
    81   113   114    1
    82    65    66    1
    83    70    71   ar
    84    70    69    1
    85   111   110    1
    86   115   114    1
    87   115   116    2
    88   152   153    2
    89   110   109    1
    90   110   112    1
    91   114   117    1
    92    69    66    1
    93    66    67    1
    94   154   153    1
    95   154   155    2
    96   117   118    1
    97   157   155    1
    98    79    78    2
    99   155   156    1
   100   118   119    1
   101   118   120    1
   102    67    68    2
   103    80    81    1
   104    80    82    1
   105    80    77    1
   106    81    83    1
   107    52    51    1
   108    76    77    1
   109    51    48    1
   110    78    77    1
   111    47    48    1
   112    47    45   am
   113    44    45    1
   114    44    43    1
   115    48    49    1
   116    50    49    2
   117    45    46    2
   118     9     8    1
   119     8     7    1
   120    20    19   ar
   121    20    18   ar
   122    19    17   ar
   123     7     6    1
   124    18    16   ar
   125    42    40   ar
   126    42    41   ar
   127    40    38   ar
   128     6     5    1
   129    17    15   ar
   130    41    39   ar
   131    16    15   ar
   132    38    39   ar
   133    38    37    1
   134    32    31    1
   135    30    31   ar
   136    30    28   ar
   137    15    14    1
   138     5     2    1
   139    31    29   ar
   140    28    26   ar
   141    37    34    1
   142    29    27   ar
   143    26    27   ar
   144    26    25    1
   145    33    34    1
   146    25    22    1
   147     2     3    1
   148     2     1    1
   149    34    35    1
   150    14    11    1
   151     3    10   am
   152     3     4    2
   153    10    11    1
   154    11    12    1
   155    22    23    1
   156    22    21    1
   157    35    36    2
   158    23    24    2
   159    12    13    2
