@<TRIPOS>MOLECULE
tmp/5uzwG01.pdb
 155 150 0 0 0
SMALL
GASTEIGER

@<TRIPOS>ATOM
      1  N         82.6280  -20.9410  109.2270 N.3   171  PHE171     -0.1241
      2  CA        83.7870  -20.1820  109.7220 C.3   171  PHE171      0.1605
      3  C         83.7410  -19.8920  111.2220 C.2   171  PHE171      0.2264
      4  O         84.6180  -19.2170  111.7450 O.2   171  PHE171     -0.2867
      5  CB        83.9120  -18.8550  108.9570 C.3   171  PHE171      0.0534
      6  CG        83.9980  -19.0250  107.4660 C.ar  171  PHE171     -0.0203
      7  CD1       84.9600  -19.8810  106.9060 C.ar  171  PHE171     -0.0042
      8  CD2       83.1230  -18.3440  106.6160 C.ar  171  PHE171     -0.0042
      9  CE1       85.0420  -20.0440  105.5320 C.ar  171  PHE171     -0.0003
     10  CE2       83.2010  -18.5060  105.2390 C.ar  171  PHE171     -0.0003
     11  CZ        84.1620  -19.3540  104.7000 C.ar  171  PHE171     -0.0000
     12  N         74.5840  -21.9720  110.4510 N.3   188  TYR188     -0.1241
     13  CA        73.5340  -21.6030  109.5030 C.3   188  TYR188      0.1605
     14  C         72.3480  -22.6120  109.6920 C.2   188  TYR188      0.2264
     15  O         72.5660  -23.6980  110.1910 O.2   188  TYR188     -0.2867
     16  CB        74.1390  -21.6140  108.0850 C.3   188  TYR188      0.0534
     17  CG        75.1860  -20.5250  107.8610 C.ar  188  TYR188     -0.0201
     18  CD1       76.5360  -20.7360  108.1530 C.ar  188  TYR188     -0.0009
     19  CD2       74.8140  -19.2640  107.3890 C.ar  188  TYR188     -0.0009
     20  CE1       77.4760  -19.7160  107.9640 C.ar  188  TYR188      0.0417
     21  CE2       75.7410  -18.2440  107.1900 C.ar  188  TYR188      0.0417
     22  CZ        77.0750  -18.4560  107.4800 C.ar  188  TYR188      0.1957
     23  OH        77.9860  -17.4000  107.2830 O.3   188  TYR188     -0.2866
     24  N         76.5220  -11.2330  108.7230 N.3   218  HIS218     -0.1241
     25  CA        77.2090  -12.3990  109.2760 C.3   218  HIS218      0.1621
     26  C         77.9230  -12.0570  110.5840 C.2   218  HIS218      0.2264
     27  O         78.0170  -10.8970  110.9560 O.2   218  HIS218     -0.2867
     28  CB        78.1640  -12.9940  108.2400 C.3   218  HIS218      0.0745
     29  CG        79.1710  -12.0200  107.7190 C.ar  218  HIS218      0.0817
     30  ND1       80.4200  -11.8680  108.2880 N.ar  218  HIS218     -0.2268
     31  CD2       79.1240  -11.1530  106.6760 C.ar  218  HIS218      0.1154
     32  CE1       81.1040  -10.9610  107.6090 C.ar  218  HIS218      0.1986
     33  NE2       80.3430  -10.5120  106.6220 N.ar  218  HIS218     -0.2212
     34  N         79.1470   -6.6130  104.6550 N.3   237  GLY237     -0.1210
     35  CA        79.7880   -7.3130  103.5210 C.3   237  GLY237      0.1956
     36  C         81.2090   -7.6090  103.9380 C.2   237  GLY237      0.2612
     37  O         81.4430   -8.3070  104.9290 O.2   237  GLY237     -0.2717
     38  N         82.1480   -7.0240  103.2040 N.am  238  CYS238     -0.1970
     39  CA        83.5600   -7.0400  103.5430 C.3   238  CYS238      0.1712
     40  C         84.0870   -5.6360  103.9720 C.2   238  CYS238      0.2296
     41  O         85.2890   -5.3760  103.9400 O.2   238  CYS238     -0.2864
     42  CB        84.3600   -7.5800  102.3600 C.3   238  CYS238      0.0983
     43  SG        84.1180   -9.3450  102.0470 S.3   238  CYS238     -0.0798
     44  N         98.1050   -7.8970   95.3550 N.3   447  TYR447     -0.1241
     45  CA        96.6940   -8.2740   95.5810 C.3   447  TYR447      0.1605
     46  C         95.7850   -7.1030   95.2270 C.2   447  TYR447      0.2264
     47  O         95.0760   -7.1700   94.2130 O.2   447  TYR447     -0.2867
     48  CB        96.4800   -8.7280   97.0330 C.3   447  TYR447      0.0534
     49  CG        95.1150   -9.3100   97.3640 C.ar  447  TYR447     -0.0201
     50  CD1       94.8270  -10.6500   97.1450 C.ar  447  TYR447     -0.0009
     51  CD2       94.1340   -8.5250   97.9710 C.ar  447  TYR447     -0.0009
     52  CE1       93.5990  -11.1810   97.4950 C.ar  447  TYR447      0.0417
     53  CE2       92.8930   -9.0420   98.3400 C.ar  447  TYR447      0.0417
     54  CZ        92.6270  -10.3690   98.1000 C.ar  447  TYR447      0.1957
     55  OH        91.3870  -10.8970   98.4620 O.3   447  TYR447     -0.2866
     56  N         90.2710   -4.7660   99.6070 N.3   450  PHE450     -0.1241
     57  CA        89.6470   -5.3500  100.8070 C.3   450  PHE450      0.1605
     58  C         90.4560   -5.1640  102.0830 C.2   450  PHE450      0.2264
     59  O         90.4120   -5.9610  102.9950 O.2   450  PHE450     -0.2867
     60  CB        89.3570   -6.8360  100.5550 C.3   450  PHE450      0.0534
     61  CG        88.5370   -7.0840   99.3110 C.ar  450  PHE450     -0.0203
     62  CD1       87.1530   -7.1050   99.3670 C.ar  450  PHE450     -0.0042
     63  CD2       89.1470   -7.3020   98.0840 C.ar  450  PHE450     -0.0042
     64  CE1       86.3870   -7.3340   98.2260 C.ar  450  PHE450     -0.0003
     65  CE2       88.3880   -7.5470   96.9350 C.ar  450  PHE450     -0.0003
     66  CZ        87.0050   -7.5500   97.0070 C.ar  450  PHE450     -0.0000
     67  N         93.4470   -5.7460  102.7230 N.3   452  ILE452     -0.1245
     68  CA        94.4400   -6.7800  103.0390 C.3   452  ILE452      0.1561
     69  C         95.8420   -6.2050  102.9530 C.2   452  ILE452      0.2260
     70  O         96.1760   -5.5300  101.9960 O.2   452  ILE452     -0.2867
     71  CB        94.3850   -7.9870  102.0910 C.3   452  ILE452      0.0252
     72  CG1       93.0020   -8.6340  102.0780 C.3   452  ILE452      0.0019
     73  CG2       95.3950   -9.0240  102.5170 C.3   452  ILE452      0.0019
     74  CD1       92.3830   -8.8900  103.4490 C.3   452  ILE452      0.0001
     75  N         92.7590  -14.7090   93.5280 N.3   528  SER528     -0.1202
     76  CA        91.4640  -14.1550   93.9090 C.3   528  SER528      0.2020
     77  C         91.3510  -12.7120   93.3530 C.2   528  SER528      0.2618
     78  O         91.4320  -12.5190   92.1410 O.2   528  SER528     -0.2717
     79  CB        91.2740  -14.2660   95.4370 C.3   528  SER528      0.2103
     80  OG        89.9450  -13.9000   95.8560 O.3   528  SER528     -0.2182
     81  N         91.2310  -11.7010   94.2140 N.am  529  ASN529     -0.1974
     82  CA        91.2480  -10.3010   93.7910 C.3   529  ASN529      0.1688
     83  C         92.5450   -9.8830   93.0670 C.2   529  ASN529      0.2292
     84  O         92.5720   -8.8700   92.3690 O.2   529  ASN529     -0.2864
     85  CB        91.0450   -9.4090   95.0310 C.3   529  ASN529      0.1181
     86  CG        91.1380   -7.9520   94.7160 C.2   529  ASN529      0.2629
     87  OD1       90.2600   -7.3940   94.0660 O.2   529  ASN529     -0.2716
     88  ND2       92.2470   -7.3440   95.0870 N.am  529  ASN529     -0.0877
     89  N         88.6990  -13.0770   89.8290 N.3   554  VAL554     -0.1245
     90  CA        87.3960  -12.5160   89.4480 C.3   554  VAL554      0.1561
     91  C         87.4440  -11.7490   88.1180 C.2   554  VAL554      0.2260
     92  O         87.8760  -10.6110   88.0260 O.2   554  VAL554     -0.2867
     93  CB        86.8620  -11.5490   90.5140 C.3   554  VAL554      0.0252
     94  CG1       85.4280  -11.1350   90.1850 C.3   554  VAL554      0.0019
     95  CG2       86.9250  -12.1730   91.8950 C.3   554  VAL554      0.0019
     96  N         79.0820  -16.1860   97.0730 N.3   565  LEU565     -0.1245
     97  CA        79.1860  -15.1080   98.0780 C.3   565  LEU565      0.1561
     98  C         79.7760  -13.8070   97.5040 C.2   565  LEU565      0.2260
     99  O         80.1270  -12.8830   98.2480 O.2   565  LEU565     -0.2867
    100  CB        79.8980  -15.6270   99.3110 C.3   565  LEU565      0.0270
    101  CG        81.3010  -16.1530   99.1610 C.3   565  LEU565      0.0019
    102  CD1       82.2200  -15.1710   98.4670 C.3   565  LEU565      0.0001
    103  CD2       81.8140  -16.4770  100.5550 C.3   565  LEU565      0.0001
    104  N         78.9420  -10.1610   98.6360 N.3   568  LEU568     -0.1231
    105  CA        79.6850   -9.4840   99.7010 C.3   568  LEU568      0.1693
    106  C         80.8220   -8.6520   99.1970 C.2   568  LEU568      0.2592
    107  O         81.5080   -8.0140   99.9990 O.2   568  LEU568     -0.2718
    108  CB        80.3020  -10.4770  100.6980 C.3   568  LEU568      0.0284
    109  CG        79.5110  -11.6740  101.2210 C.3   568  LEU568      0.0019
    110  CD1       80.4350  -12.7760  101.7250 C.3   568  LEU568      0.0001
    111  CD2       78.5780  -11.2010  102.3220 C.3   568  LEU568      0.0001
    112  N         81.0620   -8.6770   97.8900 N.am  569  TRP569     -0.1976
    113  CA        82.1740   -7.9290   97.3020 C.3   569  TRP569      0.1640
    114  C         81.7510   -6.6390   96.6270 C.2   569  TRP569      0.2290
    115  O         82.5650   -6.0330   95.9410 O.2   569  TRP569     -0.2864
    116  CB        82.9320   -8.7900   96.3030 C.3   569  TRP569      0.0576
    117  CG        83.3080  -10.1330   96.8410 C.ar  569  TRP569      0.0006
    118  CD1       83.6000  -10.4470   98.1470 C.ar  569  TRP569      0.0946
    119  CD2       83.4910  -11.3410   96.0890 C.ar  569  TRP569      0.0152
    120  NE1       83.9240  -11.7810   98.2560 N.ar  569  TRP569     -0.2442
    121  CE2       83.8640  -12.3540   97.0100 C.ar  569  TRP569      0.0810
    122  CE3       83.3740  -11.6680   94.7400 C.ar  569  TRP569      0.0012
    123  CZ2       84.1160  -13.6630   96.6150 C.ar  569  TRP569      0.0191
    124  CZ3       83.6200  -12.9580   94.3570 C.ar  569  TRP569      0.0001
    125  CH2       83.9850  -13.9440   95.2890 C.ar  569  TRP569      0.0015
    126  N         84.0630   -3.5100   95.0090 N.3   573  TYR573     -0.1241
    127  CA        83.8230   -3.3610   93.5930 C.3   573  TYR573      0.1605
    128  C         82.5640   -2.5010   93.6920 C.2   573  TYR573      0.2264
    129  O         82.1570   -2.1660   94.8070 O.2   573  TYR573     -0.2867
    130  CB        83.5850   -4.7300   92.9360 C.3   573  TYR573      0.0534
    131  CG        84.7250   -5.7100   93.1110 C.ar  573  TYR573     -0.0201
    132  CD1       86.0440   -5.2780   93.1140 C.ar  573  TYR573     -0.0009
    133  CD2       84.4790   -7.0590   93.2690 C.ar  573  TYR573     -0.0009
    134  CE1       87.0790   -6.1550   93.3140 C.ar  573  TYR573      0.0417
    135  CE2       85.5110   -7.9480   93.4660 C.ar  573  TYR573      0.0417
    136  CZ        86.8130   -7.4830   93.4930 C.ar  573  TYR573      0.1957
    137  OH        87.8540   -8.3410   93.6630 O.3   573  TYR573     -0.2866
    138  N         83.9620  -20.2370   96.4460 N.3   621  ARG621     -0.1231
    139  CA        84.1880  -18.8270   96.6680 C.3   621  ARG621      0.1694
    140  C         84.1180  -18.0610   95.3620 C.2   621  ARG621      0.2591
    141  O         83.0870  -17.4640   95.0340 O.2   621  ARG621     -0.2718
    142  CB        85.5300  -18.5750   97.3690 C.3   621  ARG621      0.0321
    143  CG        85.4770  -18.8350   98.8540 C.3   621  ARG621      0.0489
    144  CD        86.3080  -17.7970   99.6220 C.3   621  ARG621      0.2205
    145  NE        86.2460  -18.0410  101.0620 N.pl3 621  ARG621     -0.0865
    146  CZ        86.9520  -17.3780  101.9720 C.cat 621  ARG621      0.5346
    147  NH1       87.7900  -16.4160  101.6070 N.pl3 621  ARG621      0.1354
    148  NH2       86.8230  -17.6830  103.2560 N.pl3 621  ARG621      0.1354
    149  N         85.2270  -18.0370   94.6310 N.am  622  VAL622     -0.1980
    150  CA        85.2630  -17.3760   93.3370 C.3   622  VAL622      0.1595
    151  C         84.8860  -18.4560   92.3530 C.2   622  VAL622      0.2287
    152  O         85.7140  -19.2720   91.9920 O.2   622  VAL622     -0.2864
    153  CB        86.6590  -16.7920   93.0280 C.3   622  VAL622      0.0276
    154  CG1       86.6780  -16.0930   91.6750 C.3   622  VAL622      0.0022
    155  CG2       87.0790  -15.8180   94.1160 C.3   622  VAL622      0.0022
@<TRIPOS>BOND
     1    92    91    2
     2    91    90    1
     3    90    89    1
     4    90    93    1
     5    94    93    1
     6    93    95    1
     7   154   153    1
     8   152   151    2
     9    78    77    2
    10   151   150    1
    11    84    83    2
    12   130   131    1
    13   130   127    1
    14   153   150    1
    15   153   155    1
    16    83    82    1
    17   131   132   ar
    18   131   133   ar
    19   132   134   ar
    20   133   135   ar
    21   134   136   ar
    22   150   149    1
    23    77    76    1
    24    77    81   am
    25   135   136   ar
    26   136   137    1
    27    75    76    1
    28   127   128    1
    29   127   126    1
    30   128   129    2
    31    82    81    1
    32    82    85    1
    33    76    79    1
    34    87    86    2
    35    47    46    2
    36   124   122   ar
    37   124   125   ar
    38   149   140   am
    39    86    85    1
    40    86    88   am
    41   122   119   ar
    42   141   140    2
    43    46    45    1
    44   125   123   ar
    45    44    45    1
    46   140   139    1
    47    79    80    1
    48    45    48    1
    49   115   114    2
    50   119   117   ar
    51   119   121   ar
    52   116   117    1
    53   116   113    1
    54   138   139    1
    55   123   121   ar
    56   114   113    1
    57   139   142    1
    58   117   118   ar
    59    65    66   ar
    60    65    63   ar
    61    66    64   ar
    62   121   120   ar
    63    48    49    1
    64    96    97    1
    65    50    49   ar
    66    50    52   ar
    67   113   112    1
    68    49    51   ar
    69   142   143    1
    70    52    54   ar
    71    98    97    1
    72    98    99    2
    73   112   106   am
    74    51    53   ar
    75    97   100    1
    76    63    61   ar
    77    54    53   ar
    78    54    55    1
    79   118   120   ar
    80    64    62   ar
    81   102   101    1
    82   104   105    1
    83   143   144    1
    84   101   100    1
    85   101   103    1
    86   106   105    1
    87   106   107    2
    88    61    62   ar
    89    61    60    1
    90    56    57    1
    91   144   145    1
    92   105   108    1
    93    60    57    1
    94   108   109    1
    95    57    58    1
    96   145   146    2
    97   109   110    1
    98   109   111    1
    99   147   146    1
   100   146   148    1
   101    70    69    2
   102    43    42    1
   103    72    71    1
   104    72    74    1
   105    58    59    2
   106    71    73    1
   107    71    68    1
   108    42    39    1
   109    67    68    1
   110    69    68    1
   111    38    39    1
   112    38    36   am
   113    35    36    1
   114    35    34    1
   115    39    40    1
   116    36    37    2
   117    41    40    2
   118    11    10   ar
   119    11     9   ar
   120    10     8   ar
   121     9     7   ar
   122     8     6   ar
   123    33    31   ar
   124    33    32   ar
   125    31    29   ar
   126     7     6   ar
   127    21    19   ar
   128    21    22   ar
   129    23    22    1
   130    19    17   ar
   131     6     5    1
   132    22    20   ar
   133    32    30   ar
   134    29    28    1
   135    29    30   ar
   136    17    16    1
   137    17    18   ar
   138    20    18   ar
   139    16    13    1
   140    28    25    1
   141    24    25    1
   142     5     2    1
   143     1     2    1
   144    25    26    1
   145    13    14    1
   146    13    12    1
   147    14    15    2
   148     2     3    1
   149    26    27    2
   150     3     4    2
