@<TRIPOS>MOLECULE
tmp/5v02B00.pdb
 95 88 0 0 0
SMALL
GASTEIGER

@<TRIPOS>ATOM
      1  N         26.5810   46.5920   54.1190 N.3    18  PHE18      -0.1241
      2  CA        27.7590   46.0390   53.4460 C.3    18  PHE18       0.1605
      3  C         28.1510   44.6650   53.9840 C.2    18  PHE18       0.2264
      4  O         28.4530   43.7740   53.1970 O.2    18  PHE18      -0.2867
      5  CB        28.9330   47.0260   53.5150 C.3    18  PHE18       0.0534
      6  CG        28.6620   48.3760   52.8930 C.ar   18  PHE18      -0.0203
      7  CD1       28.1220   49.4100   53.6450 C.ar   18  PHE18      -0.0042
      8  CD2       28.9760   48.6240   51.5640 C.ar   18  PHE18      -0.0042
      9  CE1       27.8480   50.6580   53.0700 C.ar   18  PHE18      -0.0003
     10  CE2       28.6950   49.8760   50.9850 C.ar   18  PHE18      -0.0003
     11  CZ        28.1440   50.8850   51.7460 C.ar   18  PHE18      -0.0000
     12  N         34.0220   43.3640   55.9140 N.3    26  ILE26      -0.1245
     13  CA        33.5720   43.4470   54.5290 C.3    26  ILE26       0.1561
     14  C         34.6520   42.8170   53.6520 C.2    26  ILE26       0.2260
     15  O         35.7930   43.2800   53.6600 O.2    26  ILE26      -0.2867
     16  CB        33.2230   44.8980   54.0820 C.3    26  ILE26       0.0252
     17  CG1       32.1560   45.5590   54.9980 C.3    26  ILE26       0.0019
     18  CG2       32.8040   44.9400   52.5790 C.3    26  ILE26       0.0019
     19  CD1       32.1310   47.1190   54.9060 C.3    26  ILE26       0.0001
     20  N         31.3470   43.0840   48.9980 N.3    31  LEU31      -0.1245
     21  CA        31.3840   44.3460   48.2640 C.3    31  LEU31       0.1561
     22  C         30.8280   44.1950   46.8440 C.2    31  LEU31       0.2260
     23  O         30.0910   45.0820   46.3950 O.2    31  LEU31      -0.2867
     24  CB        32.8160   44.8950   48.2330 C.3    31  LEU31       0.0270
     25  CG        32.9490   46.4090   48.0730 C.3    31  LEU31       0.0019
     26  CD1       32.3020   47.1600   49.2930 C.3    31  LEU31       0.0001
     27  CD2       34.4140   46.7910   48.0080 C.3    31  LEU31       0.0001
     28  N         39.3660   48.7070   46.0600 N.3    50  MET50      -0.1245
     29  CA        38.4950   49.3750   47.0300 C.3    50  MET50       0.1570
     30  C         38.8030   48.8780   48.4490 C.2    50  MET50       0.2261
     31  O         38.9290   49.6980   49.3600 O.2    50  MET50      -0.2867
     32  CB        37.0160   49.2110   46.6650 C.3    50  MET50       0.0387
     33  CG        36.5670   50.2300   45.6230 C.3    50  MET50       0.0595
     34  SD        34.7880   50.2950   45.3390 S.3    50  MET50      -0.1393
     35  CE        34.5580   48.8880   44.2370 C.3    50  MET50       0.0692
     36  N         42.4690   50.2250   49.4510 N.3    53  GLU53      -0.1231
     37  CA        42.5530   51.6740   49.6860 C.3    53  GLU53       0.1699
     38  C         42.1440   52.0530   51.1200 C.2    53  GLU53       0.2592
     39  O         42.5840   53.0920   51.6270 O.2    53  GLU53      -0.2718
     40  CB        41.6900   52.4400   48.6760 C.3    53  GLU53       0.0402
     41  CG        42.4880   53.2850   47.7000 C.3    53  GLU53       0.1161
     42  CD        42.9170   54.6480   48.2110 C.2    53  GLU53       0.3649
     43  OE1       44.0850   54.7820   48.6450 O.co2  53  GLU53      -0.2457
     44  OE2       42.0940   55.5900   48.1520 O.co2  53  GLU53      -0.2457
     45  N         41.3030   51.2170   51.7680 N.am   54  VAL54      -0.1980
     46  CA        40.7990   51.5070   53.1090 C.3    54  VAL54       0.1595
     47  C         41.3200   50.5180   54.1850 C.2    54  VAL54       0.2287
     48  O         41.2850   50.8650   55.3620 O.2    54  VAL54      -0.2864
     49  CB        39.2500   51.6610   53.1480 C.3    54  VAL54       0.0276
     50  CG1       38.7090   52.2680   51.8600 C.3    54  VAL54       0.0022
     51  CG2       38.5590   50.3520   53.4300 C.3    54  VAL54       0.0022
     52  N         37.6580   44.8270   55.2450 N.3    62  ILE62      -0.1245
     53  CA        37.4120   46.1370   55.8550 C.3    62  ILE62       0.1561
     54  C         36.6930   45.9240   57.1710 C.2    62  ILE62       0.2260
     55  O         35.6580   45.2590   57.1890 O.2    62  ILE62      -0.2867
     56  CB        36.5800   47.0810   54.9390 C.3    62  ILE62       0.0252
     57  CG1       37.2000   47.2210   53.5400 C.3    62  ILE62       0.0019
     58  CG2       36.3300   48.4580   55.6040 C.3    62  ILE62       0.0019
     59  CD1       36.2150   47.7590   52.4960 C.3    62  ILE62       0.0001
     60  N         36.2610   51.5890   57.8520 N.3    67  PHE67      -0.1241
     61  CA        35.0510   52.0390   57.1510 C.3    67  PHE67       0.1605
     62  C         34.7060   53.4620   57.6110 C.2    67  PHE67       0.2264
     63  O         34.5800   54.3430   56.7720 O.2    67  PHE67      -0.2867
     64  CB        33.8870   51.0560   57.4190 C.3    67  PHE67       0.0534
     65  CG        32.5350   51.4300   56.8530 C.ar   67  PHE67      -0.0203
     66  CD1       32.2020   51.1170   55.5350 C.ar   67  PHE67      -0.0042
     67  CD2       31.5710   52.0370   57.6500 C.ar   67  PHE67      -0.0042
     68  CE1       30.9370   51.4210   55.0290 C.ar   67  PHE67      -0.0003
     69  CE2       30.3150   52.3640   57.1350 C.ar   67  PHE67      -0.0003
     70  CZ        30.0090   52.0680   55.8220 C.ar   67  PHE67      -0.0000
     71  N         37.2930   56.2920   56.4110 N.3    70  MET70      -0.1230
     72  CA        37.1270   56.7090   55.0210 C.3    70  MET70       0.1702
     73  C         35.8750   57.5510   54.7870 C.2    70  MET70       0.2592
     74  O         35.8460   58.3410   53.8380 O.2    70  MET70      -0.2718
     75  CB        37.1650   55.5040   54.0770 C.3    70  MET70       0.0401
     76  CG        38.1590   55.6550   52.9290 C.3    70  MET70       0.0596
     77  SD        39.9200   56.0320   53.2400 S.3    70  MET70      -0.1393
     78  CE        40.3140   54.9480   54.6430 C.3    70  MET70       0.0692
     79  N         34.8470   57.3860   55.6410 N.am   71  MET71      -0.1979
     80  CA        33.6200   58.1840   55.5460 C.3    71  MET71       0.1605
     81  C         33.9320   59.6270   55.9530 C.2    71  MET71       0.2287
     82  O         33.4540   60.5450   55.2910 O.2    71  MET71      -0.2864
     83  CB        32.4880   57.6060   56.4240 C.3    71  MET71       0.0413
     84  CG        31.9540   56.2600   55.9430 C.3    71  MET71       0.0598
     85  SD        31.2360   56.3330   54.2860 S.3    71  MET71      -0.1393
     86  CE        31.5520   54.7510   53.7600 C.3    71  MET71       0.0692
     87  N         35.3200   61.9090   53.1570 N.3    74  LYS74      -0.1245
     88  CA        34.4180   62.2790   52.0570 C.3    74  LYS74       0.1561
     89  C         33.0170   62.7140   52.5160 C.2    74  LYS74       0.2260
     90  O         32.0440   62.4110   51.8280 O.2    74  LYS74      -0.2867
     91  CB        34.3250   61.1300   51.0250 C.3    74  LYS74       0.0271
     92  CG        35.6300   60.7760   50.3000 C.3    74  LYS74       0.0035
     93  CD        35.3350   59.8540   49.1200 C.3    74  LYS74       0.0206
     94  CE        36.5150   59.7070   48.1960 C.3    74  LYS74       0.1093
     95  NZ        36.2060   58.8220   47.0430 N.3    74  LYS74      -0.1314
@<TRIPOS>BOND
     1    35    34    1
     2    34    33    1
     3    33    32    1
     4    28    29    1
     5    23    22    2
     6    32    29    1
     7    22    21    1
     8    29    30    1
     9    95    94    1
    10    41    42    1
    11    41    40    1
    12    27    25    1
    13    25    24    1
    14    25    26    1
    15    44    42   ar
    16    94    93    1
    17    42    43   ar
    18    24    21    1
    19    21    20    1
    20    30    31    2
    21    40    37    1
    22    93    92    1
    23    36    37    1
    24    37    38    1
    25    92    91    1
    26    10     8   ar
    27    10    11   ar
    28    91    88    1
    29    38    39    2
    30    38    45   am
    31     8     6   ar
    32    11     9   ar
    33    45    46    1
    34    90    89    2
    35    50    49    1
    36    88    89    1
    37    88    87    1
    38    59    57    1
    39    18    16    1
    40     6     5    1
    41     6     7   ar
    42    76    77    1
    43    76    75    1
    44     9     7   ar
    45    46    49    1
    46    46    47    1
    47    49    51    1
    48     4     3    2
    49    77    78    1
    50     2     5    1
    51     2     3    1
    52     2     1    1
    53    57    56    1
    54    14    15    2
    55    14    13    1
    56    86    85    1
    57    74    73    2
    58    75    72    1
    59    16    13    1
    60    16    17    1
    61    47    48    2
    62    85    84    1
    63    13    12    1
    64    73    72    1
    65    73    79   am
    66    19    17    1
    67    56    58    1
    68    56    53    1
    69    72    71    1
    70    68    66   ar
    71    68    70   ar
    72    52    53    1
    73    82    81    2
    74    66    65   ar
    75    80    79    1
    76    80    81    1
    77    80    83    1
    78    70    69   ar
    79    53    54    1
    80    84    83    1
    81    63    62    2
    82    65    64    1
    83    65    67   ar
    84    69    67   ar
    85    61    64    1
    86    61    62    1
    87    61    60    1
    88    54    55    2
