@<TRIPOS>MOLECULE
tmp/5v03B00.pdb
 103 96 0 0 0
SMALL
GASTEIGER

@<TRIPOS>ATOM
      1  N         26.6760   46.5580   54.2510 N.3    17  PHE17      -0.1241
      2  CA        27.8310   45.9680   53.5670 C.3    17  PHE17       0.1605
      3  C         28.2170   44.6050   54.1370 C.2    17  PHE17       0.2264
      4  O         28.4530   43.6710   53.3710 O.2    17  PHE17      -0.2867
      5  CB        29.0270   46.9380   53.5520 C.3    17  PHE17       0.0534
      6  CG        28.6800   48.3120   53.0290 C.ar   17  PHE17      -0.0203
      7  CD1       28.6150   48.5590   51.6630 C.ar   17  PHE17      -0.0042
      8  CD2       28.4280   49.3590   53.9020 C.ar   17  PHE17      -0.0042
      9  CE1       28.2430   49.8230   51.1840 C.ar   17  PHE17      -0.0003
     10  CE2       28.0470   50.6180   53.4250 C.ar   17  PHE17      -0.0003
     11  CZ        27.9770   50.8460   52.0720 C.ar   17  PHE17      -0.0000
     12  N         33.9290   43.3640   56.0950 N.3    25  ILE25      -0.1245
     13  CA        33.4580   43.4900   54.7120 C.3    25  ILE25       0.1561
     14  C         34.5240   42.8650   53.8230 C.2    25  ILE25       0.2260
     15  O         35.6710   43.3180   53.8280 O.2    25  ILE25      -0.2867
     16  CB        33.1750   44.9430   54.2530 C.3    25  ILE25       0.0252
     17  CG1       32.2360   45.6970   55.2150 C.3    25  ILE25       0.0019
     18  CG2       32.6050   44.9290   52.8120 C.3    25  ILE25       0.0019
     19  CD1       32.2310   47.2400   55.0370 C.3    25  ILE25       0.0001
     20  N         31.2570   43.2120   49.0410 N.3    30  LEU30      -0.1245
     21  CA        31.2080   44.4510   48.2490 C.3    30  LEU30       0.1561
     22  C         30.6580   44.2060   46.8410 C.2    30  LEU30       0.2260
     23  O         29.9110   45.0570   46.3380 O.2    30  LEU30      -0.2867
     24  CB        32.5620   45.1740   48.1590 C.3    30  LEU30       0.0270
     25  CG        33.0060   46.0210   49.3440 C.3    30  LEU30       0.0019
     26  CD1       34.2620   46.7870   48.9700 C.3    30  LEU30       0.0001
     27  CD2       31.9260   47.0540   49.7420 C.3    30  LEU30       0.0001
     28  N         40.7320   46.6930   45.0320 N.3    48  ASP48      -0.1225
     29  CA        41.2120   48.0760   45.1660 C.3    48  ASP48       0.1805
     30  C         40.3680   48.8450   46.1790 C.2    48  ASP48       0.2597
     31  O         40.9410   49.5730   46.9950 O.2    48  ASP48      -0.2718
     32  CB        41.2530   48.8080   43.8070 C.3    48  ASP48       0.1424
     33  CG        42.2810   48.3010   42.8150 C.2    48  ASP48       0.3668
     34  OD1       43.2400   47.5990   43.2430 O.co2  48  ASP48      -0.2456
     35  OD2       42.1310   48.5940   41.6080 O.co2  48  ASP48      -0.2456
     36  N         39.0300   48.6650   46.1470 N.am   49  MET49      -0.1979
     37  CA        38.0950   49.2960   47.0910 C.3    49  MET49       0.1605
     38  C         38.4240   48.8730   48.5290 C.2    49  MET49       0.2287
     39  O         38.4610   49.7280   49.4120 O.2    49  MET49      -0.2864
     40  CB        36.6390   48.9520   46.7470 C.3    49  MET49       0.0413
     41  CG        36.1090   49.7330   45.5830 C.3    49  MET49       0.0598
     42  SD        34.4220   49.2660   45.0960 S.3    49  MET49      -0.1393
     43  CE        34.7390   48.4980   43.6090 C.3    49  MET49       0.0692
     44  N         42.2750   50.2350   49.6350 N.3    52  GLU52      -0.1231
     45  CA        42.3950   51.6620   49.9150 C.3    52  GLU52       0.1699
     46  C         41.9480   52.0180   51.3400 C.2    52  GLU52       0.2592
     47  O         42.3940   53.0200   51.8800 O.2    52  GLU52      -0.2718
     48  CB        41.6330   52.4760   48.8630 C.3    52  GLU52       0.0402
     49  CG        42.4400   52.6490   47.5870 C.3    52  GLU52       0.1161
     50  CD        43.6830   53.5100   47.7150 C.2    52  GLU52       0.3649
     51  OE1       44.7570   53.0640   47.2530 O.co2  52  GLU52      -0.2457
     52  OE2       43.5900   54.6220   48.2850 O.co2  52  GLU52      -0.2457
     53  N         41.0920   51.1730   51.9390 N.am   53  VAL53      -0.1980
     54  CA        40.4880   51.3510   53.2630 C.3    53  VAL53       0.1595
     55  C         41.1790   50.4440   54.2990 C.2    53  VAL53       0.2287
     56  O         41.2410   50.8040   55.4690 O.2    53  VAL53      -0.2864
     57  CB        38.9550   51.0890   53.1760 C.3    53  VAL53       0.0276
     58  CG1       38.2490   51.3270   54.5020 C.3    53  VAL53       0.0022
     59  CG2       38.3110   51.9360   52.0850 C.3    53  VAL53       0.0022
     60  N         37.7440   44.9510   55.4300 N.3    61  ILE61      -0.1245
     61  CA        37.5090   46.2500   56.0500 C.3    61  ILE61       0.1561
     62  C         36.7430   46.0160   57.3230 C.2    61  ILE61       0.2260
     63  O         35.6670   45.4080   57.2750 O.2    61  ILE61      -0.2867
     64  CB        36.6900   47.1730   55.1060 C.3    61  ILE61       0.0252
     65  CG1       37.4690   47.5150   53.8230 C.3    61  ILE61       0.0019
     66  CG2       36.2020   48.4490   55.8320 C.3    61  ILE61       0.0019
     67  CD1       36.6260   48.1820   52.7780 C.3    61  ILE61       0.0001
     68  N         36.3260   51.4980   58.1490 N.3    66  PHE66      -0.1241
     69  CA        35.1120   51.9740   57.4800 C.3    66  PHE66       0.1605
     70  C         34.7660   53.3960   57.9510 C.2    66  PHE66       0.2264
     71  O         34.5080   54.2470   57.1100 O.2    66  PHE66      -0.2867
     72  CB        33.9280   51.0080   57.7070 C.3    66  PHE66       0.0534
     73  CG        32.5920   51.4590   57.1500 C.ar   66  PHE66      -0.0203
     74  CD1       32.2700   51.2450   55.8140 C.ar   66  PHE66      -0.0042
     75  CD2       31.6390   52.0480   57.9740 C.ar   66  PHE66      -0.0042
     76  CE1       31.0270   51.6450   55.3000 C.ar   66  PHE66      -0.0003
     77  CE2       30.3990   52.4580   57.4610 C.ar   66  PHE66      -0.0003
     78  CZ        30.0990   52.2460   56.1270 C.ar   66  PHE66      -0.0000
     79  N         37.4050   56.1260   57.0120 N.3    69  MET69      -0.1230
     80  CA        37.1870   56.3710   55.6000 C.3    69  MET69       0.1702
     81  C         35.9940   57.3320   55.3360 C.2    69  MET69       0.2592
     82  O         36.0680   58.1690   54.4290 O.2    69  MET69      -0.2718
     83  CB        36.9810   55.0120   54.9120 C.3    69  MET69       0.0401
     84  CG        36.5720   55.0850   53.4910 C.3    69  MET69       0.0596
     85  SD        34.7880   55.2910   53.2420 S.3    69  MET69      -0.1393
     86  CE        34.1730   53.7050   53.8570 C.3    69  MET69       0.0692
     87  N         34.8820   57.1630   56.0760 N.am   70  MET70      -0.1979
     88  CA        33.6930   58.0100   55.8970 C.3    70  MET70       0.1605
     89  C         34.0330   59.4690   56.2660 C.2    70  MET70       0.2287
     90  O         33.6110   60.3930   55.5620 O.2    70  MET70      -0.2864
     91  CB        32.5130   57.4830   56.7430 C.3    70  MET70       0.0413
     92  CG        31.9200   56.1590   56.2470 C.3    70  MET70       0.0598
     93  SD        31.2190   56.2020   54.5660 S.3    70  MET70      -0.1393
     94  CE        30.0970   57.5690   54.7040 C.3    70  MET70       0.0692
     95  N         35.4040   61.6580   53.4110 N.3    73  LYS73      -0.1245
     96  CA        34.5050   61.9870   52.3000 C.3    73  LYS73       0.1561
     97  C         33.1200   62.4760   52.7470 C.2    73  LYS73       0.2260
     98  O         32.1330   62.1850   52.0670 O.2    73  LYS73      -0.2867
     99  CB        34.3640   60.7940   51.3280 C.3    73  LYS73       0.0271
    100  CG        35.6320   60.4010   50.5710 C.3    73  LYS73       0.0035
    101  CD        35.2710   59.5160   49.3710 C.3    73  LYS73       0.0206
    102  CE        36.4180   59.3810   48.4050 C.3    73  LYS73       0.1093
    103  NZ        36.1070   58.4280   47.3070 N.3    73  LYS73      -0.1314
@<TRIPOS>BOND
     1    35    33   ar
     2    33    34   ar
     3    33    32    1
     4    43    42    1
     5    32    29    1
     6    28    29    1
     7    42    41    1
     8    29    30    1
     9    41    40    1
    10    36    30   am
    11    36    37    1
    12    30    31    2
    13    23    22    2
    14    40    37    1
    15    22    21    1
    16    37    38    1
    17    51    50   ar
    18   103   102    1
    19    49    50    1
    20    49    48    1
    21    50    52   ar
    22    24    21    1
    23    24    25    1
    24    21    20    1
    25   102   101    1
    26    38    39    2
    27    48    45    1
    28    26    25    1
    29    25    27    1
    30   101   100    1
    31    44    45    1
    32    45    46    1
    33   100    99    1
    34     9     7   ar
    35     9    11   ar
    36    99    96    1
    37    46    47    2
    38    46    53   am
    39     7     6   ar
    40    53    54    1
    41    98    97    2
    42    11    10   ar
    43    59    57    1
    44    96    97    1
    45    96    95    1
    46    67    65    1
    47    18    16    1
    48     6     5    1
    49     6     8   ar
    50    57    54    1
    51    57    58    1
    52    85    84    1
    53    85    86    1
    54    54    55    1
    55     4     3    2
    56    10     8   ar
    57    84    83    1
    58     5     2    1
    59     2     3    1
    60     2     1    1
    61    14    15    2
    62    14    13    1
    63    65    64    1
    64    16    13    1
    65    16    17    1
    66    55    56    2
    67    82    81    2
    68    93    94    1
    69    93    92    1
    70    13    12    1
    71    83    80    1
    72    19    17    1
    73    64    66    1
    74    64    61    1
    75    76    74   ar
    76    76    78   ar
    77    81    80    1
    78    81    87   am
    79    60    61    1
    80    90    89    2
    81    80    79    1
    82    74    73   ar
    83    88    87    1
    84    88    89    1
    85    88    91    1
    86    61    62    1
    87    78    77   ar
    88    92    91    1
    89    71    70    2
    90    73    72    1
    91    73    75   ar
    92    63    62    2
    93    77    75   ar
    94    69    72    1
    95    69    70    1
    96    69    68    1
