@<TRIPOS>MOLECULE
tmp/5v0aA00.pdb
 144 134 0 0 0
SMALL
GASTEIGER

@<TRIPOS>ATOM
      1  N          5.5120  -27.5690   -5.1320 N.3    29  ASP29      -0.1239
      2  CA         6.3550  -28.4580   -4.3440 C.3    29  ASP29       0.1674
      3  C          7.4200  -27.6290   -3.5970 C.2    29  ASP29       0.2266
      4  O          8.6020  -27.6110   -3.9710 O.2    29  ASP29      -0.2867
      5  CB         7.0080  -29.4960   -5.2630 C.3    29  ASP29       0.1410
      6  CG         7.5350  -30.7160   -4.5240 C.2    29  ASP29       0.3668
      7  OD1        7.6400  -30.6970   -3.2720 O.co2  29  ASP29      -0.2456
      8  OD2        7.8680  -31.7140   -5.1970 O.co2  29  ASP29      -0.2456
      9  N          9.4180  -27.6740   -1.0490 N.3    31  TYR31      -0.1227
     10  CA        10.7510  -28.1040   -0.6150 C.3    31  TYR31       0.1736
     11  C         11.8550  -27.9010   -1.6590 C.2    31  TYR31       0.2595
     12  O         13.0260  -27.8120   -1.2970 O.2    31  TYR31      -0.2718
     13  CB        10.7420  -29.5680   -0.1540 C.3    31  TYR31       0.0548
     14  CG        10.4390  -29.7110    1.3450 C.ar   31  TYR31      -0.0200
     15  CD1       11.4460  -29.9640    2.2730 C.ar   31  TYR31      -0.0009
     16  CD2        9.1410  -29.5570    1.8300 C.ar   31  TYR31      -0.0009
     17  CE1       11.1570  -30.0760    3.6410 C.ar   31  TYR31       0.0417
     18  CE2        8.8490  -29.6630    3.1720 C.ar   31  TYR31       0.0417
     19  CZ         9.8510  -29.9220    4.0880 C.ar   31  TYR31       0.1957
     20  OH         9.5110  -30.0320    5.4400 O.3    31  TYR31      -0.2866
     21  N         11.4990  -27.7850   -2.9360 N.am   32  CYS32      -0.1970
     22  CA        12.4930  -27.4500   -3.9490 C.3    32  CYS32       0.1712
     23  C         13.0460  -26.0260   -3.7080 C.2    32  CYS32       0.2296
     24  O         14.2730  -25.7980   -3.6730 O.2    32  CYS32      -0.2864
     25  CB        11.8850  -27.5990   -5.3620 C.3    32  CYS32       0.0983
     26  SG        11.1400  -29.2630   -5.6790 S.3    32  CYS32      -0.0798
     27  N         15.0390  -25.9120   -0.3480 N.3    35  HIS35      -0.1226
     28  CA        16.3810  -26.4620   -0.4640 C.3    35  HIS35       0.1752
     29  C         17.2970  -25.4650   -1.1550 C.2    35  HIS35       0.2595
     30  O         18.3580  -25.0980   -0.5870 O.2    35  HIS35      -0.2718
     31  CB        16.3700  -27.8130   -1.2020 C.3    35  HIS35       0.0759
     32  CG        16.2410  -29.0030   -0.2920 C.ar   35  HIS35       0.0818
     33  ND1       17.3060  -29.5380    0.3970 N.ar   35  HIS35      -0.2268
     34  CD2       15.1640  -29.7710    0.0350 C.ar   35  HIS35       0.1154
     35  CE1       16.9020  -30.5810    1.1060 C.ar   35  HIS35       0.1986
     36  NE2       15.6030  -30.7390    0.9030 N.ar   35  HIS35      -0.2212
     37  N         16.8840  -24.9890   -2.3410 N.am   36  LYS36      -0.1980
     38  CA        17.6940  -23.9930   -3.0740 C.3    36  LYS36       0.1596
     39  C         18.0090  -22.7520   -2.2250 C.2    36  LYS36       0.2287
     40  O         19.1360  -22.2740   -2.1950 O.2    36  LYS36      -0.2864
     41  CB        16.9970  -23.5630   -4.3690 C.3    36  LYS36       0.0298
     42  CG        17.1220  -24.5240   -5.5540 C.3    36  LYS36       0.0038
     43  CD        16.0560  -24.1810   -6.5970 C.3    36  LYS36       0.0206
     44  CE        16.1980  -24.9760   -7.9090 C.3    36  LYS36       0.1093
     45  NZ        17.4350  -24.6070   -8.6320 N.3    36  LYS36      -0.1314
     46  N         20.5640  -23.4380    0.7240 N.3    39  ILE39      -0.1245
     47  CA        21.9360  -23.4490    0.2130 C.3    39  ILE39       0.1561
     48  C         22.6470  -22.0690    0.2960 C.2    39  ILE39       0.2260
     49  O         23.8320  -21.9730    0.6640 O.2    39  ILE39      -0.2867
     50  CB        21.9380  -23.9670   -1.2570 C.3    39  ILE39       0.0252
     51  CG1       21.7550  -25.4920   -1.2650 C.3    39  ILE39       0.0019
     52  CG2       23.2190  -23.5970   -1.9710 C.3    39  ILE39       0.0019
     53  CD1       20.9720  -26.0040   -2.4350 C.3    39  ILE39       0.0001
     54  N          6.0970  -31.2740    2.6680 N.3    77  ASP77      -0.1239
     55  CA         6.1810  -32.6420    3.1560 C.3    77  ASP77       0.1674
     56  C          5.8590  -32.6900    4.6610 C.2    77  ASP77       0.2266
     57  O          6.1980  -31.7590    5.4120 O.2    77  ASP77      -0.2867
     58  CB         7.5640  -33.2320    2.8810 C.3    77  ASP77       0.1410
     59  CG         7.8170  -33.4700    1.3960 C.2    77  ASP77       0.3668
     60  OD1        7.7710  -34.6310    0.9440 O.co2  77  ASP77      -0.2456
     61  OD2        8.0590  -32.4840    0.6750 O.co2  77  ASP77      -0.2456
     62  N          9.5430  -44.8160    2.1100 N.3    84  LYS84      -0.1245
     63  CA        10.6880  -43.9770    1.7620 C.3    84  LYS84       0.1561
     64  C         11.7900  -43.9430    2.8310 C.2    84  LYS84       0.2260
     65  O         12.8640  -43.3780    2.5880 O.2    84  LYS84      -0.2867
     66  CB        10.2130  -42.5510    1.4890 C.3    84  LYS84       0.0271
     67  CG        10.9880  -41.8230    0.3860 C.3    84  LYS84       0.0035
     68  CD        10.3300  -40.5070    0.0320 C.3    84  LYS84       0.0206
     69  CE        11.2990  -39.5680   -0.6960 C.3    84  LYS84       0.1093
     70  NZ        10.7110  -38.2180   -0.9120 N.3    84  LYS84      -0.1314
     71  N         15.5150  -41.9470    2.8630 N.3    88  GLU88      -0.1245
     72  CA        15.6900  -40.8080    3.7460 C.3    88  GLU88       0.1567
     73  C         16.8740  -41.0030    4.6790 C.2    88  GLU88       0.2260
     74  O         17.6880  -40.0890    4.8390 O.2    88  GLU88      -0.2867
     75  CB        14.4230  -40.5550    4.5390 C.3    88  GLU88       0.0388
     76  CG        13.2900  -40.0950    3.6660 C.3    88  GLU88       0.1160
     77  CD        12.1700  -39.4910    4.4660 C.2    88  GLU88       0.3649
     78  OE1       12.4360  -39.0140    5.5920 O.co2  88  GLU88      -0.2457
     79  OE2       11.0240  -39.4940    3.9720 O.co2  88  GLU88      -0.2457
     80  N         20.0490  -40.2270    2.9650 N.3    91  ARG91      -0.1245
     81  CA        20.2980  -38.8080    2.8180 C.3    91  ARG91       0.1563
     82  C         20.8580  -38.2690    4.1170 C.2    91  ARG91       0.2260
     83  O         21.8780  -37.5570    4.1220 O.2    91  ARG91      -0.2867
     84  CB        19.0260  -38.0630    2.4160 C.3    91  ARG91       0.0307
     85  CG        18.5370  -38.4500    1.0340 C.3    91  ARG91       0.0489
     86  CD        17.2150  -37.8030    0.7030 C.3    91  ARG91       0.2205
     87  NE        16.8080  -38.1400   -0.6480 N.pl3  91  ARG91      -0.0865
     88  CZ        15.6470  -37.8010   -1.1980 C.cat  91  ARG91       0.5346
     89  NH1       14.7600  -37.1030   -0.5030 N.pl3  91  ARG91       0.1354
     90  NH2       15.3760  -38.1620   -2.4540 N.pl3  91  ARG91       0.1354
     91  N         24.5070  -39.0580    4.5230 N.3    94  ARG94      -0.1231
     92  CA        25.3830  -38.2220    3.7050 C.3    94  ARG94       0.1694
     93  C         25.5200  -36.8480    4.3590 C.2    94  ARG94       0.2591
     94  O         26.6290  -36.3320    4.5350 O.2    94  ARG94      -0.2718
     95  CB        24.8330  -38.1070    2.2840 C.3    94  ARG94       0.0321
     96  CG        25.6630  -37.2580    1.3300 C.3    94  ARG94       0.0489
     97  CD        24.8810  -36.9180    0.0530 C.3    94  ARG94       0.2205
     98  NE        25.5470  -35.8770   -0.7350 N.pl3  94  ARG94      -0.0865
     99  CZ        25.0620  -35.3350   -1.8550 C.cat  94  ARG94       0.5346
    100  NH1       25.7520  -34.3940   -2.4920 N.pl3  94  ARG94       0.1354
    101  NH2       23.8910  -35.7220   -2.3400 N.pl3  94  ARG94       0.1354
    102  N         24.3830  -36.3030    4.7880 N.am   95  ARG95      -0.1980
    103  CA        24.3770  -34.9760    5.3630 C.3    95  ARG95       0.1597
    104  C         25.2400  -34.9640    6.6140 C.2    95  ARG95       0.2287
    105  O         26.0930  -34.0800    6.7780 O.2    95  ARG95      -0.2864
    106  CB        22.9510  -34.5280    5.6600 C.3    95  ARG95       0.0334
    107  CG        22.1830  -34.2380    4.3880 C.3    95  ARG95       0.0492
    108  CD        20.9100  -33.4880    4.6520 C.3    95  ARG95       0.2205
    109  NE        19.7800  -34.3760    4.8470 N.pl3  95  ARG95      -0.0865
    110  CZ        18.8670  -34.6320    3.9170 C.cat  95  ARG95       0.5346
    111  NH1       18.9520  -34.0620    2.7230 N.pl3  95  ARG95       0.1354
    112  NH2       17.8630  -35.4580    4.1850 N.pl3  95  ARG95       0.1354
    113  N         19.8930  -29.6370    6.3180 N.3   123  ASN123     -0.1225
    114  CA        18.6770  -30.3770    6.5370 C.3   123  ASN123      0.1785
    115  C         17.5150  -29.4120    6.6980 C.2   123  ASN123      0.2597
    116  O         17.5630  -28.4870    7.5070 O.2   123  ASN123     -0.2718
    117  CB        18.8050  -31.2790    7.7610 C.3   123  ASN123      0.1169
    118  CG        17.7890  -32.3920    7.7560 C.2   123  ASN123      0.2627
    119  OD1       16.6280  -32.1860    8.1120 O.2   123  ASN123     -0.2716
    120  ND2       18.2150  -33.5830    7.3360 N.am  123  ASN123     -0.0877
    121  N         16.4710  -29.6210    5.9140 N.am  124  ILE124     -0.1980
    122  CA        15.3410  -28.7080    5.9160 C.3   124  ILE124      0.1595
    123  C         14.3890  -29.0720    7.0220 C.2   124  ILE124      0.2287
    124  O         13.7650  -30.1220    6.9860 O.2   124  ILE124     -0.2864
    125  CB        14.6060  -28.7140    4.5670 C.3   124  ILE124      0.0276
    126  CG1       15.5780  -28.3230    3.4700 C.3   124  ILE124      0.0022
    127  CG2       13.4750  -27.7120    4.5840 C.3   124  ILE124      0.0022
    128  CD1       15.8960  -26.8350    3.4790 C.3   124  ILE124      0.0001
    129  N          4.4740  -34.9950   -2.8770 N.3   151  ASP151     -0.1239
    130  CA         4.2690  -35.5270   -4.2290 C.3   151  ASP151      0.1674
    131  C          2.8330  -35.9720   -4.4150 C.2   151  ASP151      0.2266
    132  O          2.1530  -35.5410   -5.3470 O.2   151  ASP151     -0.2867
    133  CB         5.1850  -36.7160   -4.4960 C.3   151  ASP151      0.1410
    134  CG         6.6150  -36.4670   -4.1130 C.2   151  ASP151      0.3668
    135  OD1        6.9090  -35.6900   -3.1690 O.co2 151  ASP151     -0.2456
    136  OD2        7.4750  -37.0980   -4.7500 O.co2 151  ASP151     -0.2456
    137  N         10.6780  -32.3250   -9.5610 N.3   170  ASP170     -0.1239
    138  CA        10.6570  -33.7740   -9.3480 C.3   170  ASP170      0.1674
    139  C          9.7620  -34.4910  -10.3550 C.2   170  ASP170      0.2266
    140  O          8.5790  -34.1700  -10.4900 O.2   170  ASP170     -0.2867
    141  CB        10.2100  -34.0410   -7.9150 C.3   170  ASP170      0.1410
    142  CG        10.1170  -35.5180   -7.5770 C.2   170  ASP170      0.3668
    143  OD1       10.5100  -36.3760   -8.4090 O.co2 170  ASP170     -0.2456
    144  OD2        9.6540  -35.8330   -6.4510 O.co2 170  ASP170     -0.2456
@<TRIPOS>BOND
     1   140   139    2
     2   139   138    1
     3   137   138    1
     4   138   141    1
     5    45    44    1
     6   143   142   ar
     7   141   142    1
     8    44    43    1
     9   142   144   ar
    10    43    42    1
    11    26    25    1
    12    42    41    1
    13    25    22    1
    14   132   131    2
    15     5     6    1
    16     5     2    1
    17     8     6   ar
    18     1     2    1
    19   136   134   ar
    20     6     7   ar
    21   133   130    1
    22   133   134    1
    23   131   130    1
    24    41    38    1
    25     2     3    1
    26   130   129    1
    27   134   135   ar
    28     4     3    2
    29    22    23    1
    30    22    21    1
    31    23    24    2
    32    38    37    1
    33    38    39    1
    34    21    11   am
    35   100    99    1
    36    90    88    1
    37    53    51    1
    38    37    29   am
    39   101    99    1
    40    39    40    2
    41    52    50    1
    42    99    98    2
    43    11    12    2
    44    11    10    1
    45    51    50    1
    46    50    47    1
    47    31    28    1
    48    31    32    1
    49    88    87    2
    50    88    89    1
    51    29    30    2
    52    29    28    1
    53     9    10    1
    54    70    69    1
    55    98    97    1
    56    69    68    1
    57    87    86    1
    58    10    13    1
    59    28    27    1
    60    32    34   ar
    61    32    33   ar
    62    13    14    1
    63    68    67    1
    64    34    36   ar
    65    97    96    1
    66    47    48    1
    67    47    46    1
    68    48    49    2
    69    67    66    1
    70    33    35   ar
    71    61    59   ar
    72    86    85    1
    73    36    35   ar
    74    60    59   ar
    75    85    84    1
    76    96    95    1
    77    14    16   ar
    78    14    15   ar
    79    59    58    1
    80    66    63    1
    81    63    62    1
    82    63    64    1
    83    16    18   ar
    84    15    17   ar
    85    95    92    1
    86    84    81    1
    87    65    64    2
    88    54    55    1
    89   111   110    1
    90    81    80    1
    91    81    82    1
    92    71    72    1
    93    58    55    1
    94    55    56    1
    95    18    19   ar
    96   126   128    1
    97   126   125    1
    98    17    19   ar
    99    76    77    1
   100    76    75    1
   101    92    93    1
   102    92    91    1
   103    72    75    1
   104    72    73    1
   105   110   112    1
   106   110   109    2
   107    79    77   ar
   108    19    20    1
   109    82    83    2
   110    93    94    2
   111    93   102   am
   112   107   108    1
   113   107   106    1
   114    77    78   ar
   115   125   127    1
   116   125   122    1
   117   108   109    1
   118    56    57    2
   119    73    74    2
   120   102   103    1
   121   103   106    1
   122   103   104    1
   123   121   122    1
   124   121   115   am
   125   122   123    1
   126   113   114    1
   127   114   115    1
   128   114   117    1
   129   104   105    2
   130   115   116    2
   131   124   123    2
   132   120   118   am
   133   118   117    1
   134   118   119    2
