@<TRIPOS>MOLECULE
tmp/5v0fA00.pdb
 104 98 0 0 0
SMALL
GASTEIGER

@<TRIPOS>ATOM
      1  N          9.0480  -15.1520   23.5110 N.3     9  ARG9       -0.1245
      2  CA         9.3530  -16.3130   22.7310 C.3     9  ARG9        0.1563
      3  C          8.8330  -17.5150   23.5390 C.2     9  ARG9        0.2260
      4  O          9.3370  -17.7990   24.6390 O.2     9  ARG9       -0.2867
      5  CB        10.8510  -16.3710   22.4680 C.3     9  ARG9        0.0307
      6  CG        11.2350  -17.2200   21.2710 C.3     9  ARG9        0.0489
      7  CD        12.6530  -16.8610   20.8250 C.3     9  ARG9        0.2205
      8  NE        12.5940  -15.8050   19.8240 N.pl3   9  ARG9       -0.0865
      9  CZ        12.6490  -16.0210   18.5130 C.cat   9  ARG9        0.5346
     10  NH1       12.8110  -17.2660   18.0390 N.pl3   9  ARG9        0.1354
     11  NH2       12.5390  -14.9960   17.6730 N.pl3   9  ARG9        0.1354
     12  N          2.8260   -9.8210   22.2300 N.3    48  VAL48      -0.1245
     13  CA         3.2870  -10.5440   21.0730 C.3    48  VAL48       0.1561
     14  C          3.8160  -11.9500   21.4850 C.2    48  VAL48       0.2260
     15  O          4.7440  -12.0560   22.2800 O.2    48  VAL48      -0.2867
     16  CB         4.3700   -9.7610   20.3270 C.3    48  VAL48       0.0252
     17  CG1        4.9030  -10.5260   19.1430 C.3    48  VAL48       0.0019
     18  CG2        3.8540   -8.4180   19.8650 C.3    48  VAL48       0.0019
     19  N          5.7670  -15.1340   20.0580 N.3    50  ILE50      -0.1245
     20  CA         6.5030  -15.7580   19.0150 C.3    50  ILE50       0.1561
     21  C          6.8950  -17.1950   19.4360 C.2    50  ILE50       0.2260
     22  O          7.3980  -17.4160   20.5220 O.2    50  ILE50      -0.2867
     23  CB         7.7200  -14.9130   18.7030 C.3    50  ILE50       0.0252
     24  CG1        7.2720  -13.5020   18.3170 C.3    50  ILE50       0.0019
     25  CG2        8.6220  -15.5770   17.6580 C.3    50  ILE50       0.0019
     26  CD1        8.3760  -12.5030   18.5150 C.3    50  ILE50       0.0001
     27  N         11.5330  -11.9000   24.2300 N.3    61  ASP61      -0.1225
     28  CA        12.0830  -11.7150   22.8860 C.3    61  ASP61       0.1805
     29  C         12.5300  -10.2510   22.7660 C.2    61  ASP61       0.2597
     30  O         13.6630   -9.9720   22.4390 O.2    61  ASP61      -0.2718
     31  CB        11.0440  -12.0880   21.7810 C.3    61  ASP61       0.1424
     32  CG        11.6030  -11.9030   20.3900 C.2    61  ASP61       0.3668
     33  OD1       11.8590  -12.9010   19.6960 O.co2  61  ASP61      -0.2456
     34  OD2       11.8790  -10.7490   19.9940 O.co2  61  ASP61      -0.2456
     35  N         11.6180   -9.3230   23.0640 N.am   62  HIS62      -0.1975
     36  CA        11.9470   -7.9140   23.1420 C.3    62  HIS62       0.1656
     37  C         10.8190   -7.1990   23.8330 C.2    62  HIS62       0.2291
     38  O          9.7770   -7.7900   24.1820 O.2    62  HIS62      -0.2864
     39  CB        12.2490   -7.3020   21.7500 C.3    62  HIS62       0.0771
     40  CG        11.0660   -7.2460   20.8300 C.ar   62  HIS62       0.0820
     41  ND1       10.2370   -6.1480   20.7760 N.ar   62  HIS62      -0.2267
     42  CD2       10.5570   -8.1420   19.9460 C.ar   62  HIS62       0.1154
     43  CE1        9.2840   -6.3640   19.8800 C.ar   62  HIS62       0.1986
     44  NE2        9.4540   -7.5710   19.3730 N.ar   62  HIS62      -0.2212
     45  N         14.1970    2.3950   11.7190 N.3    90  GLU90      -0.1245
     46  CA        13.6400    1.5920   10.6290 C.3    90  GLU90       0.1567
     47  C         12.4080    2.3400   10.0970 C.2    90  GLU90       0.2260
     48  O         11.6470    2.8880   10.8930 O.2    90  GLU90      -0.2867
     49  CB        13.1270    0.2640   11.1700 C.3    90  GLU90       0.0388
     50  CG        14.1150   -0.7030   11.7800 C.3    90  GLU90       0.1160
     51  CD        13.4020   -2.0100   12.0990 C.2    90  GLU90       0.3649
     52  OE1       12.6680   -2.0830   13.1000 O.co2  90  GLU90      -0.2457
     53  OE2       13.5190   -2.9650   11.3380 O.co2  90  GLU90      -0.2457
     54  N          8.1750   -7.1400    8.5520 N.3    95  CYS95      -0.1221
     55  CA         8.5410   -7.8220    9.7900 C.3    95  CYS95       0.1808
     56  C          7.5850   -8.9610   10.1480 C.2    95  CYS95       0.2601
     57  O          7.6430  -10.0430    9.5630 O.2    95  CYS95      -0.2717
     58  CB         8.6190   -6.8230   10.9460 C.3    95  CYS95       0.0970
     59  SG         9.3890   -7.4750   12.4470 S.3    95  CYS95      -0.0800
     60  N          6.7120   -8.7070   11.1180 N.am   96  CYS96      -0.1970
     61  CA         5.8000   -9.7200   11.6400 C.3    96  CYS96       0.1712
     62  C          4.3450   -9.4440   11.2630 C.2    96  CYS96       0.2296
     63  O          3.5140   -9.1500   12.1220 O.2    96  CYS96      -0.2864
     64  CB         5.9360   -9.8290   13.1600 C.3    96  CYS96       0.0983
     65  SG         7.6290   -9.6730   13.7730 S.3    96  CYS96      -0.0798
     66  N          5.6750   -1.0040   10.3150 N.3   100  GLN100     -0.1245
     67  CA         5.7300    0.0730   11.2860 C.3   100  GLN100      0.1566
     68  C          6.9910    0.8740   11.0020 C.2   100  GLN100      0.2260
     69  O          7.8660    0.4220   10.2510 O.2   100  GLN100     -0.2867
     70  CB         5.7260   -0.4710   12.7090 C.3   100  GLN100      0.0367
     71  CG         6.8810   -1.4310   13.0650 C.3   100  GLN100      0.0905
     72  CD         6.4990   -2.9150   12.9430 C.2   100  GLN100      0.2608
     73  OE1        5.9550   -3.3630   11.9150 O.2   100  GLN100     -0.2717
     74  NE2        6.8050   -3.6880   13.9830 N.am  100  GLN100     -0.0878
     75  N         15.0670    1.4050   17.7130 N.3   104  TRP104     -0.1241
     76  CA        15.5370    0.3970   18.6390 C.3   104  TRP104      0.1605
     77  C         16.6720    0.8440   19.5550 C.2   104  TRP104      0.2264
     78  O         17.6220    1.4770   19.0890 O.2   104  TRP104     -0.2867
     79  CB        16.0210   -0.8220   17.8520 C.3   104  TRP104      0.0550
     80  CG        14.9340   -1.5960   17.1950 C.ar  104  TRP104      0.0003
     81  CD1       14.4030   -1.3510   15.9890 C.ar  104  TRP104      0.0946
     82  CD2       14.2850   -2.7730   17.7030 C.ar  104  TRP104      0.0152
     83  NE1       13.4280   -2.3040   15.7000 N.ar  104  TRP104     -0.2442
     84  CE2       13.3460   -3.1800   16.7510 C.ar  104  TRP104      0.0810
     85  CE3       14.4110   -3.5240   18.8860 C.ar  104  TRP104      0.0012
     86  CZ2       12.5250   -4.3080   16.9280 C.ar  104  TRP104      0.0191
     87  CZ3       13.6040   -4.6560   19.0620 C.ar  104  TRP104      0.0001
     88  CH2       12.6720   -5.0240   18.0800 C.ar  104  TRP104      0.0015
     89  N         16.3930   -5.7870   24.4040 N.3   112  PRO112     -0.2116
     90  CA        16.0370   -4.8360   23.3580 C.3   112  PRO112      0.1372
     91  C         14.6880   -4.1790   23.5080 C.2   112  PRO112      0.2244
     92  O         13.7320   -4.8780   23.8280 O.2   112  PRO112     -0.2868
     93  CB        16.0430   -5.6950   22.0940 C.3   112  PRO112      0.0268
     94  CG        15.8630   -7.1100   22.5440 C.3   112  PRO112      0.0207
     95  CD        16.2410   -7.1960   23.9970 C.3   112  PRO112      0.0892
     96  N         11.8880   -1.4260   21.4080 N.3   114  GLU114     -0.1245
     97  CA        11.5570   -0.5540   20.2640 C.3   114  GLU114      0.1567
     98  C         10.4390    0.4030   20.5380 C.2   114  GLU114      0.2260
     99  O          9.3820    0.0080   21.0130 O.2   114  GLU114     -0.2867
    100  CB        11.2030   -1.3050   18.9720 C.3   114  GLU114      0.0388
    101  CG        10.2760   -2.4550   19.1770 C.3   114  GLU114      0.1160
    102  CD         9.5430   -2.8440   17.9170 C.2   114  GLU114      0.3649
    103  OE1        9.6160   -2.1010   16.9080 O.co2 114  GLU114     -0.2457
    104  OE2        8.8660   -3.8840   17.9670 O.co2 114  GLU114     -0.2457
@<TRIPOS>BOND
     1    54    55    1
     2    57    56    2
     3    55    56    1
     4    55    58    1
     5    47    46    1
     6    47    48    2
     7    56    60   am
     8    69    68    2
     9    66    67    1
    10    46    49    1
    11    46    45    1
    12    58    59    1
    13    68    67    1
    14    60    61    1
    15    49    50    1
    16    62    61    1
    17    62    63    2
    18    67    70    1
    19    53    51   ar
    20    61    64    1
    21    50    51    1
    22    73    72    2
    23    51    52   ar
    24    70    71    1
    25    72    71    1
    26    72    74   am
    27    64    65    1
    28    83    81   ar
    29    83    84   ar
    30    81    80   ar
    31    84    86   ar
    32    84    82   ar
    33   103   102   ar
    34    86    88   ar
    35    80    82   ar
    36    80    79    1
    37    25    23    1
    38    11     9    1
    39    82    85   ar
    40    75    76    1
    41    79    76    1
    42   102   104   ar
    43   102   101    1
    44    10     9    1
    45    88    87   ar
    46    24    26    1
    47    24    23    1
    48     9     8    2
    49    76    77    1
    50    23    20    1
    51    85    87   ar
    52   100   101    1
    53   100    97    1
    54    20    21    1
    55    20    19    1
    56    78    77    2
    57    17    16    1
    58    44    43   ar
    59    44    42   ar
    60    21    22    2
    61    33    32   ar
    62     8     7    1
    63    18    16    1
    64    43    41   ar
    65    42    40   ar
    66    34    32   ar
    67    97    98    1
    68    97    96    1
    69    16    13    1
    70    32    31    1
    71    98    99    2
    72    41    40   ar
    73     7     6    1
    74    40    39    1
    75    13    14    1
    76    13    12    1
    77     6     5    1
    78    14    15    2
    79    39    36    1
    80    31    28    1
    81    93    94    1
    82    93    90    1
    83    30    29    2
    84     5     2    1
    85    94    95    1
    86     2     1    1
    87     2     3    1
    88    29    28    1
    89    29    35   am
    90    28    27    1
    91    35    36    1
    92    36    37    1
    93    90    91    1
    94    90    89    1
    95    91    92    2
    96     3     4    2
    97    37    38    2
    98    95    89    1
