@<TRIPOS>MOLECULE
tmp/5v0iB00.pdb
 127 122 0 0 0
SMALL
GASTEIGER

@<TRIPOS>ATOM
      1  N         -6.9060   34.7140   45.7110 N.3    16  THR16      -0.1218
      2  CA        -7.5970   35.0110   46.9560 C.3    16  THR16       0.1862
      3  C         -7.1160   36.3450   47.5160 C.2    16  THR16       0.2287
      4  O         -6.1270   36.9120   47.0640 O.2    16  THR16      -0.2866
      5  CB        -7.3540   33.9060   47.9860 C.3    16  THR16       0.1770
      6  OG1       -6.0350   34.0540   48.5350 O.3    16  THR16      -0.2211
      7  CG2       -7.4700   32.5390   47.3390 C.3    16  THR16       0.0375
      8  N         -5.8010   36.3900   50.2830 N.3    18  GLY18      -0.1210
      9  CA        -4.5210   35.9900   50.8480 C.3    18  GLY18       0.1956
     10  C         -3.3840   36.1640   49.8590 C.2    18  GLY18       0.2611
     11  O         -2.3330   36.7130   50.1980 O.2    18  GLY18      -0.2717
     12  N         -3.5800   35.7040   48.6210 N.am   19  ASN19      -0.1974
     13  CA        -2.5960   35.9640   47.5700 C.3    19  ASN19       0.1688
     14  C         -2.3440   37.4510   47.4330 C.2    19  ASN19       0.2292
     15  O         -1.1940   37.9050   47.3670 O.2    19  ASN19      -0.2864
     16  CB        -3.0810   35.4140   46.2290 C.3    19  ASN19       0.1181
     17  CG        -3.1530   33.9150   46.2040 C.2    19  ASN19       0.2629
     18  OD1       -4.1960   33.3370   45.8870 O.2    19  ASN19      -0.2716
     19  ND2       -2.0400   33.2670   46.5310 N.am   19  ASN19      -0.0877
     20  N         -1.1200   39.3270   50.8780 N.3    22  GLY22      -0.1210
     21  CA         0.1140   38.7890   51.4120 C.3    22  GLY22       0.1956
     22  C          1.3060   39.0310   50.5090 C.2    22  GLY22       0.2611
     23  O          2.4500   39.0030   50.9710 O.2    22  GLY22      -0.2717
     24  N          1.0600   39.2870   49.2240 N.am   23  ALA23      -0.1979
     25  CA         2.1580   39.3470   48.2710 C.3    23  ALA23       0.1597
     26  C          1.9240   40.3610   47.1540 C.2    23  ALA23       0.2287
     27  O          2.6760   41.3400   47.0340 O.2    23  ALA23      -0.2864
     28  CB         2.4010   37.9560   47.6760 C.3    23  ALA23       0.0319
     29  N          9.7760   35.5050   43.7920 N.3   141  PRO141     -0.2102
     30  CA         8.9300   35.5790   44.9830 C.3   141  PRO141      0.1504
     31  C          7.9060   34.4770   44.9190 C.2   141  PRO141      0.2576
     32  O          6.9060   34.6030   44.2110 O.2   141  PRO141     -0.2718
     33  CB         8.2870   36.9670   44.8790 C.3   141  PRO141      0.0282
     34  CG         8.3510   37.3220   43.3870 C.3   141  PRO141      0.0208
     35  CD         9.2140   36.2910   42.6820 C.3   141  PRO141      0.0893
     36  N          8.1400   33.3880   45.6410 N.am  142  VAL142     -0.1966
     37  CA         7.3520   32.1890   45.4190 C.3   142  VAL142      0.1727
     38  C          6.9230   31.5910   46.7570 C.2   142  VAL142      0.2617
     39  O          7.5760   31.7860   47.7880 O.2   142  VAL142     -0.2715
     40  CB         8.1700   31.2110   44.5560 C.3   142  VAL142      0.0290
     41  CG1        9.1120   30.3520   45.4040 C.3   142  VAL142      0.0023
     42  CG2        7.2700   30.4550   43.6090 C.3   142  VAL142      0.0023
     43  N          5.7740   30.8890   46.7400 N.am  143  GLY143     -0.1940
     44  CA         5.2420   30.2620   47.9350 C.3   143  GLY143      0.2014
     45  C          5.9200   28.9350   48.2380 C.2   143  GLY143      0.2639
     46  O          6.7270   28.4320   47.4580 O.2   143  GLY143     -0.2714
     47  N          5.5460   28.3580   49.3860 N.am  144  GLU144     -0.1963
     48  CA         6.2210   27.1680   49.9030 C.3   144  GLU144      0.1733
     49  C          6.1730   26.0070   48.9210 C.2   144  GLU144      0.2616
     50  O          7.1430   25.2470   48.8000 O.2   144  GLU144     -0.2715
     51  CB         5.5890   26.7590   51.2280 C.3   144  GLU144      0.0429
     52  CG         5.6040   27.8580   52.2590 C.3   144  GLU144      0.1163
     53  CD         6.8530   27.8240   53.1030 C.2   144  GLU144      0.3649
     54  OE1        7.8110   27.1090   52.7270 O.co2 144  GLU144     -0.2457
     55  OE2        6.8700   28.5040   54.1500 O.co2 144  GLU144     -0.2457
     56  N          5.0540   25.8440   48.2170 N.am  145  ASP145     -0.1957
     57  CA         4.9070   24.7490   47.2660 C.3   145  ASP145      0.1840
     58  C          5.9300   24.7880   46.1320 C.2   145  ASP145      0.2621
     59  O          6.0600   23.7940   45.4100 O.2   145  ASP145     -0.2715
     60  CB         3.5060   24.7870   46.6650 C.3   145  ASP145      0.1450
     61  CG         3.1610   26.1520   46.1270 C.2   145  ASP145      0.3671
     62  OD1        3.2000   27.1250   46.9120 O.co2 145  ASP145     -0.2456
     63  OD2        2.8840   26.2620   44.9170 O.co2 145  ASP145     -0.2456
     64  N          6.6290   25.9040   45.9300 N.am  146  GLN146     -0.1977
     65  CA         7.5750   26.0430   44.8260 C.3   146  GLN146      0.1601
     66  C          9.0330   26.0780   45.2750 C.2   146  GLN146      0.2287
     67  O          9.9120   26.3570   44.4520 O.2   146  GLN146     -0.2864
     68  CB         7.2750   27.3090   44.0310 C.3   146  GLN146      0.0394
     69  CG         5.8440   27.4200   43.5540 C.3   146  GLN146      0.0908
     70  CD         5.5200   26.3580   42.5380 C.2   146  GLN146      0.2608
     71  OE1        6.3490   26.0430   41.6760 O.2   146  GLN146     -0.2717
     72  NE2        4.3200   25.7800   42.6400 N.am  146  GLN146     -0.0878
     73  N          0.9060   39.7910   55.3400 N.3   175  ALA175     -0.1231
     74  CA        -0.4360   39.5970   55.8860 C.3   175  ALA175      0.1694
     75  C         -0.6570   38.1360   56.2860 C.2   175  ALA175      0.2592
     76  O          0.1510   37.2640   55.9790 O.2   175  ALA175     -0.2718
     77  CB        -1.4940   40.0450   54.8830 C.3   175  ALA175      0.0304
     78  N         -1.7730   37.8720   56.9610 N.am  176  ARG176     -0.1966
     79  CA        -2.0250   36.5670   57.5760 C.3   176  ARG176      0.1729
     80  C         -3.5090   36.2300   57.4250 C.2   176  ARG176      0.2616
     81  O         -4.3350   36.7090   58.2090 O.2   176  ARG176     -0.2715
     82  CB        -1.6030   36.6130   59.0370 C.3   176  ARG176      0.0348
     83  CG        -1.2350   35.2880   59.6400 C.3   176  ARG176      0.0492
     84  CD        -1.2470   35.4060   61.1470 C.3   176  ARG176      0.2205
     85  NE        -2.0710   34.3690   61.7510 N.pl3 176  ARG176     -0.0865
     86  CZ        -1.6460   33.1400   62.0170 C.cat 176  ARG176      0.5346
     87  NH1       -2.4720   32.2610   62.5670 N.pl3 176  ARG176      0.1354
     88  NH2       -0.3920   32.7940   61.7380 N.pl3 176  ARG176      0.1354
     89  N         -3.8490   35.4050   56.4320 N.am  177  VAL177     -0.1977
     90  CA        -5.2470   35.1700   56.0480 C.3   177  VAL177      0.1596
     91  C         -5.5410   33.6720   56.1210 C.2   177  VAL177      0.2287
     92  O         -5.0320   32.8960   55.3040 O.2   177  VAL177     -0.2864
     93  CB        -5.5680   35.7150   54.6490 C.3   177  VAL177      0.0276
     94  CG1       -7.0890   35.6020   54.3650 C.3   177  VAL177      0.0022
     95  CG2       -5.1200   37.1780   54.5090 C.3   177  VAL177      0.0022
     96  N         -4.4110   27.8320   56.5850 N.3   186  LYS186     -0.1231
     97  CA        -4.2400   29.0370   55.7890 C.3   186  LYS186      0.1693
     98  C         -5.1860   29.0070   54.5950 C.2   186  LYS186      0.2592
     99  O         -5.4760   27.9470   54.0340 O.2   186  LYS186     -0.2718
    100  CB        -2.7830   29.1810   55.3310 C.3   186  LYS186      0.0285
    101  CG        -2.4910   28.6690   53.9320 C.3   186  LYS186      0.0035
    102  CD        -1.2950   29.3990   53.3230 C.3   186  LYS186      0.0206
    103  CE        -0.9430   28.8660   51.9350 C.3   186  LYS186      0.1093
    104  NZ        -1.9570   29.2370   50.9020 N.3   186  LYS186     -0.1314
    105  N         -5.6890   30.1800   54.2300 N.am  187  MET187     -0.1965
    106  CA        -6.5720   30.2800   53.0760 C.3   187  MET187      0.1736
    107  C         -5.7930   29.9480   51.8100 C.2   187  MET187      0.2617
    108  O         -4.6870   30.4590   51.5860 O.2   187  MET187     -0.2715
    109  CB        -7.1860   31.6800   52.9940 C.3   187  MET187      0.0427
    110  CG        -8.2390   31.8150   51.8980 C.3   187  MET187      0.0599
    111  SD        -8.7850   33.5170   51.6380 S.3   187  MET187     -0.1393
    112  CE        -9.9180   33.7200   53.0200 C.3   187  MET187      0.0692
    113  N         -6.3600   29.0740   50.9880 N.am  188  SER188     -0.1936
    114  CA        -5.6240   28.4780   49.8860 C.3   188  SER188      0.2055
    115  C         -6.3860   28.6530   48.5860 C.2   188  SER188      0.2642
    116  O         -7.5750   28.3290   48.5070 O.2   188  SER188     -0.2714
    117  CB        -5.3620   26.9920   50.1360 C.3   188  SER188      0.2130
    118  OG        -4.8990   26.3750   48.9520 O.3   188  SER188     -0.2179
    119  N         -5.6870   29.1580   47.5710 N.am  189  LYS189     -0.1977
    120  CA        -6.2370   29.2150   46.2240 C.3   189  LYS189      0.1596
    121  C         -6.8040   27.8700   45.7880 C.2   189  LYS189      0.2287
    122  O         -7.7860   27.8220   45.0390 O.2   189  LYS189     -0.2864
    123  CB        -5.1440   29.6610   45.2500 C.3   189  LYS189      0.0298
    124  CG        -3.9200   28.7440   45.2740 C.3   189  LYS189      0.0038
    125  CD        -2.7810   29.2730   44.4250 C.3   189  LYS189      0.0206
    126  CE        -3.1350   29.2890   42.9510 C.3   189  LYS189      0.1093
    127  NZ        -2.4680   30.4150   42.2410 N.3   189  LYS189     -0.1314
@<TRIPOS>BOND
     1    71    70    2
     2   127   126    1
     3    70    72   am
     4    70    69    1
     5    35    34    1
     6    35    29    1
     7   126   125    1
     8    34    33    1
     9    69    68    1
    10    42    40    1
    11    29    30    1
    12    68    65    1
    13    32    31    2
    14   125   124    1
    15    67    66    2
    16    40    41    1
    17    40    37    1
    18    65    66    1
    19    65    64    1
    20    33    30    1
    21    63    61   ar
    22    31    30    1
    23    31    36   am
    24   122   121    2
    25   123   124    1
    26   123   120    1
    27    59    58    2
    28    37    36    1
    29    37    38    1
    30     1     2    1
    31   121   120    1
    32    18    17    2
    33    64    58   am
    34    61    60    1
    35    61    62   ar
    36    58    57    1
    37    17    16    1
    38    17    19   am
    39   120   119    1
    40    16    13    1
    41    60    57    1
    42    43    38   am
    43    43    44    1
    44    38    39    2
    45     2     3    1
    46     2     5    1
    47    27    26    2
    48     4     3    2
    49    26    25    1
    50    57    56    1
    51     7     5    1
    52    15    14    2
    53    14    13    1
    54    46    45    2
    55    13    12    1
    56   119   115   am
    57    28    25    1
    58    44    45    1
    59     5     6    1
    60    56    49   am
    61    45    47   am
    62    25    24    1
    63   116   115    2
    64   115   114    1
    65    12    10   am
    66    50    49    2
    67    49    48    1
    68   118   117    1
    69    24    22   am
    70    47    48    1
    71    10    11    2
    72    10     9    1
    73   114   117    1
    74   114   113    1
    75    48    51    1
    76     8     9    1
    77    22    23    2
    78    22    21    1
    79    20    21    1
    80   104   103    1
    81   113   107   am
    82    51    52    1
    83   108   107    2
    84   111   110    1
    85   111   112    1
    86   107   106    1
    87   110   109    1
    88   103   102    1
    89    52    53    1
    90    54    53   ar
    91   109   106    1
    92   106   105    1
    93    53    55   ar
    94   102   101    1
    95   101   100    1
    96    99    98    2
    97   105    98   am
    98    94    93    1
    99    95    93    1
   100    98    97    1
   101    93    90    1
   102    77    74    1
   103    92    91    2
   104   100    97    1
   105    73    74    1
   106    97    96    1
   107    74    75    1
   108    76    75    2
   109    90    91    1
   110    90    89    1
   111    75    78   am
   112    89    80   am
   113    78    79    1
   114    80    79    1
   115    80    81    2
   116    79    82    1
   117    82    83    1
   118    83    84    1
   119    84    85    1
   120    88    86    1
   121    85    86    2
   122    86    87    1
