@<TRIPOS>MOLECULE
tmp/5v0iB01.pdb
 130 124 0 0 0
SMALL
GASTEIGER

@<TRIPOS>ATOM
      1  N         11.1380   37.7650   38.7890 N.3     6  PHE6       -0.1227
      2  CA        10.3170   36.9650   37.8840 C.3     6  PHE6        0.1736
      3  C          9.2580   36.2070   38.6680 C.2     6  PHE6        0.2596
      4  O          9.5860   35.5270   39.6490 O.2     6  PHE6       -0.2718
      5  CB        11.1710   35.9650   37.0940 C.3     6  PHE6        0.0547
      6  CG        10.4020   35.2360   36.0310 C.ar    6  PHE6       -0.0202
      7  CD1        9.6990   34.0670   36.3250 C.ar    6  PHE6       -0.0042
      8  CD2       10.3620   35.7310   34.7430 C.ar    6  PHE6       -0.0042
      9  CE1        8.9830   33.4090   35.3360 C.ar    6  PHE6       -0.0003
     10  CE2        9.6490   35.0700   33.7450 C.ar    6  PHE6       -0.0003
     11  CZ         8.9630   33.9020   34.0560 C.ar    6  PHE6       -0.0000
     12  N          8.0110   36.2810   38.2020 N.am    7  SER7       -0.1938
     13  CA         6.9010   35.5590   38.8140 C.3     7  SER7        0.2055
     14  C          6.0340   34.9240   37.7350 C.2     7  SER7        0.2643
     15  O          5.6340   35.5920   36.7790 O.2     7  SER7       -0.2714
     16  CB         6.0570   36.4970   39.6840 C.3     7  SER7        0.2130
     17  OG         4.9470   35.8170   40.2300 O.3     7  SER7       -0.2179
     18  N          5.7330   33.6300   37.9010 N.am    8  GLY8       -0.1954
     19  CA         4.8230   32.9350   36.9970 C.3     8  GLY8        0.1869
     20  C          3.4010   32.9700   37.5290 C.2     8  GLY8        0.2309
     21  O          3.1500   32.5810   38.6720 O.2     8  GLY8       -0.2863
     22  N         -0.2750   31.4640   36.9990 N.3    10  GLN10      -0.1245
     23  CA        -1.0630   30.4070   36.3740 C.3    10  GLN10       0.1566
     24  C         -2.3700   30.9820   35.8260 C.2    10  GLN10       0.2260
     25  O         -3.1090   31.6390   36.5680 O.2    10  GLN10      -0.2867
     26  CB        -1.3820   29.2950   37.3860 C.3    10  GLN10       0.0367
     27  CG        -0.2270   28.3600   37.7440 C.3    10  GLN10       0.0905
     28  CD        -0.0040   27.2760   36.7060 C.2    10  GLN10       0.2608
     29  OE1       -0.5860   27.3110   35.6230 O.2    10  GLN10      -0.2717
     30  NE2        0.8380   26.2940   37.0370 N.am   10  GLN10      -0.0878
     31  N          1.5990   31.6960   32.6470 N.3    41  VAL41      -0.1245
     32  CA         2.2830   30.4740   32.2100 C.3    41  VAL41       0.1561
     33  C          1.3010   29.4770   31.6080 C.2    41  VAL41       0.2260
     34  O          1.0060   28.4240   32.1920 O.2    41  VAL41      -0.2867
     35  CB         3.0970   29.8460   33.3610 C.3    41  VAL41       0.0252
     36  CG1        4.3550   30.6640   33.6120 C.3    41  VAL41       0.0019
     37  CG2        2.2840   29.7590   34.6400 C.3    41  VAL41       0.0019
     38  N          2.6050   25.8810   31.2210 N.3    44  HIS44      -0.1241
     39  CA         2.4830   25.0500   32.4180 C.3    44  HIS44       0.1621
     40  C          1.0440   24.5740   32.6260 C.2    44  HIS44       0.2264
     41  O          0.8080   23.4420   33.0760 O.2    44  HIS44      -0.2867
     42  CB         2.9780   25.8260   33.6410 C.3    44  HIS44       0.0745
     43  CG         4.4780   25.9620   33.7160 C.ar   44  HIS44       0.0817
     44  ND1        5.2800   25.0260   34.3290 N.ar   44  HIS44      -0.2268
     45  CD2        5.3140   26.9320   33.2610 C.ar   44  HIS44       0.1154
     46  CE1        6.5470   25.4110   34.2470 C.ar   44  HIS44       0.1986
     47  NE2        6.5920   26.5670   33.6050 N.ar   44  HIS44      -0.2212
     48  N          7.8100   19.6360   33.8720 N.3   124  TYR124     -0.1241
     49  CA         7.6220   21.0770   33.9730 C.3   124  TYR124      0.1605
     50  C          8.5810   21.7750   34.9380 C.2   124  TYR124      0.2264
     51  O          8.8050   22.9810   34.7460 O.2   124  TYR124     -0.2867
     52  CB         6.1550   21.4000   34.3280 C.3   124  TYR124      0.0534
     53  CG         5.7920   21.3260   35.7960 C.ar  124  TYR124     -0.0201
     54  CD1        5.9820   22.4200   36.6360 C.ar  124  TYR124     -0.0009
     55  CD2        5.2230   20.1720   36.3360 C.ar  124  TYR124     -0.0009
     56  CE1        5.6320   22.3670   37.9780 C.ar  124  TYR124      0.0417
     57  CE2        4.8700   20.1090   37.6930 C.ar  124  TYR124      0.0417
     58  CZ         5.0800   21.2170   38.5000 C.ar  124  TYR124      0.1957
     59  OH         4.7450   21.1960   39.8380 O.3   124  TYR124     -0.2866
     60  N         10.1310   25.4400   34.2490 N.3   128  MET128     -0.1245
     61  CA        10.1400   26.5030   35.2500 C.3   128  MET128      0.1570
     62  C         11.5500   27.0380   35.4830 C.2   128  MET128      0.2261
     63  O         11.7330   28.2360   35.7230 O.2   128  MET128     -0.2867
     64  CB         9.5440   25.9990   36.5600 C.3   128  MET128      0.0387
     65  CG         9.3140   27.1020   37.5810 C.3   128  MET128      0.0595
     66  SD         8.4050   26.5350   39.0330 S.3   128  MET128     -0.1393
     67  CE         7.8180   24.9530   38.4610 C.3   128  MET128      0.0692
     68  N         12.1050   29.3190   32.5240 N.3   131  ASP131     -0.1225
     69  CA        11.3450   30.5620   32.6730 C.3   131  ASP131      0.1805
     70  C         12.1410   31.5980   33.4490 C.2   131  ASP131      0.2597
     71  O         12.1550   32.7830   33.1080 O.2   131  ASP131     -0.2718
     72  CB        10.0280   30.3070   33.4320 C.3   131  ASP131      0.1424
     73  CG         9.0660   29.3810   32.6960 C.2   131  ASP131      0.3668
     74  OD1        8.2390   28.7370   33.3960 O.co2 131  ASP131     -0.2456
     75  OD2        9.1020   29.3230   31.4440 O.co2 131  ASP131     -0.2456
     76  N         12.7330   31.1580   34.5580 N.am  132  ILE132     -0.1980
     77  CA        13.4510   32.0330   35.4630 C.3   132  ILE132      0.1595
     78  C         14.7870   32.4380   34.8580 C.2   132  ILE132      0.2287
     79  O         15.1570   33.6190   34.8530 O.2   132  ILE132     -0.2864
     80  CB        13.6700   31.3190   36.8040 C.3   132  ILE132      0.0276
     81  CG1       12.3560   31.0090   37.5100 C.3   132  ILE132      0.0022
     82  CG2       14.6330   32.1290   37.6810 C.3   132  ILE132      0.0022
     83  CD1       12.5270   30.0750   38.7040 C.3   132  ILE132      0.0001
     84  N         12.9850   35.4450   42.9670 N.3   140  VAL140     -0.1231
     85  CA        11.7640   34.7540   42.5670 C.3   140  VAL140      0.1678
     86  C         10.8460   34.7110   43.7780 C.2   140  VAL140      0.2434
     87  O         11.1100   33.9590   44.7280 O.2   140  VAL140     -0.2733
     88  CB        12.0380   33.3420   42.0340 C.3   140  VAL140      0.0265
     89  CG1       10.7200   32.7000   41.5810 C.3   140  VAL140      0.0020
     90  CG2       13.0340   33.3900   40.8950 C.3   140  VAL140      0.0020
     91  N          9.7760   35.5050   43.7920 N.am  141  PRO141     -0.2718
     92  CA         8.9300   35.5790   44.9830 C.3   141  PRO141      0.1535
     93  C          7.9060   34.4770   44.9190 C.2   141  PRO141      0.2598
     94  O          6.9060   34.6030   44.2110 O.2   141  PRO141     -0.2715
     95  CB         8.2870   36.9670   44.8790 C.3   141  PRO141      0.0310
     96  CG         8.3510   37.3220   43.3870 C.3   141  PRO141      0.0237
     97  CD         9.2140   36.2910   42.6820 C.3   141  PRO141      0.0939
     98  N          8.1400   33.3880   45.6410 N.am  142  VAL142     -0.1978
     99  CA         7.3520   32.1890   45.4190 C.3   142  VAL142      0.1596
    100  C          6.9230   31.5910   46.7570 C.2   142  VAL142      0.2287
    101  O          7.5760   31.7860   47.7880 O.2   142  VAL142     -0.2864
    102  CB         8.1700   31.2110   44.5560 C.3   142  VAL142      0.0276
    103  CG1        9.1120   30.3520   45.4040 C.3   142  VAL142      0.0022
    104  CG2        7.2700   30.4550   43.6090 C.3   142  VAL142      0.0022
    105  N          5.0540   25.8440   48.2170 N.3   145  ASP145     -0.1225
    106  CA         4.9070   24.7490   47.2660 C.3   145  ASP145      0.1805
    107  C          5.9300   24.7880   46.1320 C.2   145  ASP145      0.2597
    108  O          6.0600   23.7940   45.4100 O.2   145  ASP145     -0.2718
    109  CB         3.5060   24.7870   46.6650 C.3   145  ASP145      0.1424
    110  CG         3.1610   26.1520   46.1270 C.2   145  ASP145      0.3668
    111  OD1        3.2000   27.1250   46.9120 O.co2 145  ASP145     -0.2456
    112  OD2        2.8840   26.2620   44.9170 O.co2 145  ASP145     -0.2456
    113  N          6.6290   25.9040   45.9300 N.am  146  GLN146     -0.1979
    114  CA         7.5750   26.0430   44.8260 C.3   146  GLN146      0.1601
    115  C          9.0330   26.0780   45.2750 C.2   146  GLN146      0.2287
    116  O          9.9120   26.3570   44.4520 O.2   146  GLN146     -0.2864
    117  CB         7.2750   27.3090   44.0310 C.3   146  GLN146      0.0394
    118  CG         5.8440   27.4200   43.5540 C.3   146  GLN146      0.0908
    119  CD         5.5200   26.3580   42.5380 C.2   146  GLN146      0.2608
    120  OE1        6.3490   26.0430   41.6760 O.2   146  GLN146     -0.2717
    121  NE2        4.3200   25.7800   42.6400 N.am  146  GLN146     -0.0878
    122  N         -5.6870   29.1580   47.5710 N.3   189  LYS189     -0.1245
    123  CA        -6.2370   29.2150   46.2240 C.3   189  LYS189      0.1561
    124  C         -6.8040   27.8700   45.7880 C.2   189  LYS189      0.2260
    125  O         -7.7860   27.8220   45.0390 O.2   189  LYS189     -0.2867
    126  CB        -5.1440   29.6610   45.2500 C.3   189  LYS189      0.0271
    127  CG        -3.9200   28.7440   45.2740 C.3   189  LYS189      0.0035
    128  CD        -2.7810   29.2730   44.4250 C.3   189  LYS189      0.0206
    129  CE        -3.1350   29.2890   42.9510 C.3   189  LYS189      0.1093
    130  NZ        -2.4680   30.4150   42.2410 N.3   189  LYS189     -0.1314
@<TRIPOS>BOND
     1    38    39    1
     2    75    73   ar
     3    33    34    2
     4    33    32    1
     5    32    31    1
     6    32    35    1
     7    39    40    1
     8    39    42    1
     9    68    69    1
    10    40    41    2
    11    69    72    1
    12    69    70    1
    13    73    74   ar
    14    73    72    1
    15    71    70    2
    16    45    47   ar
    17    45    43   ar
    18    35    36    1
    19    35    37    1
    20    70    76   am
    21    47    46   ar
    22    42    43    1
    23    43    44   ar
    24    10    11   ar
    25    10     8   ar
    26    48    49    1
    27    49    52    1
    28    49    50    1
    29    11     9   ar
    30    46    44   ar
    31    60    61    1
    32    52    53    1
    33    76    77    1
    34     8     6   ar
    35    51    50    2
    36    79    78    2
    37    78    77    1
    38    61    62    1
    39    61    64    1
    40     9     7   ar
    41    77    80    1
    42    62    63    2
    43    29    28    2
    44    53    55   ar
    45    53    54   ar
    46    24    23    1
    47    24    25    2
    48     6     7   ar
    49     6     5    1
    50    55    57   ar
    51    23    22    1
    52    23    26    1
    53    64    65    1
    54    54    56   ar
    55    28    30   am
    56    28    27    1
    57    15    14    2
    58    80    81    1
    59    80    82    1
    60    19    20    1
    61    19    18    1
    62     5     2    1
    63    26    27    1
    64    81    83    1
    65    20    21    2
    66    65    66    1
    67    57    58   ar
    68    14    18   am
    69    14    13    1
    70     2     3    1
    71     2     1    1
    72    56    58   ar
    73    12     3   am
    74    12    13    1
    75    67    66    1
    76    58    59    1
    77     3     4    2
    78    13    16    1
    79    16    17    1
    80    90    88    1
    81    89    88    1
    82   120   119    2
    83    88    85    1
    84   130   129    1
    85   119   121   am
    86   119   118    1
    87    85    84    1
    88    85    86    1
    89    97    96    1
    90    97    91    1
    91   129   128    1
    92    96    95    1
    93   118   117    1
    94   104   102    1
    95    86    91   am
    96    86    87    2
    97    91    92    1
    98   117   114    1
    99    94    93    2
   100   128   127    1
   101   116   115    2
   102   102   103    1
   103   102    99    1
   104   114   115    1
   105   114   113    1
   106    95    92    1
   107   112   110   ar
   108    93    92    1
   109    93    98   am
   110   125   124    2
   111   126   127    1
   112   126   123    1
   113   108   107    2
   114    99    98    1
   115    99   100    1
   116   124   123    1
   117   113   107   am
   118   110   109    1
   119   110   111   ar
   120   107   106    1
   121   123   122    1
   122   109   106    1
   123   100   101    2
   124   106   105    1
