@<TRIPOS>MOLECULE
tmp/5v0tE01.pdb
 161 158 0 0 0
SMALL
GASTEIGER

@<TRIPOS>ATOM
      1  N         36.2430   32.7510   32.0870 N.3     8  ASN8       -0.1225
      2  CA        36.0650   34.1980   32.1080 C.3     8  ASN8        0.1785
      3  C         36.0410   34.7130   33.5380 C.2     8  ASN8        0.2597
      4  O         36.9120   35.4850   33.9470 O.2     8  ASN8       -0.2718
      5  CB        34.7900   34.6010   31.3670 C.3     8  ASN8        0.1169
      6  CG        34.6830   36.1040   31.2200 C.2     8  ASN8        0.2627
      7  OD1       35.5040   36.7200   30.5390 O.2     8  ASN8       -0.2716
      8  ND2       33.7030   36.7100   31.8910 N.am    8  ASN8       -0.0877
      9  N         35.0580   34.2790   34.3230 N.am    9  ARG9       -0.1979
     10  CA        34.9910   34.6400   35.7340 C.3     9  ARG9        0.1597
     11  C         36.0350   33.8660   36.5340 C.2     9  ARG9        0.2287
     12  O         36.1310   32.6370   36.4280 O.2     9  ARG9       -0.2864
     13  CB        33.5850   34.3670   36.2860 C.3     9  ARG9        0.0334
     14  CG        33.3900   34.7670   37.7540 C.3     9  ARG9        0.0492
     15  CD        33.5190   36.2770   37.9370 C.3     9  ARG9        0.2205
     16  NE        32.4550   37.0290   37.2590 N.pl3   9  ARG9       -0.0865
     17  CZ        32.4740   38.3500   37.0920 C.cat   9  ARG9        0.5346
     18  NH1       33.5110   39.0570   37.5290 N.pl3   9  ARG9        0.1354
     19  NH2       31.4710   38.9670   36.4820 N.pl3   9  ARG9        0.1354
     20  N         31.3540   38.2480   42.4200 N.3    19  ALA19      -0.1231
     21  CA        29.9770   37.9290   42.0600 C.3    19  ALA19       0.1694
     22  C         29.6070   36.5110   42.4860 C.2    19  ALA19       0.2592
     23  O         30.4600   35.6260   42.6110 O.2    19  ALA19      -0.2718
     24  CB        29.7520   38.0900   40.5490 C.3    19  ALA19       0.0304
     25  N         28.3070   36.3150   42.7160 N.am   20  ALA20      -0.1966
     26  CA        27.7270   34.9830   42.8120 C.3    20  ALA20       0.1728
     27  C         27.9290   34.2190   41.4970 C.2    20  ALA20       0.2617
     28  O         28.2150   34.8000   40.4480 O.2    20  ALA20      -0.2715
     29  CB        26.2350   35.0790   43.1290 C.3    20  ALA20       0.0334
     30  N         27.7660   32.8970   41.5560 N.am   21  GLY21      -0.1940
     31  CA        27.8690   32.0890   40.3510 C.3    21  GLY21       0.2014
     32  C         28.4940   30.7490   40.6630 C.2    21  GLY21       0.2639
     33  O         29.4500   30.6690   41.4520 O.2    21  GLY21      -0.2714
     34  N         27.9590   29.6820   40.0630 N.am   22  GLY22      -0.1939
     35  CA        28.3980   28.3450   40.4270 C.3    22  GLY22       0.2014
     36  C         29.6750   27.9060   39.7480 C.2    22  GLY22       0.2639
     37  O         30.3790   27.0340   40.2670 O.2    22  GLY22      -0.2714
     38  N         29.9910   28.4780   38.5770 N.am   23  LEU23      -0.1963
     39  CA        31.2580   28.1390   37.9330 C.3    23  LEU23       0.1728
     40  C         32.4180   28.4210   38.8770 C.2    23  LEU23       0.2616
     41  O         33.2220   27.5290   39.1730 O.2    23  LEU23      -0.2715
     42  CB        31.4300   28.9030   36.6100 C.3    23  LEU23       0.0311
     43  CG        32.7290   28.6040   35.8190 C.3    23  LEU23       0.0022
     44  CD1       32.5220   28.7920   34.3120 C.3    23  LEU23       0.0001
     45  CD2       33.9620   29.4320   36.2740 C.3    23  LEU23       0.0001
     46  N         32.4960   29.6540   39.3930 N.am   24  ALA24      -0.1977
     47  CA        33.6110   30.0190   40.2610 C.3    24  ALA24       0.1597
     48  C         33.6230   29.1770   41.5270 C.2    24  ALA24       0.2287
     49  O         34.6940   28.8230   42.0310 O.2    24  ALA24      -0.2864
     50  CB        33.5520   31.5050   40.6240 C.3    24  ALA24       0.0319
     51  N         31.8780   40.1030   26.0670 N.3    77  TYR77      -0.1241
     52  CA        31.1680   39.6850   27.2790 C.3    77  TYR77       0.1605
     53  C         29.7030   40.1340   27.2690 C.2    77  TYR77       0.2264
     54  O         28.7980   39.2950   27.2580 O.2    77  TYR77      -0.2867
     55  CB        31.9230   40.1980   28.5140 C.3    77  TYR77       0.0534
     56  CG        31.2400   39.9150   29.8480 C.ar   77  TYR77      -0.0201
     57  CD1       31.3790   38.6800   30.4880 C.ar   77  TYR77      -0.0009
     58  CD2       30.4730   40.8850   30.4650 C.ar   77  TYR77      -0.0009
     59  CE1       30.7490   38.4330   31.6960 C.ar   77  TYR77       0.0417
     60  CE2       29.8590   40.6500   31.6750 C.ar   77  TYR77       0.0417
     61  CZ        29.9930   39.4270   32.2840 C.ar   77  TYR77       0.1957
     62  OH        29.3630   39.2240   33.4930 O.3    77  TYR77      -0.2866
     63  N         26.7490   37.2000   26.5000 N.3    82  ASN82      -0.1240
     64  CA        25.5960   37.3200   27.3810 C.3    82  ASN82       0.1653
     65  C         24.3500   37.8720   26.7020 C.2    82  ASN82       0.2266
     66  O         23.2680   37.7630   27.2720 O.2    82  ASN82      -0.2867
     67  CB        25.9640   38.1670   28.6010 C.3    82  ASN82       0.1155
     68  CG        26.8610   37.3950   29.5800 C.2    82  ASN82       0.2627
     69  OD1       26.8920   36.1710   29.5650 O.2    82  ASN82      -0.2716
     70  ND2       27.5800   38.1060   30.4110 N.am   82  ASN82      -0.0877
     71  N         24.0810   33.2170   26.1570 N.3    86  TRP86      -0.1241
     72  CA        23.3470   32.9220   27.3920 C.3    86  TRP86       0.1605
     73  C         21.8440   32.7720   27.1470 C.2    86  TRP86       0.2264
     74  O         21.2860   31.7280   27.5230 O.2    86  TRP86      -0.2867
     75  CB        23.6520   33.9730   28.4710 C.3    86  TRP86       0.0550
     76  CG        22.8860   33.6960   29.7530 C.ar   86  TRP86       0.0003
     77  CD1       21.6460   34.1620   30.0760 C.ar   86  TRP86       0.0946
     78  CD2       23.3120   32.8890   30.8610 C.ar   86  TRP86       0.0152
     79  NE1       21.2750   33.6970   31.3170 N.ar   86  TRP86      -0.2442
     80  CE2       22.2840   32.9210   31.8200 C.ar   86  TRP86       0.0810
     81  CE3       24.4770   32.1610   31.1450 C.ar   86  TRP86       0.0012
     82  CZ2       22.3650   32.2360   33.0440 C.ar   86  TRP86       0.0191
     83  CZ3       24.5600   31.4800   32.3740 C.ar   86  TRP86       0.0001
     84  CH2       23.5040   31.5190   33.2940 C.ar   86  TRP86       0.0015
     85  N         33.3190   27.0010   29.9330 N.3   131  ASP131     -0.1225
     86  CA        32.0520   27.6990   29.7110 C.3   131  ASP131      0.1805
     87  C         31.9840   28.5270   28.4250 C.2   131  ASP131      0.2598
     88  O         32.9740   28.7040   27.7070 O.2   131  ASP131     -0.2718
     89  CB        31.6780   28.5590   30.9290 C.3   131  ASP131      0.1424
     90  CG        30.2060   28.3570   31.3420 C.2   131  ASP131      0.3668
     91  OD1       29.5300   27.5450   30.6800 O.co2 131  ASP131     -0.2456
     92  OD2       29.7110   29.0000   32.2980 O.co2 131  ASP131     -0.2456
     93  N         30.7830   29.0410   28.1430 N.am  132  TYR132     -0.1962
     94  CA        30.3840   29.4750   26.8080 C.3   132  TYR132      0.1771
     95  C         31.1740   30.6760   26.2910 C.2   132  TYR132      0.2619
     96  O         31.2370   30.8770   25.0670 O.2   132  TYR132     -0.2715
     97  CB        28.8840   29.7990   26.8190 C.3   132  TYR132      0.0574
     98  CG        28.4990   30.8350   27.8680 C.ar  132  TYR132     -0.0198
     99  CD1       28.3300   30.4720   29.2030 C.ar  132  TYR132     -0.0009
    100  CD2       28.3110   32.1780   27.5200 C.ar  132  TYR132     -0.0009
    101  CE1       27.9820   31.4060   30.1680 C.ar  132  TYR132      0.0417
    102  CE2       27.9590   33.1290   28.4860 C.ar  132  TYR132      0.0417
    103  CZ        27.7960   32.7320   29.8080 C.ar  132  TYR132      0.1957
    104  OH        27.4390   33.6460   30.7800 O.3   132  TYR132     -0.2866
    105  N         31.7520   31.4870   27.1860 N.am  133  HIS133     -0.1973
    106  CA        32.5630   32.6140   26.7400 C.3   133  HIS133      0.1656
    107  C         33.7550   32.1720   25.9030 C.2   133  HIS133      0.2291
    108  O         34.2760   32.9630   25.1060 O.2   133  HIS133     -0.2864
    109  CB        33.1070   33.4060   27.9370 C.3   133  HIS133      0.0771
    110  CG        32.1030   33.6690   29.0170 C.ar  133  HIS133      0.0820
    111  ND1       31.7850   32.7380   29.9840 N.ar  133  HIS133     -0.2267
    112  CD2       31.3890   34.7810   29.3180 C.ar  133  HIS133      0.1154
    113  CE1       30.8940   33.2540   30.8150 C.ar  133  HIS133      0.1986
    114  NE2       30.6360   34.4930   30.4320 N.ar  133  HIS133     -0.2212
    115  N         29.2110   24.7140   31.4000 N.3   155  HIS155     -0.1226
    116  CA        28.4560   24.7010   32.6520 C.3   155  HIS155      0.1752
    117  C         26.9660   24.9170   32.4280 C.2   155  HIS155      0.2595
    118  O         26.1580   24.4910   33.2510 O.2   155  HIS155     -0.2718
    119  CB        28.9550   25.7790   33.6220 C.3   155  HIS155      0.0759
    120  CG        30.3360   25.5310   34.1500 C.ar  155  HIS155      0.0818
    121  ND1       30.5880   25.2310   35.4710 N.ar  155  HIS155     -0.2268
    122  CD2       31.5380   25.5240   33.5240 C.ar  155  HIS155      0.1154
    123  CE1       31.8870   25.0610   35.6450 C.ar  155  HIS155      0.1986
    124  NE2       32.4870   25.2320   34.4770 N.ar  155  HIS155     -0.2212
    125  N         26.5970   25.6090   31.3620 N.am  156  ILE156     -0.1980
    126  CA        25.2000   25.9320   31.0720 C.3   156  ILE156      0.1595
    127  C         24.6440   24.8230   30.1830 C.2   156  ILE156      0.2287
    128  O         25.4270   23.9800   29.7170 O.2   156  ILE156     -0.2864
    129  CB        25.0860   27.3220   30.4260 C.3   156  ILE156      0.0276
    130  CG1       25.6770   27.3400   29.0130 C.3   156  ILE156      0.0022
    131  CG2       25.7530   28.3910   31.3120 C.3   156  ILE156      0.0022
    132  CD1       25.4640   28.6790   28.3140 C.3   156  ILE156      0.0001
    133  N         21.0320   34.3630   41.5610 N.3   268  ARG268     -0.1245
    134  CA        21.2900   35.5520   40.7500 C.3   268  ARG268      0.1563
    135  C         19.9830   35.9880   40.0950 C.2   268  ARG268      0.2260
    136  O         19.1700   35.1480   39.7020 O.2   268  ARG268     -0.2867
    137  CB        22.3390   35.2670   39.6660 C.3   268  ARG268      0.0307
    138  CG        23.7720   35.0990   40.1650 C.3   268  ARG268      0.0489
    139  CD        24.7420   34.9210   38.9690 C.3   268  ARG268      0.2205
    140  NE        24.2840   33.7890   38.1610 N.pl3 268  ARG268     -0.0865
    141  CZ        23.6860   33.9030   36.9760 C.cat 268  ARG268      0.5346
    142  NH1       23.5040   35.1020   36.4170 N.pl3 268  ARG268      0.1354
    143  NH2       23.2640   32.8030   36.3530 N.pl3 268  ARG268      0.1354
    144  N         23.2350   40.8150   39.0810 N.3   305  THR305     -0.1203
    145  CA        24.0620   40.1030   38.1200 C.3   305  THR305      0.1994
    146  C         23.9310   40.8220   36.7830 C.2   305  THR305      0.2617
    147  O         22.8210   41.2100   36.3940 O.2   305  THR305     -0.2717
    148  CB        23.6440   38.6190   38.0070 C.3   305  THR305      0.1784
    149  OG1       24.4880   37.9400   37.0630 O.3   305  THR305     -0.2211
    150  CG2       22.1740   38.4780   37.5540 C.3   305  THR305      0.0376
    151  N         25.0670   41.0430   36.1170 N.am  306  ARG306     -0.1979
    152  CA        25.0960   41.6010   34.7640 C.3   306  ARG306      0.1597
    153  C         24.2040   42.8370   34.6700 C.2   306  ARG306      0.2287
    154  O         23.4040   43.0100   33.7390 O.2   306  ARG306     -0.2864
    155  CB        24.6990   40.5360   33.7440 C.3   306  ARG306      0.0334
    156  CG        25.6480   39.3350   33.7780 C.3   306  ARG306      0.0492
    157  CD        25.0840   38.0900   33.0890 C.3   306  ARG306      0.2205
    158  NE        25.8340   36.9040   33.5100 N.pl3 306  ARG306     -0.0865
    159  CZ        25.5460   35.6580   33.1470 C.cat 306  ARG306      0.5346
    160  NH1       24.5330   35.4220   32.3210 N.pl3 306  ARG306      0.1354
    161  NH2       26.2750   34.6430   33.6050 N.pl3 306  ARG306      0.1354
@<TRIPOS>BOND
     1    96    95    2
     2   108   107    2
     3   107   106    1
     4    51    52    1
     5    71    72    1
     6    95    94    1
     7    95   105   am
     8    63    64    1
     9    65    66    2
    10    65    64    1
    11   106   105    1
    12   106   109    1
    13    94    97    1
    14    94    93    1
    15    97    98    1
    16    73    72    1
    17    73    74    2
    18    54    53    2
    19    53    52    1
    20    52    55    1
    21    64    67    1
    22    72    75    1
    23   100    98   ar
    24   100   102   ar
    25    88    87    2
    26    98    99   ar
    27   109   110    1
    28    93    87   am
    29   132   130    1
    30    87    86    1
    31    75    76    1
    32   102   103   ar
    33    55    56    1
    34    67    68    1
    35   130   129    1
    36   110   112   ar
    37   110   111   ar
    38    99   101   ar
    39   112   114   ar
    40    69    68    2
    41    68    70   am
    42    86    85    1
    43    86    89    1
    44   128   127    2
    45    76    77   ar
    46    76    78   ar
    47   103   101   ar
    48   103   104    1
    49    56    58   ar
    50    56    57   ar
    51   111   113   ar
    52    77    79   ar
    53   127   126    1
    54   129   126    1
    55   129   131    1
    56   114   113   ar
    57    58    60   ar
    58    57    59   ar
    59     7     6    2
    60    91    90   ar
    61    78    81   ar
    62    78    80   ar
    63    89    90    1
    64   126   125    1
    65    81    83   ar
    66     6     5    1
    67     6     8   am
    68    79    80   ar
    69    90    92   ar
    70   125   117   am
    71     5     2    1
    72   115   116    1
    73    60    61   ar
    74    59    61   ar
    75    80    82   ar
    76     1     2    1
    77     2     3    1
    78    61    62    1
    79   160   159    1
    80    83    84   ar
    81   117   116    1
    82   117   118    2
    83   116   119    1
    84    82    84   ar
    85   157   158    1
    86   157   156    1
    87   159   158    2
    88   159   161    1
    89   122   120   ar
    90   122   124   ar
    91     3     4    2
    92     3     9   am
    93   119   120    1
    94   154   153    2
    95   155   156    1
    96   155   152    1
    97   120   121   ar
    98    44    43    1
    99     9    10    1
   100   124   123   ar
   101   153   152    1
   102   152   151    1
   103   121   123   ar
   104    10    13    1
   105    10    11    1
   106    43    45    1
   107    43    42    1
   108   151   146   am
   109    13    14    1
   110   143   141    1
   111   147   146    2
   112   142   141    1
   113    12    11    2
   114    19    17    1
   115    42    39    1
   116   146   145    1
   117   141   140    2
   118   149   148    1
   119    17    16    2
   120    17    18    1
   121    16    15    1
   122   150   148    1
   123    14    15    1
   124    39    38    1
   125    39    40    1
   126   148   145    1
   127   145   144    1
   128   140   139    1
   129    38    36   am
   130    40    41    2
   131    40    46   am
   132   139   138    1
   133    46    47    1
   134   137   138    1
   135   137   134    1
   136   136   135    2
   137    36    37    2
   138    36    35    1
   139    34    35    1
   140    34    32   am
   141   135   134    1
   142    47    50    1
   143    47    48    1
   144    31    32    1
   145    31    30    1
   146    28    27    2
   147    24    21    1
   148    32    33    2
   149   134   133    1
   150    27    30   am
   151    27    26    1
   152    48    49    2
   153    21    20    1
   154    21    22    1
   155    22    23    2
   156    22    25   am
   157    25    26    1
   158    26    29    1
