@<TRIPOS>MOLECULE
tmp/5v0tE00.pdb
 189 179 0 0 0
SMALL
GASTEIGER

@<TRIPOS>ATOM
      1  N         33.2100   34.2890   45.7050 N.3    13  ILE13      -0.1245
      2  CA        33.2080   35.3430   46.7230 C.3    13  ILE13       0.1561
      3  C         34.1160   34.9900   47.9020 C.2    13  ILE13       0.2260
      4  O         34.7640   35.8730   48.4790 O.2    13  ILE13      -0.2867
      5  CB        31.7630   35.6240   47.1920 C.3    13  ILE13       0.0252
      6  CG1       30.9490   36.2600   46.0660 C.3    13  ILE13       0.0019
      7  CG2       31.7340   36.4880   48.4740 C.3    13  ILE13       0.0019
      8  CD1       29.4870   36.0150   46.2260 C.3    13  ILE13       0.0001
      9  N         28.3070   36.3150   42.7160 N.3    20  ALA20      -0.1231
     10  CA        27.7270   34.9830   42.8120 C.3    20  ALA20       0.1694
     11  C         27.9290   34.2190   41.4970 C.2    20  ALA20       0.2593
     12  O         28.2150   34.8000   40.4480 O.2    20  ALA20      -0.2718
     13  CB        26.2350   35.0790   43.1290 C.3    20  ALA20       0.0304
     14  N         27.7660   32.8970   41.5560 N.am   21  GLY21      -0.1942
     15  CA        27.8690   32.0890   40.3510 C.3    21  GLY21       0.2014
     16  C         28.4940   30.7490   40.6630 C.2    21  GLY21       0.2639
     17  O         29.4500   30.6690   41.4520 O.2    21  GLY21      -0.2714
     18  N         27.9590   29.6820   40.0630 N.am   22  GLY22      -0.1939
     19  CA        28.3980   28.3450   40.4270 C.3    22  GLY22       0.2014
     20  C         29.6750   27.9060   39.7480 C.2    22  GLY22       0.2638
     21  O         30.3790   27.0340   40.2670 O.2    22  GLY22      -0.2714
     22  N         29.9910   28.4780   38.5770 N.am   23  LEU23      -0.1977
     23  CA        31.2580   28.1390   37.9330 C.3    23  LEU23       0.1596
     24  C         32.4180   28.4210   38.8770 C.2    23  LEU23       0.2287
     25  O         33.2220   27.5290   39.1730 O.2    23  LEU23      -0.2864
     26  CB        31.4300   28.9030   36.6100 C.3    23  LEU23       0.0297
     27  CG        32.7290   28.6040   35.8190 C.3    23  LEU23       0.0022
     28  CD1       32.5220   28.7920   34.3120 C.3    23  LEU23       0.0001
     29  CD2       33.9620   29.4320   36.2740 C.3    23  LEU23       0.0001
     30  N         32.4420   28.8830   42.0840 N.3    25  VAL25      -0.1245
     31  CA        32.3870   28.0550   43.2850 C.3    25  VAL25       0.1561
     32  C         32.9160   26.6600   42.9820 C.2    25  VAL25       0.2260
     33  O         33.8120   26.1550   43.6730 O.2    25  VAL25      -0.2867
     34  CB        30.9550   28.0030   43.8510 C.3    25  VAL25       0.0252
     35  CG1       30.8480   26.9050   44.9020 C.3    25  VAL25       0.0019
     36  CG2       30.5860   29.3330   44.4680 C.3    25  VAL25       0.0019
     37  N         24.0810   33.2170   26.1570 N.3    86  TRP86      -0.1241
     38  CA        23.3470   32.9220   27.3920 C.3    86  TRP86       0.1605
     39  C         21.8440   32.7720   27.1470 C.2    86  TRP86       0.2264
     40  O         21.2860   31.7280   27.5230 O.2    86  TRP86      -0.2867
     41  CB        23.6520   33.9730   28.4710 C.3    86  TRP86       0.0550
     42  CG        22.8860   33.6960   29.7530 C.ar   86  TRP86       0.0003
     43  CD1       21.6460   34.1620   30.0760 C.ar   86  TRP86       0.0946
     44  CD2       23.3120   32.8890   30.8610 C.ar   86  TRP86       0.0152
     45  NE1       21.2750   33.6970   31.3170 N.ar   86  TRP86      -0.2442
     46  CE2       22.2840   32.9210   31.8200 C.ar   86  TRP86       0.0810
     47  CE3       24.4770   32.1610   31.1450 C.ar   86  TRP86       0.0012
     48  CZ2       22.3650   32.2360   33.0440 C.ar   86  TRP86       0.0191
     49  CZ3       24.5600   31.4800   32.3740 C.ar   86  TRP86       0.0001
     50  CH2       23.5040   31.5190   33.2940 C.ar   86  TRP86       0.0015
     51  N         17.6900   31.2150   46.6600 N.3   266  VAL266     -0.1231
     52  CA        18.8930   32.0030   46.4000 C.3   266  VAL266      0.1692
     53  C         19.2070   31.8940   44.9170 C.2   266  VAL266      0.2592
     54  O         19.4730   30.7960   44.4180 O.2   266  VAL266     -0.2718
     55  CB        20.1090   31.5320   47.2230 C.3   266  VAL266      0.0266
     56  CG1       21.3400   32.3870   46.8640 C.3   266  VAL266      0.0020
     57  CG2       19.8290   31.5790   48.7110 C.3   266  VAL266      0.0020
     58  N         19.1760   33.0170   44.2070 N.am  267  ASP267     -0.1960
     59  CA        19.3840   33.0140   42.7600 C.3   267  ASP267      0.1840
     60  C         19.9570   34.3560   42.3510 C.2   267  ASP267      0.2621
     61  O         19.3750   35.3830   42.7020 O.2   267  ASP267     -0.2715
     62  CB        18.0710   32.8340   41.9630 C.3   267  ASP267      0.1450
     63  CG        17.2240   31.6730   42.4310 C.2   267  ASP267      0.3671
     64  OD1       16.6120   31.7420   43.5260 O.co2 267  ASP267     -0.2456
     65  OD2       17.1320   30.7050   41.6620 O.co2 267  ASP267     -0.2456
     66  N         21.0320   34.3630   41.5610 N.am  268  ARG268     -0.1977
     67  CA        21.2900   35.5520   40.7500 C.3   268  ARG268      0.1597
     68  C         19.9830   35.9880   40.0950 C.2   268  ARG268      0.2287
     69  O         19.1700   35.1480   39.7020 O.2   268  ARG268     -0.2864
     70  CB        22.3390   35.2670   39.6660 C.3   268  ARG268      0.0334
     71  CG        23.7720   35.0990   40.1650 C.3   268  ARG268      0.0492
     72  CD        24.7420   34.9210   38.9690 C.3   268  ARG268      0.2205
     73  NE        24.2840   33.7890   38.1610 N.pl3 268  ARG268     -0.0865
     74  CZ        23.6860   33.9030   36.9760 C.cat 268  ARG268      0.5346
     75  NH1       23.5040   35.1020   36.4170 N.pl3 268  ARG268      0.1354
     76  NH2       23.2640   32.8030   36.3530 N.pl3 268  ARG268      0.1354
     77  N         16.1460   32.0560   35.8150 N.3   273  LYS273     -0.1245
     78  CA        15.8440   31.4690   37.1180 C.3   273  LYS273      0.1561
     79  C         14.3480   31.3480   37.4170 C.2   273  LYS273      0.2260
     80  O         13.9940   30.8310   38.4800 O.2   273  LYS273     -0.2867
     81  CB        16.5350   32.2780   38.2190 C.3   273  LYS273      0.0271
     82  CG        18.0510   32.2940   38.0440 C.3   273  LYS273      0.0035
     83  CD        18.6780   30.9220   38.3730 C.3   273  LYS273      0.0206
     84  CE        20.1840   30.9100   38.0310 C.3   273  LYS273      0.1093
     85  NZ        20.8900   29.7090   38.5380 N.3   273  LYS273     -0.1314
     86  N         16.6600   35.6880   48.3010 N.3   301  ILE301     -0.1245
     87  CA        17.9160   36.3950   48.1300 C.3   301  ILE301      0.1561
     88  C         18.2280   36.3530   46.6420 C.2   301  ILE301      0.2260
     89  O         18.3130   35.2700   46.0490 O.2   301  ILE301     -0.2867
     90  CB        19.0240   35.7590   48.9790 C.3   301  ILE301      0.0252
     91  CG1       18.7020   35.9730   50.4610 C.3   301  ILE301      0.0019
     92  CG2       20.3820   36.3470   48.6320 C.3   301  ILE301      0.0019
     93  CD1       19.7060   35.3600   51.4140 C.3   301  ILE301      0.0001
     94  N         20.8510   38.2420   44.2530 N.3   303  PRO303     -0.2116
     95  CA        21.9240   39.2260   44.1020 C.3   303  PRO303      0.1372
     96  C         21.9350   39.8310   42.7020 C.2   303  PRO303      0.2244
     97  O         21.5150   39.1840   41.7280 O.2   303  PRO303     -0.2868
     98  CB        23.2040   38.4120   44.3710 C.3   303  PRO303      0.0268
     99  CG        22.8050   36.9740   44.3340 C.3   303  PRO303      0.0207
    100  CD        21.3480   36.9250   44.6900 C.3   303  PRO303      0.0892
    101  N         20.7630   41.5200   47.1350 N.3   343  LYS343     -0.1231
    102  CA        22.1370   41.6590   47.6070 C.3   343  LYS343      0.1693
    103  C         22.8300   40.3050   47.6470 C.2   343  LYS343      0.2592
    104  O         22.1970   39.2600   47.7780 O.2   343  LYS343     -0.2718
    105  CB        22.2190   42.2640   49.0140 C.3   343  LYS343      0.0285
    106  CG        21.6420   43.6540   49.2230 C.3   343  LYS343      0.0035
    107  CD        21.6830   43.9490   50.7320 C.3   343  LYS343      0.0206
    108  CE        20.6860   44.9970   51.1630 C.3   343  LYS343      0.1093
    109  NZ        20.8790   45.3530   52.5970 N.3   343  LYS343     -0.1314
    110  N         24.1540   40.3550   47.5920 N.am  344  GLN344     -0.1966
    111  CA        25.0020   39.1750   47.6860 C.3   344  GLN344      0.1733
    112  C         25.2850   38.8120   49.1390 C.2   344  GLN344      0.2616
    113  O         25.5280   39.6910   49.9670 O.2   344  GLN344     -0.2715
    114  CB        26.3240   39.4700   46.9920 C.3   344  GLN344      0.0408
    115  CG        26.9780   38.3300   46.3490 C.3   344  GLN344      0.0908
    116  CD        27.9110   38.8150   45.2670 C.2   344  GLN344      0.2608
    117  OE1       27.6330   38.6580   44.0730 O.2   344  GLN344     -0.2717
    118  NE2       29.0120   39.4410   45.6760 N.am  344  GLN344     -0.0878
    119  N         25.3070   37.5080   49.4330 N.am  345  TYR345     -0.1974
    120  CA        25.7050   36.9880   50.7350 C.3   345  TYR345      0.1639
    121  C         26.8900   36.0360   50.6020 C.2   345  TYR345      0.2290
    122  O         27.1110   35.4180   49.5560 O.2   345  TYR345     -0.2864
    123  CB        24.5370   36.2580   51.4220 C.3   345  TYR345      0.0560
    124  CG        23.4760   37.1950   51.9570 C.ar  345  TYR345     -0.0198
    125  CD1       22.5890   37.8350   51.0960 C.ar  345  TYR345     -0.0009
    126  CD2       23.3660   37.4420   53.3250 C.ar  345  TYR345     -0.0009
    127  CE1       21.6210   38.6970   51.5760 C.ar  345  TYR345      0.0417
    128  CE2       22.4050   38.3020   53.8160 C.ar  345  TYR345      0.0417
    129  CZ        21.5330   38.9230   52.9400 C.ar  345  TYR345      0.1957
    130  OH        20.5800   39.7790   53.4290 O.3   345  TYR345     -0.2866
    131  N         28.7490   32.6050   50.9570 N.3   347  ARG347     -0.1245
    132  CA        28.2210   31.2560   50.7790 C.3   347  ARG347      0.1563
    133  C         28.0410   30.5400   52.1150 C.2   347  ARG347      0.2260
    134  O         27.1210   29.7260   52.2690 O.2   347  ARG347     -0.2867
    135  CB        29.1550   30.4600   49.8720 C.3   347  ARG347      0.0307
    136  CG        28.5440   29.1990   49.3060 C.3   347  ARG347      0.0489
    137  CD        29.6420   28.3190   48.7430 C.3   347  ARG347      0.2205
    138  NE        29.1330   27.1220   48.0890 N.pl3 347  ARG347     -0.0865
    139  CZ        29.8110   25.9810   48.0140 C.cat 347  ARG347      0.5346
    140  NH1       31.0110   25.9020   48.5750 N.pl3 347  ARG347      0.1354
    141  NH2       29.2960   24.9250   47.3810 N.pl3 347  ARG347      0.1354
    142  N         24.7490   31.5430   53.6290 N.3   350  LEU350     -0.1245
    143  CA        23.6480   30.8930   52.9280 C.3   350  LEU350      0.1561
    144  C         23.4850   29.4540   53.3920 C.2   350  LEU350      0.2260
    145  O         22.3590   28.9750   53.5760 O.2   350  LEU350     -0.2867
    146  CB        23.8810   30.9350   51.4100 C.3   350  LEU350      0.0270
    147  CG        23.9110   32.3130   50.7550 C.3   350  LEU350      0.0019
    148  CD1       24.3020   32.1900   49.2850 C.3   350  LEU350      0.0001
    149  CD2       22.5900   33.0320   50.9200 C.3   350  LEU350      0.0001
    150  N         18.6290   25.4750   33.5760 N.3   367  ASP367     -0.1239
    151  CA        19.8100   25.6200   34.4200 C.3   367  ASP367      0.1674
    152  C         20.7160   24.4390   34.1180 C.2   367  ASP367      0.2266
    153  O         20.2540   23.2970   34.1370 O.2   367  ASP367     -0.2867
    154  CB        19.4100   25.6460   35.9020 C.3   367  ASP367      0.1410
    155  CG        20.4110   26.3740   36.7700 C.2   367  ASP367      0.3668
    156  OD1       21.6290   26.1140   36.6220 O.co2 367  ASP367     -0.2456
    157  OD2       19.9680   27.1980   37.6070 O.co2 367  ASP367     -0.2456
    158  N         22.6270   23.8420   38.7520 N.3   370  ASN370     -0.1225
    159  CA        22.1100   24.5480   39.9250 C.3   370  ASN370      0.1785
    160  C         22.7560   23.9980   41.1910 C.2   370  ASN370      0.2597
    161  O         22.2930   23.0160   41.7920 O.2   370  ASN370     -0.2718
    162  CB        20.5830   24.4980   40.0400 C.3   370  ASN370      0.1169
    163  CG        20.0570   25.5270   41.0090 C.2   370  ASN370      0.2627
    164  OD1       20.2140   25.3810   42.2210 O.2   370  ASN370     -0.2716
    165  ND2       19.4430   26.5830   40.4870 N.am  370  ASN370     -0.0877
    166  N         23.8430   24.6450   41.6050 N.am  371  LEU371     -0.1966
    167  CA        24.5190   24.2360   42.8270 C.3   371  LEU371      0.1728
    168  C         23.6980   24.5590   44.0700 C.2   371  LEU371      0.2616
    169  O         23.8310   23.8630   45.0870 O.2   371  LEU371     -0.2715
    170  CB        25.8930   24.9070   42.9110 C.3   371  LEU371      0.0311
    171  CG        26.9500   24.4110   41.9220 C.3   371  LEU371      0.0022
    172  CD1       28.3220   24.9650   42.3160 C.3   371  LEU371      0.0001
    173  CD2       26.9890   22.8990   41.8750 C.3   371  LEU371      0.0001
    174  N         22.8720   25.6150   44.0180 N.am  372  VAL372     -0.1977
    175  CA        22.0430   25.9870   45.1670 C.3   372  VAL372      0.1596
    176  C         21.1690   24.8120   45.5950 C.2   372  VAL372      0.2287
    177  O         20.9990   24.5500   46.7920 O.2   372  VAL372     -0.2864
    178  CB        21.2020   27.2400   44.8400 C.3   372  VAL372      0.0276
    179  CG1       19.9610   27.3560   45.7750 C.3   372  VAL372      0.0022
    180  CG2       22.0740   28.5170   44.9170 C.3   372  VAL372      0.0022
    181  N         23.4630   22.4700   47.4500 N.3   375  GLU375     -0.1245
    182  CA        23.8600   23.0820   48.7120 C.3   375  GLU375      0.1567
    183  C         22.7150   23.0670   49.7210 C.2   375  GLU375      0.2260
    184  O         22.9310   22.8020   50.9120 O.2   375  GLU375     -0.2867
    185  CB        24.3460   24.5110   48.4600 C.3   375  GLU375      0.0388
    186  CG        25.5900   24.5920   47.5640 C.3   375  GLU375      0.1160
    187  CD        25.9740   26.0200   47.1910 C.2   375  GLU375      0.3649
    188  OE1       27.0900   26.2260   46.6570 O.co2 375  GLU375     -0.2457
    189  OE2       25.1680   26.9380   47.4440 O.co2 375  GLU375     -0.2457
@<TRIPOS>BOND
     1    37    38    1
     2    39    38    1
     3    39    40    2
     4    38    41    1
     5    41    42    1
     6    42    43   ar
     7    42    44   ar
     8    43    45   ar
     9    44    47   ar
    10    44    46   ar
    11    47    49   ar
    12    45    46   ar
    13    46    48   ar
    14    49    50   ar
    15    48    50   ar
    16   150   151    1
    17   152   153    2
    18   152   151    1
    19    28    27    1
    20   151   154    1
    21    77    78    1
    22    27    29    1
    23    27    26    1
    24   154   155    1
    25    76    74    1
    26    75    74    1
    27    26    23    1
    28   156   155   ar
    29   155   157   ar
    30    74    73    2
    31    78    79    1
    32    78    81    1
    33    79    80    2
    34    23    22    1
    35    23    24    1
    36    84    83    1
    37    84    85    1
    38    82    81    1
    39    82    83    1
    40    73    72    1
    41    22    20   am
    42   158   159    1
    43    24    25    2
    44    72    71    1
    45    70    71    1
    46    70    67    1
    47    69    68    2
    48    20    21    2
    49    20    19    1
    50   159   162    1
    51   159   160    1
    52   162   163    1
    53    18    19    1
    54    18    16   am
    55    68    67    1
    56    15    16    1
    57    15    14    1
    58    12    11    2
    59   165   163   am
    60    16    17    2
    61    67    66    1
    62   163   164    2
    63   160   166   am
    64   160   161    2
    65    11    14   am
    66    11    10    1
    67    66    60   am
    68   166   167    1
    69    65    63   ar
    70    97    96    2
    71   173   171    1
    72   171   172    1
    73   171   170    1
    74    62    63    1
    75    62    59    1
    76    30    31    1
    77    60    61    2
    78    60    59    1
    79    63    64   ar
    80    96    95    1
    81     9    10    1
    82    59    58    1
    83    10    13    1
    84   167   170    1
    85   167   168    1
    86    32    31    1
    87    32    33    2
    88    31    34    1
    89    34    36    1
    90    34    35    1
    91   174   168   am
    92   174   175    1
    93   168   169    2
    94   117   116    2
    95    95    94    1
    96    95    98    1
    97    58    53   am
    98    94   100    1
    99    99    98    1
   100    99   100    1
   101    54    53    2
   102   178   180    1
   103   178   175    1
   104   178   179    1
   105    53    52    1
   106   175   176    1
   107   116   118   am
   108   116   115    1
   109   176   177    2
   110     1     2    1
   111    89    88    2
   112     6     8    1
   113     6     5    1
   114   115   114    1
   115    52    51    1
   116    52    55    1
   117    88    87    1
   118   188   187   ar
   119     2     5    1
   120     2     3    1
   121    56    55    1
   122   114   111    1
   123   101   102    1
   124   187   189   ar
   125   187   186    1
   126     5     7    1
   127    55    57    1
   128   141   139    1
   129   181   182    1
   130   186   185    1
   131   110   103   am
   132   110   111    1
   133   102   103    1
   134   102   105    1
   135   103   104    2
   136   111   112    1
   137     3     4    2
   138   139   138    2
   139   139   140    1
   140   138   137    1
   141    87    86    1
   142    87    90    1
   143   185   182    1
   144    92    90    1
   145   182   183    1
   146   137   136    1
   147    90    91    1
   148   105   106    1
   149   112   119   am
   150   112   113    2
   151   106   107    1
   152   148   147    1
   153   136   135    1
   154   119   120    1
   155   122   121    2
   156   183   184    2
   157   135   132    1
   158    91    93    1
   159   121   120    1
   160   107   108    1
   161   120   123    1
   162   147   149    1
   163   147   146    1
   164   132   131    1
   165   132   133    1
   166   125   127   ar
   167   125   124   ar
   168   108   109    1
   169   146   143    1
   170   123   124    1
   171   127   129   ar
   172   124   126   ar
   173   133   134    2
   174   143   144    1
   175   143   142    1
   176   129   130    1
   177   129   128   ar
   178   126   128   ar
   179   144   145    2
