@<TRIPOS>MOLECULE
tmp/5v0uA00.pdb
 95 91 0 0 0
SMALL
GASTEIGER

@<TRIPOS>ATOM
      1  N        -31.7340  -35.2920   61.7110 N.3    43  ILE43      -0.1245
      2  CA       -32.4340  -36.5480   61.9550 C.3    43  ILE43       0.1561
      3  C        -33.4060  -36.8370   60.8170 C.2    43  ILE43       0.2260
      4  O        -33.4440  -37.9480   60.2730 O.2    43  ILE43      -0.2867
      5  CB       -33.1370  -36.5040   63.3240 C.3    43  ILE43       0.0252
      6  CG1      -32.0960  -36.4300   64.4430 C.3    43  ILE43       0.0019
      7  CG2      -34.0220  -37.7090   63.5200 C.3    43  ILE43       0.0019
      8  CD1      -32.6850  -36.2950   65.8030 C.3    43  ILE43       0.0001
      9  N        -31.4460  -37.9740   57.9630 N.3    46  MET46      -0.1230
     10  CA       -31.0220  -39.3420   58.2560 C.3    46  MET46       0.1702
     11  C        -32.1500  -40.3420   58.0260 C.2    46  MET46       0.2592
     12  O        -31.9360  -41.4190   57.4600 O.2    46  MET46      -0.2718
     13  CB       -30.5380  -39.4360   59.7110 C.3    46  MET46       0.0401
     14  CG       -29.2000  -38.7730   60.0090 C.3    46  MET46       0.0596
     15  SD       -27.8440  -39.6520   59.1930 S.3    46  MET46      -0.1393
     16  CE       -27.7140  -41.0600   60.2860 C.3    46  MET46       0.0692
     17  N        -33.3570  -40.0080   58.4750 N.am   47  ARG47      -0.1980
     18  CA       -34.4820  -40.9220   58.3490 C.3    47  ARG47       0.1597
     19  C        -34.9540  -41.1260   56.9110 C.2    47  ARG47       0.2287
     20  O        -35.7660  -42.0230   56.6820 O.2    47  ARG47      -0.2864
     21  CB       -35.6380  -40.4370   59.2240 C.3    47  ARG47       0.0334
     22  CG       -35.5440  -40.9610   60.6440 C.3    47  ARG47       0.0492
     23  CD       -35.3630  -42.4760   60.6020 C.3    47  ARG47       0.2205
     24  NE       -34.8400  -43.0410   61.8420 N.pl3  47  ARG47      -0.0865
     25  CZ       -34.3730  -44.2820   61.9480 C.cat  47  ARG47       0.5346
     26  NH1      -34.3630  -45.0760   60.8850 N.pl3  47  ARG47       0.1354
     27  NH2      -33.9120  -44.7290   63.1120 N.pl3  47  ARG47       0.1354
     28  N        -33.0230  -42.2550   54.5590 N.3    49  PHE49      -0.1241
     29  CA       -32.1620  -43.2590   53.9520 C.3    49  PHE49       0.1605
     30  C        -32.3360  -44.5670   54.7060 C.2    49  PHE49       0.2264
     31  O        -32.2980  -44.5870   55.9420 O.2    49  PHE49      -0.2867
     32  CB       -30.7040  -42.7930   53.9620 C.3    49  PHE49       0.0534
     33  CG       -29.7430  -43.7740   53.3740 C.ar   49  PHE49      -0.0203
     34  CD1      -29.8690  -44.1880   52.0610 C.ar   49  PHE49      -0.0042
     35  CD2      -28.6930  -44.2690   54.1300 C.ar   49  PHE49      -0.0042
     36  CE1      -28.9740  -45.0980   51.5170 C.ar   49  PHE49      -0.0003
     37  CE2      -27.7920  -45.1670   53.5890 C.ar   49  PHE49      -0.0003
     38  CZ       -27.9330  -45.5800   52.2810 C.ar   49  PHE49      -0.0000
     39  N        -28.6040  -48.2260   55.2720 N.3    52  TRP52      -0.1227
     40  CA       -27.5490  -48.4090   56.2610 C.3    52  TRP52       0.1737
     41  C        -27.2470  -49.8870   56.4400 C.2    52  TRP52       0.2595
     42  O        -28.1310  -50.7400   56.3370 O.2    52  TRP52      -0.2718
     43  CB       -27.9500  -47.8280   57.6220 C.3    52  TRP52       0.0564
     44  CG       -28.3020  -46.3690   57.6240 C.ar   52  TRP52       0.0003
     45  CD1      -29.5260  -45.8280   57.8830 C.ar   52  TRP52       0.0946
     46  CD2      -27.4220  -45.2670   57.3610 C.ar   52  TRP52       0.0152
     47  NE1      -29.4680  -44.4580   57.7850 N.ar   52  TRP52      -0.2442
     48  CE2      -28.1880  -44.0880   57.4690 C.ar   52  TRP52       0.0810
     49  CE3      -26.0660  -45.1650   57.0270 C.ar   52  TRP52       0.0012
     50  CZ2      -27.6410  -42.8160   57.2620 C.ar   52  TRP52       0.0191
     51  CZ3      -25.5270  -43.9110   56.8110 C.ar   52  TRP52       0.0001
     52  CH2      -26.3110  -42.7500   56.9410 C.ar   52  TRP52       0.0015
     53  N        -25.9890  -50.1890   56.7270 N.am   53  LYS53      -0.1980
     54  CA       -25.6050  -51.5570   57.0270 C.3    53  LYS53       0.1596
     55  C        -24.4320  -51.5030   57.9880 C.2    53  LYS53       0.2287
     56  O        -23.8370  -50.4480   58.1950 O.2    53  LYS53      -0.2864
     57  CB       -25.2490  -52.3290   55.7600 C.3    53  LYS53       0.0298
     58  CG       -23.9930  -51.8060   55.0960 C.3    53  LYS53       0.0038
     59  CD       -23.7060  -52.5020   53.7740 C.3    53  LYS53       0.0206
     60  CE       -22.6500  -51.7130   53.0130 C.3    53  LYS53       0.1093
     61  NZ       -22.3670  -52.3100   51.6910 N.3    53  LYS53      -0.1314
     62  N        -24.5400  -43.0530   65.3310 N.3    77  LEU77      -0.1245
     63  CA       -25.8110  -43.7060   65.0250 C.3    77  LEU77       0.1561
     64  C        -26.5620  -44.0970   66.2940 C.2    77  LEU77       0.2260
     65  O        -27.7840  -43.9340   66.3800 O.2    77  LEU77      -0.2867
     66  CB       -25.5720  -44.9440   64.1640 C.3    77  LEU77       0.0270
     67  CG       -25.0730  -44.6810   62.7440 C.3    77  LEU77       0.0019
     68  CD1      -24.8570  -46.0080   62.0420 C.3    77  LEU77       0.0001
     69  CD2      -26.0900  -43.8390   61.9970 C.3    77  LEU77       0.0001
     70  N        -27.9790  -40.9430   68.0240 N.3    80  LEU80      -0.1231
     71  CA       -29.1540  -40.4720   67.3000 C.3    80  LEU80       0.1693
     72  C        -30.3300  -41.4160   67.5100 C.2    80  LEU80       0.2591
     73  O        -31.4830  -40.9760   67.6090 O.2    80  LEU80      -0.2718
     74  CB       -28.8500  -40.3300   65.8150 C.3    80  LEU80       0.0284
     75  CG       -27.8070  -39.2960   65.3960 C.3    80  LEU80       0.0019
     76  CD1      -27.7350  -39.2810   63.8910 C.3    80  LEU80       0.0001
     77  CD2      -28.1550  -37.9180   65.9210 C.3    80  LEU80       0.0001
     78  N        -30.0580  -42.7210   67.5700 N.am   81  GLN81      -0.1979
     79  CA       -31.1170  -43.6780   67.8480 C.3    81  GLN81       0.1601
     80  C        -31.7190  -43.4450   69.2330 C.2    81  GLN81       0.2287
     81  O        -32.9320  -43.6070   69.4150 O.2    81  GLN81      -0.2864
     82  CB       -30.5750  -45.0990   67.7040 C.3    81  GLN81       0.0394
     83  CG       -31.6370  -46.1820   67.7600 C.3    81  GLN81       0.0908
     84  CD       -32.5380  -46.1680   66.5430 C.2    81  GLN81       0.2608
     85  OE1      -32.0760  -46.3540   65.4140 O.2    81  GLN81      -0.2717
     86  NE2      -33.8320  -45.9430   66.7640 N.am   81  GLN81      -0.0878
     87  N        -34.1460  -40.4470   69.1840 N.3    84  GLU84      -0.1245
     88  CA       -35.4300  -40.8440   68.6320 C.3    84  GLU84       0.1567
     89  C        -36.3810  -41.4310   69.6700 C.2    84  GLU84       0.2260
     90  O        -37.5740  -41.5660   69.3820 O.2    84  GLU84      -0.2867
     91  CB       -35.1980  -41.8350   67.4990 C.3    84  GLU84       0.0388
     92  CG       -34.5380  -41.1910   66.3060 C.3    84  GLU84       0.1160
     93  CD       -35.0090  -41.7930   65.0140 C.2    84  GLU84       0.3649
     94  OE1      -34.6630  -42.9660   64.7590 O.co2  84  GLU84      -0.2457
     95  OE2      -35.7480  -41.1060   64.2710 O.co2  84  GLU84      -0.2457
@<TRIPOS>BOND
     1    36    34   ar
     2    36    38   ar
     3    61    60    1
     4    34    33   ar
     5    38    37   ar
     6    60    59    1
     7    33    32    1
     8    33    35   ar
     9    37    35   ar
    10    59    58    1
    11    29    32    1
    12    29    28    1
    13    29    30    1
    14    30    31    2
    15    58    57    1
    16    39    40    1
    17    57    54    1
    18    40    41    1
    19    40    43    1
    20    42    41    2
    21    41    53   am
    22    20    19    2
    23    53    54    1
    24    51    52   ar
    25    51    49   ar
    26    19    18    1
    27    52    50   ar
    28    54    55    1
    29    49    46   ar
    30    50    48   ar
    31    46    48   ar
    32    46    44   ar
    33    12    11    2
    34    48    47   ar
    35    43    44    1
    36    44    45   ar
    37    47    45   ar
    38     9    10    1
    39    55    56    2
    40    11    10    1
    41    11    17   am
    42    10    13    1
    43    18    17    1
    44    18    21    1
    45    15    14    1
    46    15    16    1
    47    21    22    1
    48    13    14    1
    49     4     3    2
    50    23    22    1
    51    23    24    1
    52     3     2    1
    53    26    25    1
    54     1     2    1
    55    24    25    2
    56    25    27    1
    57     2     5    1
    58    69    67    1
    59    68    67    1
    60    67    66    1
    61     5     7    1
    62     5     6    1
    63    76    75    1
    64    66    63    1
    65    95    93   ar
    66     6     8    1
    67    94    93   ar
    68    93    92    1
    69    63    62    1
    70    63    64    1
    71    75    74    1
    72    75    77    1
    73    85    84    2
    74    74    71    1
    75    64    65    2
    76    92    91    1
    77    84    86   am
    78    84    83    1
    79    71    72    1
    80    71    70    1
    81    91    88    1
    82    72    78   am
    83    72    73    2
    84    78    79    1
    85    82    83    1
    86    82    79    1
    87    79    80    1
    88    88    87    1
    89    88    89    1
    90    80    81    2
    91    90    89    2
