@<TRIPOS>MOLECULE
tmp/5v0vA07.pdb
 144 139 0 0 0
SMALL
GASTEIGER

@<TRIPOS>ATOM
      1  N          4.1060   56.1350   43.2410 N.3   112  LYS112     -0.1231
      2  CA         4.3400   54.8340   42.6170 C.3   112  LYS112      0.1693
      3  C          3.1290   53.9410   42.8290 C.2   112  LYS112      0.2592
      4  O          2.4930   53.9970   43.8810 O.2   112  LYS112     -0.2718
      5  CB         5.5960   54.1730   43.2020 C.3   112  LYS112      0.0285
      6  CG         6.0290   52.9610   42.4300 C.3   112  LYS112      0.0035
      7  CD         7.1660   52.2330   43.1400 C.3   112  LYS112      0.0206
      8  CE         6.7070   51.5400   44.4280 C.3   112  LYS112      0.1093
      9  NZ         6.1410   52.4500   45.4480 N.3   112  LYS112     -0.1314
     10  N          2.8220   53.1270   41.8250 N.am  113  LEU113     -0.1966
     11  CA         1.6190   52.2970   41.8230 C.3   113  LEU113      0.1728
     12  C          1.9980   50.8710   42.2120 C.2   113  LEU113      0.2616
     13  O          2.6740   50.1680   41.4580 O.2   113  LEU113     -0.2715
     14  CB         0.9260   52.3380   40.4490 C.3   113  LEU113      0.0311
     15  CG        -0.5820   52.0450   40.4240 C.3   113  LEU113      0.0022
     16  CD1       -1.3760   53.1850   41.0520 C.3   113  LEU113      0.0001
     17  CD2       -1.0770   51.7910   39.0020 C.3   113  LEU113      0.0001
     18  N          1.5830   50.4700   43.4090 N.am  114  LYS114     -0.1964
     19  CA         1.8250   49.1210   43.9140 C.3   114  LYS114      0.1713
     20  C          0.7110   48.1780   43.4350 C.2   114  LYS114      0.2458
     21  O         -0.4660   48.5580   43.4690 O.2   114  LYS114     -0.2730
     22  CB         1.8760   49.1310   45.4450 C.3   114  LYS114      0.0311
     23  CG         2.9730   50.0010   46.0600 C.3   114  LYS114      0.0038
     24  CD         2.7900   50.1130   47.5740 C.3   114  LYS114      0.0206
     25  CE         3.8090   51.0530   48.2090 C.3   114  LYS114      0.1093
     26  NZ         3.7780   52.3970   47.5540 N.3   114  LYS114     -0.1314
     27  N          1.0720   46.9520   42.9880 N.am  115  PRO115     -0.2727
     28  CA         0.0410   45.9620   42.6650 C.3   115  PRO115      0.1402
     29  C         -0.5960   45.3660   43.9310 C.2   115  PRO115      0.2269
     30  O          0.0180   44.5350   44.6030 O.2   115  PRO115     -0.2865
     31  CB         0.8080   44.9050   41.8620 C.3   115  PRO115      0.0296
     32  CG         2.2090   45.0010   42.3470 C.3   115  PRO115      0.0237
     33  CD         2.4310   46.4340   42.7320 C.3   115  PRO115      0.0939
     34  N         -7.7030   44.9210   44.0410 N.3   120  GLN120     -0.1245
     35  CA        -7.8640   45.1430   42.5970 C.3   120  GLN120      0.1566
     36  C         -8.7850   44.1030   41.9440 C.2   120  GLN120      0.2260
     37  O         -9.5420   44.4340   41.0300 O.2   120  GLN120     -0.2867
     38  CB        -6.5020   45.1560   41.8840 C.3   120  GLN120      0.0367
     39  CG        -5.7000   46.4420   42.0330 C.3   120  GLN120      0.0905
     40  CD        -4.4200   46.4230   41.2130 C.2   120  GLN120      0.2608
     41  OE1       -4.2580   47.2020   40.2710 O.2   120  GLN120     -0.2717
     42  NE2       -3.5100   45.5170   41.5570 N.am  120  GLN120     -0.0878
     43  N         -6.9260   51.9560   34.7950 N.3   135  TYR135     -0.1241
     44  CA        -5.5950   51.5310   34.3730 C.3   135  TYR135      0.1605
     45  C         -5.0490   52.4110   33.2440 C.2   135  TYR135      0.2264
     46  O         -3.9150   52.8660   33.3110 O.2   135  TYR135     -0.2867
     47  CB        -5.6120   50.0730   33.9240 C.3   135  TYR135      0.0534
     48  CG        -4.2340   49.5500   33.5910 C.ar  135  TYR135     -0.0201
     49  CD1       -3.3090   49.2970   34.6030 C.ar  135  TYR135     -0.0009
     50  CD2       -3.8430   49.3350   32.2680 C.ar  135  TYR135     -0.0009
     51  CE1       -2.0400   48.8290   34.3120 C.ar  135  TYR135      0.0417
     52  CE2       -2.5750   48.8620   31.9660 C.ar  135  TYR135      0.0417
     53  CZ        -1.6780   48.6110   32.9920 C.ar  135  TYR135      0.1957
     54  OH        -0.4180   48.1420   32.7200 O.3   135  TYR135     -0.2866
     55  N         -4.1790   55.8760   34.7770 N.3   138  GLU138     -0.1231
     56  CA        -2.9790   55.8490   35.6340 C.3   138  GLU138      0.1699
     57  C         -1.6710   55.6880   34.8460 C.2   138  GLU138      0.2592
     58  O         -0.6580   56.3140   35.1840 O.2   138  GLU138     -0.2718
     59  CB        -3.0810   54.7450   36.7090 C.3   138  GLU138      0.0402
     60  CG        -4.2500   54.8760   37.6980 C.3   138  GLU138      0.1161
     61  CD        -4.0650   55.9150   38.7940 C.2   138  GLU138      0.3649
     62  OE1       -3.0760   56.6800   38.7650 O.co2 138  GLU138     -0.2457
     63  OE2       -4.9390   55.9720   39.6970 O.co2 138  GLU138     -0.2457
     64  N         -1.6930   54.8650   33.8010 N.am  139  VAL139     -0.1980
     65  CA        -0.5020   54.6680   32.9590 C.3   139  VAL139      0.1595
     66  C         -0.2570   55.8890   32.0630 C.2   139  VAL139      0.2287
     67  O          0.8780   56.3410   31.9320 O.2   139  VAL139     -0.2864
     68  CB        -0.5930   53.3900   32.0980 C.3   139  VAL139      0.0276
     69  CG1        0.6570   53.2310   31.2410 C.3   139  VAL139      0.0022
     70  CG2       -0.7540   52.1530   32.9720 C.3   139  VAL139      0.0022
     71  N          1.2300   59.0070   33.7860 N.3   142  ARG142     -0.1231
     72  CA         2.6350   58.7930   34.1330 C.3   142  ARG142      0.1694
     73  C          3.5560   58.6430   32.9180 C.2   142  ARG142      0.2592
     74  O          4.7730   58.5500   33.0790 O.2   142  ARG142     -0.2718
     75  CB         2.7520   57.5580   35.0170 C.3   142  ARG142      0.0321
     76  CG         2.2240   57.7690   36.4210 C.3   142  ARG142      0.0489
     77  CD         2.1980   56.4540   37.1770 C.3   142  ARG142      0.2205
     78  NE         1.7470   56.5900   38.5580 N.pl3 142  ARG142     -0.0865
     79  CZ         0.4870   56.7960   38.9400 C.cat 142  ARG142      0.5346
     80  NH1       -0.4940   56.9200   38.0470 N.pl3 142  ARG142      0.1354
     81  NH2        0.2050   56.8880   40.2390 N.pl3 142  ARG142      0.1354
     82  N          2.9770   58.5960   31.7180 N.am  143  HIS143     -0.1976
     83  CA         3.7210   58.4610   30.4520 C.3   143  HIS143      0.1656
     84  C          3.0180   59.3020   29.3730 C.2   143  HIS143      0.2291
     85  O          2.2380   58.7690   28.5720 O.2   143  HIS143     -0.2864
     86  CB         3.8060   56.9870   30.0390 C.3   143  HIS143      0.0771
     87  CG         4.4760   56.1220   31.0600 C.ar  143  HIS143      0.0820
     88  ND1        5.8430   56.1000   31.2340 N.ar  143  HIS143     -0.2267
     89  CD2        3.9660   55.2840   31.9940 C.ar  143  HIS143      0.1154
     90  CE1        6.1470   55.2730   32.2190 C.ar  143  HIS143      0.1986
     91  NE2        5.0250   54.7690   32.7010 N.ar  143  HIS143     -0.2212
     92  N         -3.4590   43.3510   30.5590 N.3   158  TYR158     -0.1241
     93  CA        -3.8070   43.6280   31.9590 C.3   158  TYR158      0.1605
     94  C         -5.1190   42.9290   32.3240 C.2   158  TYR158      0.2264
     95  O         -5.1700   42.1760   33.2920 O.2   158  TYR158     -0.2867
     96  CB        -3.9200   45.1450   32.1640 C.3   158  TYR158      0.0534
     97  CG        -4.0590   45.6440   33.5960 C.ar  158  TYR158     -0.0201
     98  CD1       -2.9830   45.6010   34.4810 C.ar  158  TYR158     -0.0009
     99  CD2       -5.2470   46.2270   34.0420 C.ar  158  TYR158     -0.0009
    100  CE1       -3.0970   46.0870   35.7800 C.ar  158  TYR158      0.0417
    101  CE2       -5.3700   46.7170   35.3380 C.ar  158  TYR158      0.0417
    102  CZ        -4.2930   46.6440   36.2040 C.ar  158  TYR158      0.1957
    103  OH        -4.4080   47.1250   37.4900 O.3   158  TYR158     -0.2866
    104  N          2.2250   40.7090   36.3320 N.3   179  LEU179     -0.1245
    105  CA         2.1400   42.1770   36.3860 C.3   179  LEU179      0.1561
    106  C          3.4950   42.8820   36.2600 C.2   179  LEU179      0.2260
    107  O          3.5850   43.9220   35.6040 O.2   179  LEU179     -0.2867
    108  CB         1.4120   42.6460   37.6570 C.3   179  LEU179      0.0270
    109  CG        -0.1180   42.5170   37.6910 C.3   179  LEU179      0.0019
    110  CD1       -0.6460   43.0650   39.0100 C.3   179  LEU179      0.0001
    111  CD2       -0.8200   43.2160   36.5330 C.3   179  LEU179      0.0001
    112  N          4.4230   42.4790   32.6100 N.3   182  LEU182     -0.1231
    113  CA         3.6870   43.4910   31.8440 C.3   182  LEU182      0.1693
    114  C          4.2810   44.8950   32.0180 C.2   182  LEU182      0.2591
    115  O          4.2860   45.6880   31.0740 O.2   182  LEU182     -0.2718
    116  CB         2.2060   43.4830   32.2440 C.3   182  LEU182      0.0284
    117  CG         1.2460   44.4840   31.5870 C.3   182  LEU182      0.0019
    118  CD1        1.3060   44.4240   30.0700 C.3   182  LEU182      0.0001
    119  CD2       -0.1780   44.2340   32.0640 C.3   182  LEU182      0.0001
    120  N          4.7830   45.1890   33.2170 N.am  183  LYS183     -0.1980
    121  CA         5.4610   46.4610   33.4990 C.3   183  LYS183      0.1596
    122  C          6.6780   46.6320   32.5960 C.2   183  LYS183      0.2287
    123  O          6.7890   47.6360   31.8950 O.2   183  LYS183     -0.2864
    124  CB         5.8830   46.5490   34.9730 C.3   183  LYS183      0.0298
    125  CG         6.3480   47.9210   35.3640 C.3   183  LYS183      0.0038
    126  CD         6.9230   47.9260   36.7770 C.3   183  LYS183      0.0206
    127  CE         8.2640   47.1890   36.8680 C.3   183  LYS183      0.1093
    128  NZ         8.2080   45.7610   36.4830 N.3   183  LYS183     -0.1314
    129  N          5.5950   47.2560   28.9900 N.3   186  ILE186     -0.1231
    130  CA         5.0200   48.6020   28.8860 C.3   186  ILE186      0.1692
    131  C          6.1080   49.6830   28.9090 C.2   186  ILE186      0.2591
    132  O          6.0800   50.6130   28.0960 O.2   186  ILE186     -0.2718
    133  CB         3.9550   48.8410   29.9830 C.3   186  ILE186      0.0266
    134  CG1        2.6770   48.0920   29.6020 C.3   186  ILE186      0.0019
    135  CG2        3.6340   50.3260   30.1490 C.3   186  ILE186      0.0020
    136  CD1        1.6510   47.9970   30.7050 C.3   186  ILE186      0.0001
    137  N          7.0520   49.5560   29.8370 N.am  187  LEU187     -0.1980
    138  CA         8.1780   50.4910   29.9340 C.3   187  LEU187      0.1596
    139  C          9.0150   50.5340   28.6510 C.2   187  LEU187      0.2287
    140  O          9.4880   51.6020   28.2650 O.2   187  LEU187     -0.2864
    141  CB         9.0660   50.1590   31.1440 C.3   187  LEU187      0.0297
    142  CG         8.4990   50.4770   32.5350 C.3   187  LEU187      0.0022
    143  CD1        9.3880   49.8830   33.6160 C.3   187  LEU187      0.0001
    144  CD2        8.3310   51.9730   32.7650 C.3   187  LEU187      0.0001
@<TRIPOS>BOND
     1   132   131    2
     2   140   139    2
     3    85    84    2
     4   139   138    1
     5   130   131    1
     6   130   129    1
     7   130   133    1
     8   131   137   am
     9    84    83    1
    10   134   133    1
    11   134   136    1
    12   137   138    1
    13   138   141    1
    14   133   135    1
    15    86    83    1
    16    86    87    1
    17   118   117    1
    18    83    82    1
    19    92    93    1
    20    87    88   ar
    21    87    89   ar
    22   115   114    2
    23   141   142    1
    24    88    90   ar
    25    69    68    1
    26   117   119    1
    27   117   116    1
    28    82    73   am
    29   113   114    1
    30   113   116    1
    31   113   112    1
    32   123   122    2
    33    67    66    2
    34    93    96    1
    35    93    94    1
    36    52    50   ar
    37    52    53   ar
    38    89    91   ar
    39   114   120   am
    40    66    65    1
    41    68    65    1
    42    68    70    1
    43    96    97    1
    44    90    91   ar
    45    50    48   ar
    46    94    95    2
    47   142   144    1
    48   142   143    1
    49   122   121    1
    50    54    53    1
    51    73    74    2
    52    73    72    1
    53    65    64    1
    54    53    51   ar
    55   120   121    1
    56    45    46    2
    57    45    44    1
    58   121   124    1
    59    48    47    1
    60    48    49   ar
    61    97    99   ar
    62    97    98   ar
    63    71    72    1
    64    64    57   am
    65    47    44    1
    66    99   101   ar
    67    72    75    1
    68    51    49   ar
    69    44    43    1
    70    98   100   ar
    71    55    56    1
    72    57    58    2
    73    57    56    1
    74   124   125    1
    75    75    76    1
    76   101   102   ar
    77   125   126    1
    78   107   106    2
    79    56    59    1
    80   100   102   ar
    81   102   103    1
    82   106   105    1
    83   104   105    1
    84   105   108    1
    85    76    77    1
    86   128   127    1
    87   111   109    1
    88    59    60    1
    89   126   127    1
    90    77    78    1
    91   108   109    1
    92   109   110    1
    93    60    61    1
    94    80    79    1
    95    78    79    2
    96    62    61   ar
    97    61    63   ar
    98    79    81    1
    99    17    15    1
   100    41    40    2
   101    15    14    1
   102    15    16    1
   103    14    11    1
   104    37    36    2
   105    40    42   am
   106    40    39    1
   107    13    12    2
   108    11    10    1
   109    11    12    1
   110    10     3   am
   111    31    32    1
   112    31    28    1
   113    38    39    1
   114    38    35    1
   115    36    35    1
   116    12    18   am
   117    32    33    1
   118     6     7    1
   119     6     5    1
   120    35    34    1
   121     2     3    1
   122     2     5    1
   123     2     1    1
   124    28    27    1
   125    28    29    1
   126    33    27    1
   127     3     4    2
   128    27    20   am
   129     7     8    1
   130    18    19    1
   131    20    21    2
   132    20    19    1
   133    19    22    1
   134    29    30    2
   135     8     9    1
   136    22    23    1
   137    23    24    1
   138    26    25    1
   139    24    25    1
