@<TRIPOS>MOLECULE
tmp/5v0vA02.pdb
 100 91 0 0 0
SMALL
GASTEIGER

@<TRIPOS>ATOM
      1  N        -15.8460   52.0640   21.8530 N.3    15  LYS15      -0.1245
      2  CA       -14.9420   51.5500   22.8820 C.3    15  LYS15       0.1561
      3  C        -13.5080   52.0830   22.7250 C.2    15  LYS15       0.2260
      4  O        -12.9270   52.6140   23.6800 O.2    15  LYS15      -0.2867
      5  CB       -14.9580   50.0230   22.8330 C.3    15  LYS15       0.0271
      6  CG       -14.3090   49.3690   24.0400 C.3    15  LYS15       0.0035
      7  CD       -14.2400   47.8530   23.8960 C.3    15  LYS15       0.0206
      8  CE       -12.9880   47.4040   23.1730 C.3    15  LYS15       0.1093
      9  NZ       -11.7330   47.7730   23.8900 N.3    15  LYS15      -0.1314
     10  N        -13.5390   56.1020   23.0030 N.3    18  LYS18      -0.1231
     11  CA       -13.5430   56.5230   24.4130 C.3    18  LYS18       0.1693
     12  C        -12.2130   56.2650   25.1240 C.2    18  LYS18       0.2592
     13  O        -11.7500   57.0940   25.8970 O.2    18  LYS18      -0.2718
     14  CB       -14.6910   55.8540   25.1670 C.3    18  LYS18       0.0285
     15  CG       -16.0410   56.4710   24.8530 C.3    18  LYS18       0.0035
     16  CD       -17.1690   55.8630   25.6790 C.3    18  LYS18       0.0206
     17  CE       -17.3530   56.5800   27.0070 C.3    18  LYS18       0.1093
     18  NZ       -18.5740   56.1060   27.7150 N.3    18  LYS18      -0.1314
     19  N        -11.6080   55.1160   24.8550 N.am   19  GLY19      -0.1957
     20  CA       -10.2760   54.8050   25.3690 C.3    19  GLY19       0.1869
     21  C         -9.2480   55.8450   24.9580 C.2    19  GLY19       0.2309
     22  O         -8.5680   56.4130   25.8000 O.2    19  GLY19      -0.2863
     23  N         -9.8240   59.2430   26.5150 N.3    22  LEU22      -0.1245
     24  CA        -9.4330   59.1580   27.9310 C.3    22  LEU22       0.1561
     25  C         -7.9260   59.3230   28.0740 C.2    22  LEU22       0.2260
     26  O         -7.4500   60.1540   28.8500 O.2    22  LEU22      -0.2867
     27  CB        -9.8780   57.8300   28.5640 C.3    22  LEU22       0.0270
     28  CG        -9.4090   57.5450   30.0000 C.3    22  LEU22       0.0019
     29  CD1       -9.8530   58.6260   30.9750 C.3    22  LEU22       0.0001
     30  CD2       -9.9040   56.1870   30.4660 C.3    22  LEU22       0.0001
     31  N         -9.6730   60.7770   38.3260 N.3    34  PHE34      -0.1241
     32  CA       -10.2270   59.9090   37.2950 C.3    34  PHE34       0.1605
     33  C        -11.6830   60.2210   36.9400 C.2    34  PHE34       0.2264
     34  O        -12.0420   60.2110   35.7670 O.2    34  PHE34      -0.2867
     35  CB       -10.1040   58.4490   37.7240 C.3    34  PHE34       0.0534
     36  CG       -10.7100   57.4850   36.7490 C.ar   34  PHE34      -0.0203
     37  CD1      -10.1830   57.3570   35.4730 C.ar   34  PHE34      -0.0042
     38  CD2      -11.8150   56.7220   37.0950 C.ar   34  PHE34      -0.0042
     39  CE1      -10.7360   56.4750   34.5610 C.ar   34  PHE34      -0.0003
     40  CE2      -12.3760   55.8360   36.1880 C.ar   34  PHE34      -0.0003
     41  CZ       -11.8350   55.7110   34.9200 C.ar   34  PHE34      -0.0000
     42  N        -13.5520   60.8930   33.2140 N.3    38  VAL38      -0.1245
     43  CA       -14.7220   60.1170   32.7750 C.3    38  VAL38       0.1561
     44  C        -15.8260   61.0360   32.2390 C.2    38  VAL38       0.2260
     45  O        -16.4250   60.7380   31.2100 O.2    38  VAL38      -0.2867
     46  CB       -15.2630   59.2080   33.9140 C.3    38  VAL38       0.0252
     47  CG1      -16.6380   58.6290   33.5850 C.3    38  VAL38       0.0019
     48  CG2      -14.2940   58.0640   34.1880 C.3    38  VAL38       0.0019
     49  N        -14.6420   62.6750   28.8470 N.3    41  VAL41      -0.1245
     50  CA       -14.7600   61.6080   27.8360 C.3    41  VAL41       0.1561
     51  C        -16.2080   61.4070   27.3970 C.2    41  VAL41       0.2260
     52  O        -16.5020   61.3790   26.1980 O.2    41  VAL41      -0.2867
     53  CB       -14.2040   60.2620   28.3720 C.3    41  VAL41       0.0252
     54  CG1      -14.5640   59.0810   27.4680 C.3    41  VAL41       0.0019
     55  CG2      -12.6950   60.3420   28.5170 C.3    41  VAL41       0.0019
     56  N        -15.1630   47.6370   33.5240 N.3   129  ASP129     -0.1225
     57  CA       -15.0090   48.7840   32.6140 C.3   129  ASP129      0.1805
     58  C        -14.3760   49.9950   33.3070 C.2   129  ASP129      0.2597
     59  O        -13.5000   50.6530   32.7390 O.2   129  ASP129     -0.2718
     60  CB       -16.3590   49.1750   31.9960 C.3   129  ASP129      0.1424
     61  CG       -16.9390   48.0860   31.0920 C.2   129  ASP129      0.3668
     62  OD1      -16.1700   47.4100   30.3670 O.co2 129  ASP129     -0.2456
     63  OD2      -18.1780   47.9140   31.1010 O.co2 129  ASP129     -0.2456
     64  N        -14.8170   50.2680   34.5340 N.am  130  LYS130     -0.1979
     65  CA       -14.2250   51.3160   35.3730 C.3   130  LYS130      0.1596
     66  C        -12.7850   50.9750   35.7690 C.2   130  LYS130      0.2287
     67  O        -11.9050   51.8390   35.7380 O.2   130  LYS130     -0.2864
     68  CB       -15.0710   51.5250   36.6350 C.3   130  LYS130      0.0298
     69  CG       -14.6760   52.7350   37.4780 C.3   130  LYS130      0.0038
     70  CD       -15.6420   52.9390   38.6370 C.3   130  LYS130      0.0206
     71  CE       -15.1820   54.0530   39.5650 C.3   130  LYS130      0.1093
     72  NZ       -16.0000   54.1010   40.8070 N.3   130  LYS130     -0.1314
     73  N        -10.5670   48.9050   34.2840 N.3   132  LEU132     -0.1231
     74  CA        -9.6810   48.9860   33.1220 C.3   132  LEU132      0.1693
     75  C         -9.5200   50.4270   32.6300 C.2   132  LEU132      0.2592
     76  O         -8.4570   50.8120   32.1380 O.2   132  LEU132     -0.2718
     77  CB       -10.2110   48.0970   31.9970 C.3   132  LEU132      0.0284
     78  CG       -10.3230   46.6030   32.3270 C.3   132  LEU132      0.0019
     79  CD1      -11.1760   45.8880   31.2890 C.3   132  LEU132      0.0001
     80  CD2       -8.9450   45.9640   32.4380 C.3   132  LEU132      0.0001
     81  N        -10.5880   51.2110   32.7580 N.am  133  GLY133     -0.1957
     82  CA       -10.5370   52.6540   32.5260 C.3   133  GLY133      0.1869
     83  C         -9.5270   53.3400   33.4250 C.2   133  GLY133      0.2309
     84  O         -8.7510   54.1700   32.9620 O.2   133  GLY133     -0.2863
     85  N         -5.8670   52.6320   32.2150 N.3   136  LEU136     -0.1245
     86  CA        -5.5350   53.5550   31.1210 C.3   136  LEU136      0.1561
     87  C         -5.1570   54.9330   31.6390 C.2   136  LEU136      0.2260
     88  O         -4.1470   55.4830   31.2390 O.2   136  LEU136     -0.2867
     89  CB        -6.7070   53.6920   30.1370 C.3   136  LEU136      0.0270
     90  CG        -7.0820   52.4790   29.2720 C.3   136  LEU136      0.0019
     91  CD1       -8.2790   52.8230   28.3960 C.3   136  LEU136      0.0001
     92  CD2       -5.9260   52.0000   28.4100 C.3   136  LEU136      0.0001
     93  N         -3.9150   50.8550   24.7340 N.3   152  LEU152     -0.1245
     94  CA        -5.1080   50.0040   24.6280 C.3   152  LEU152      0.1561
     95  C         -4.7430   48.5310   24.4620 C.2   152  LEU152      0.2260
     96  O         -5.4150   47.6680   25.0070 O.2   152  LEU152     -0.2867
     97  CB        -6.0140   50.4350   23.4650 C.3   152  LEU152      0.0270
     98  CG        -6.5670   51.8700   23.3970 C.3   152  LEU152      0.0019
     99  CD1       -7.6580   51.9540   22.3320 C.3   152  LEU152      0.0001
    100  CD2       -7.1090   52.3820   24.7300 C.3   152  LEU152      0.0001
@<TRIPOS>BOND
     1     1     2    1
     2    99    98    1
     3     3     2    1
     4     3     4    2
     5     5     2    1
     6     5     6    1
     7    10    11    1
     8     8     9    1
     9     8     7    1
    10    98    97    1
    11    98   100    1
    12    97    94    1
    13     7     6    1
    14    11    12    1
    15    11    14    1
    16    95    94    1
    17    95    96    2
    18    94    93    1
    19    15    14    1
    20    15    16    1
    21    19    12   am
    22    19    20    1
    23    21    20    1
    24    21    22    2
    25    12    13    2
    26    16    17    1
    27    52    51    2
    28    23    24    1
    29    17    18    1
    30    51    50    1
    31    54    53    1
    32    50    53    1
    33    50    49    1
    34    24    25    1
    35    24    27    1
    36    25    26    2
    37    53    55    1
    38    91    90    1
    39    92    90    1
    40    27    28    1
    41    90    89    1
    42    28    30    1
    43    28    29    1
    44    89    86    1
    45    62    61   ar
    46    61    63   ar
    47    61    60    1
    48    86    87    1
    49    86    85    1
    50    45    44    2
    51    88    87    2
    52    79    78    1
    53    60    57    1
    54    77    78    1
    55    77    74    1
    56    76    75    2
    57    44    43    1
    58    78    80    1
    59    82    81    1
    60    82    83    1
    61    57    58    1
    62    57    56    1
    63    75    81   am
    64    75    74    1
    65    59    58    2
    66    43    42    1
    67    43    46    1
    68    84    83    2
    69    74    73    1
    70    58    64   am
    71    47    46    1
    72    46    48    1
    73    64    65    1
    74    39    41   ar
    75    39    37   ar
    76    41    40   ar
    77    65    66    1
    78    65    68    1
    79    37    36   ar
    80    67    66    2
    81    34    33    2
    82    40    38   ar
    83    68    69    1
    84    36    38   ar
    85    36    35    1
    86    33    32    1
    87    32    35    1
    88    32    31    1
    89    69    70    1
    90    70    71    1
    91    71    72    1
