@<TRIPOS>MOLECULE
tmp/5v0vA03.pdb
 96 92 0 0 0
SMALL
GASTEIGER

@<TRIPOS>ATOM
      1  N         10.6340   53.3960   23.6370 N.3   192  LYS192     -0.1245
      2  CA        10.8120   53.4520   22.1780 C.3   192  LYS192      0.1561
      3  C         10.0790   54.6280   21.5640 C.2   192  LYS192      0.2260
      4  O         10.6330   55.3550   20.7340 O.2   192  LYS192     -0.2867
      5  CB        10.3140   52.1720   21.5220 C.3   192  LYS192      0.0271
      6  CG        11.2500   51.0030   21.6950 C.3   192  LYS192      0.0035
      7  CD        10.7050   49.7570   21.0310 C.3   192  LYS192      0.0206
      8  CE        11.7570   48.6620   21.0260 C.3   192  LYS192      0.1093
      9  NZ        11.1610   47.3300   20.7500 N.3   192  LYS192     -0.1314
     10  N         16.1530   57.1170   10.6150 N.3   211  TRP211     -0.1241
     11  CA        16.1570   56.0460   11.6230 C.3   211  TRP211      0.1605
     12  C         15.2610   54.8980   11.1690 C.2   211  TRP211      0.2264
     13  O         15.6700   53.7360   11.1760 O.2   211  TRP211     -0.2867
     14  CB        15.6840   56.5680   12.9770 C.3   211  TRP211      0.0550
     15  CG        16.0320   55.6840   14.1430 C.ar  211  TRP211      0.0003
     16  CD1       17.0780   55.8510   15.0140 C.ar  211  TRP211      0.0946
     17  CD2       15.3300   54.5150   14.5860 C.ar  211  TRP211      0.0152
     18  NE1       17.0740   54.8570   15.9590 N.ar  211  TRP211     -0.2442
     19  CE2       16.0130   54.0240   15.7260 C.ar  211  TRP211      0.0810
     20  CE3       14.1890   53.8330   14.1330 C.ar  211  TRP211      0.0012
     21  CZ2       15.6020   52.8750   16.4150 C.ar  211  TRP211      0.0191
     22  CZ3       13.7690   52.6810   14.8300 C.ar  211  TRP211      0.0001
     23  CH2       14.4810   52.2180   15.9570 C.ar  211  TRP211      0.0015
     24  N         16.0260   50.8730   10.2560 N.3   215  ARG215     -0.1245
     25  CA        15.4560   49.7760   11.0500 C.3   215  ARG215      0.1563
     26  C         14.5470   48.8800   10.2080 C.2   215  ARG215      0.2260
     27  O         14.6750   47.6660   10.2500 O.2   215  ARG215     -0.2867
     28  CB        14.7090   50.3100   12.2870 C.3   215  ARG215      0.0307
     29  CG        14.3210   49.2380   13.3030 C.3   215  ARG215      0.0489
     30  CD        15.5110   48.7160   14.1120 C.3   215  ARG215      0.2205
     31  NE        15.1940   47.4250   14.7270 N.pl3 215  ARG215     -0.0865
     32  CZ        15.5080   46.2160   14.2510 C.cat 215  ARG215      0.5346
     33  NH1       16.2020   46.0530   13.1270 N.pl3 215  ARG215      0.1354
     34  NH2       15.1250   45.1370   14.9230 N.pl3 215  ARG215      0.1354
     35  N         14.8150   44.8010    9.2620 N.3   219  LYS219     -0.1245
     36  CA        13.7050   43.8880    9.5310 C.3   219  LYS219      0.1561
     37  C         13.1240   43.2510    8.2780 C.2   219  LYS219      0.2260
     38  O         12.7610   42.0790    8.3060 O.2   219  LYS219     -0.2867
     39  CB        12.5930   44.6080   10.3010 C.3   219  LYS219      0.0271
     40  CG        12.8820   44.8040   11.7840 C.3   219  LYS219      0.0035
     41  CD        11.6040   45.0570   12.5760 C.3   219  LYS219      0.0206
     42  CE        11.8940   45.1760   14.0650 C.3   219  LYS219      0.1093
     43  NZ        10.6620   45.0170   14.8830 N.3   219  LYS219     -0.1314
     44  N          5.2470   45.5400   14.8060 N.3   288  ALA288     -0.1231
     45  CA         6.2530   46.4370   15.3730 C.3   288  ALA288      0.1694
     46  C          7.4300   45.7180   16.0550 C.2   288  ALA288      0.2591
     47  O          8.5470   46.2170   16.0320 O.2   288  ALA288     -0.2718
     48  CB         5.5880   47.3900   16.3460 C.3   288  ALA288      0.0304
     49  N          7.1680   44.5620   16.6580 N.am  289  GLU289     -0.1979
     50  CA         8.1970   43.7660   17.3420 C.3   289  GLU289      0.1602
     51  C          8.6200   42.5060   16.5770 C.2   289  GLU289      0.2287
     52  O          9.2830   41.6350   17.1400 O.2   289  GLU289     -0.2864
     53  CB         7.6990   43.3820   18.7460 C.3   289  GLU289      0.0415
     54  CG         7.4380   44.5690   19.6660 C.3   289  GLU289      0.1163
     55  CD         8.6880   45.3990   19.9350 C.2   289  GLU289      0.3649
     56  OE1        9.7680   44.8120   20.1820 O.co2 289  GLU289     -0.2457
     57  OE2        8.5990   46.6470   19.8920 O.co2 289  GLU289     -0.2457
     58  N         23.5050   45.0470   18.1280 N.3   444  PRO444     -0.2102
     59  CA        22.2850   45.8140   17.8630 C.3   444  PRO444      0.1504
     60  C         21.4220   46.0170   19.1080 C.2   444  PRO444      0.2576
     61  O         21.0650   47.1470   19.4070 O.2   444  PRO444     -0.2718
     62  CB        21.5550   45.0000   16.7790 C.3   444  PRO444      0.0282
     63  CG        22.3020   43.7290   16.6270 C.3   444  PRO444      0.0208
     64  CD        23.6750   43.9440   17.1690 C.3   444  PRO444      0.0893
     65  N         21.1350   44.9360   19.8310 N.am  445  CYS445     -0.1971
     66  CA        20.4100   44.9870   21.1100 C.3   445  CYS445      0.1712
     67  C         20.9720   46.0340   22.0710 C.2   445  CYS445      0.2296
     68  O         20.2310   46.8450   22.6270 O.2   445  CYS445     -0.2864
     69  CB        20.4790   43.6210   21.8000 C.3   445  CYS445      0.0983
     70  SG        19.5090   43.4730   23.3240 S.3   445  CYS445     -0.0798
     71  N         20.8940   49.7730   20.5160 N.3   448  ASN448     -0.1225
     72  CA        19.4900   50.1560   20.3820 C.3   448  ASN448      0.1785
     73  C         18.8490   50.4730   21.7380 C.2   448  ASN448      0.2597
     74  O         18.0540   51.4040   21.8350 O.2   448  ASN448     -0.2718
     75  CB        18.6860   49.0860   19.6260 C.3   448  ASN448      0.1169
     76  CG        19.0080   49.0490   18.1240 C.2   448  ASN448      0.2627
     77  OD1       19.6660   49.9490   17.5860 O.2   448  ASN448     -0.2716
     78  ND2       18.5420   48.0000   17.4430 N.am  448  ASN448     -0.0877
     79  N         19.2150   49.7190   22.7750 N.am  449  HIS449     -0.1975
     80  CA        18.6720   49.9230   24.1190 C.3   449  HIS449      0.1656
     81  C         19.4010   51.0150   24.9020 C.2   449  HIS449      0.2291
     82  O         18.7630   51.7620   25.6430 O.2   449  HIS449     -0.2864
     83  CB        18.6460   48.6070   24.8980 C.3   449  HIS449      0.0771
     84  CG        17.5090   47.7110   24.5150 C.ar  449  HIS449      0.0820
     85  ND1       17.3590   47.1990   23.2440 N.ar  449  HIS449     -0.2267
     86  CD2       16.4550   47.2500   25.2310 C.ar  449  HIS449      0.1154
     87  CE1       16.2680   46.4550   23.1960 C.ar  449  HIS449      0.1986
     88  NE2       15.7000   46.4700   24.3880 N.ar  449  HIS449     -0.2212
     89  N         17.7690   54.2240   24.0510 N.3   452  LEU452     -0.1245
     90  CA        16.5480   54.4040   24.8400 C.3   452  LEU452      0.1561
     91  C         16.8560   54.9540   26.2380 C.2   452  LEU452      0.2260
     92  O         16.1810   55.8610   26.7220 O.2   452  LEU452     -0.2867
     93  CB        15.7880   53.0780   24.9680 C.3   452  LEU452      0.0270
     94  CG        15.3600   52.3430   23.6960 C.3   452  LEU452      0.0019
     95  CD1       14.5690   51.0980   24.0770 C.3   452  LEU452      0.0001
     96  CD2       14.5410   53.2190   22.7570 C.3   452  LEU452      0.0001
@<TRIPOS>BOND
     1    37    38    2
     2    37    36    1
     3    35    36    1
     4    36    39    1
     5    26    27    2
     6    26    25    1
     7    24    25    1
     8    39    40    1
     9    10    11    1
    10    25    28    1
    11    12    13    2
    12    12    11    1
    13    11    14    1
    14    40    41    1
    15    28    29    1
    16    41    42    1
    17    14    15    1
    18    33    32    1
    19    29    30    1
    20    42    43    1
    21    30    31    1
    22    20    17   ar
    23    20    22   ar
    24    15    17   ar
    25    15    16   ar
    26    32    31    2
    27    32    34    1
    28    17    19   ar
    29    44    45    1
    30    22    23   ar
    31    16    18   ar
    32    45    46    1
    33    45    48    1
    34    19    18   ar
    35    19    21   ar
    36    23    21   ar
    37    47    46    2
    38    46    49   am
    39    51    52    2
    40    51    50    1
    41    63    62    1
    42    63    64    1
    43    49    50    1
    44    62    59    1
    45    64    58    1
    46    50    53    1
    47    78    76   am
    48    77    76    2
    49    59    58    1
    50    59    60    1
    51    76    75    1
    52    53    54    1
    53    60    61    2
    54    60    65   am
    55    75    72    1
    56    54    55    1
    57    65    66    1
    58    57    55   ar
    59    55    56   ar
    60    72    71    1
    61    72    73    1
    62     4     3    2
    63     9     8    1
    64     8     7    1
    65     7     6    1
    66    66    69    1
    67    66    67    1
    68     5     6    1
    69     5     2    1
    70     3     2    1
    71    73    74    2
    72    73    79   am
    73    69    70    1
    74    67    68    2
    75     2     1    1
    76    96    94    1
    77    79    80    1
    78    87    85   ar
    79    87    88   ar
    80    85    84   ar
    81    94    95    1
    82    94    93    1
    83    89    90    1
    84    80    83    1
    85    80    81    1
    86    88    86   ar
    87    84    83    1
    88    84    86   ar
    89    90    93    1
    90    90    91    1
    91    81    82    2
    92    91    92    2
