@<TRIPOS>MOLECULE
tmp/5v0vA04.pdb
 200 189 0 0 0
SMALL
GASTEIGER

@<TRIPOS>ATOM
      1  N          1.7900   56.0010   23.0020 N.3   147  TYR147     -0.1241
      2  CA         0.8830   55.9590   21.8500 C.3   147  TYR147      0.1605
      3  C         -0.4210   55.2980   22.2800 C.2   147  TYR147      0.2264
      4  O         -0.4120   54.1610   22.7440 O.2   147  TYR147     -0.2867
      5  CB         1.4790   55.1710   20.6760 C.3   147  TYR147      0.0534
      6  CG         2.6530   55.7900   19.9340 C.ar  147  TYR147     -0.0201
      7  CD1        3.3720   56.8810   20.4450 C.ar  147  TYR147     -0.0009
      8  CD2        3.0870   55.2300   18.7290 C.ar  147  TYR147     -0.0009
      9  CE1        4.4550   57.4110   19.7610 C.ar  147  TYR147      0.0417
     10  CE2        4.1790   55.7480   18.0400 C.ar  147  TYR147      0.0417
     11  CZ         4.8610   56.8390   18.5590 C.ar  147  TYR147      0.1957
     12  OH         5.9440   57.3580   17.8840 O.3   147  TYR147     -0.2866
     13  N         -1.3520   51.5820   21.3750 N.3   150  GLU150     -0.1245
     14  CA        -0.4290   50.6500   22.0220 C.3   150  GLU150      0.1567
     15  C         -0.7270   50.4930   23.5160 C.2   150  GLU150      0.2260
     16  O         -0.5010   49.4220   24.0900 O.2   150  GLU150     -0.2867
     17  CB         1.0190   51.1040   21.7990 C.3   150  GLU150      0.0388
     18  CG         2.1010   50.1430   22.2900 C.3   150  GLU150      0.1160
     19  CD         2.1650   48.8160   21.5360 C.2   150  GLU150      0.3649
     20  OE1        1.3460   48.5600   20.6250 O.co2 150  GLU150     -0.2457
     21  OE2        3.0610   48.0100   21.8660 O.co2 150  GLU150     -0.2457
     22  N          7.9040   49.7560   25.4090 N.3   189  SER189     -0.1217
     23  CA         7.0850   50.4510   24.4060 C.3   189  SER189      0.1889
     24  C          7.1900   51.9640   24.5930 C.2   189  SER189      0.2288
     25  O          7.4440   52.7010   23.6420 O.2   189  SER189     -0.2866
     26  CB         5.6120   50.0330   24.5140 C.3   189  SER189      0.2089
     27  OG         5.3860   48.7310   24.0030 O.3   189  SER189     -0.2183
     28  N         10.6340   53.3960   23.6370 N.3   192  LYS192     -0.1231
     29  CA        10.8120   53.4520   22.1780 C.3   192  LYS192      0.1693
     30  C         10.0790   54.6280   21.5640 C.2   192  LYS192      0.2591
     31  O         10.6330   55.3550   20.7340 O.2   192  LYS192     -0.2718
     32  CB        10.3140   52.1720   21.5220 C.3   192  LYS192      0.0285
     33  CG        11.2500   51.0030   21.6950 C.3   192  LYS192      0.0035
     34  CD        10.7050   49.7570   21.0310 C.3   192  LYS192      0.0206
     35  CE        11.7570   48.6620   21.0260 C.3   192  LYS192      0.1093
     36  NZ        11.1610   47.3300   20.7500 N.3   192  LYS192     -0.1314
     37  N          8.8220   54.7880   21.9660 N.am  193  GLU193     -0.1979
     38  CA         7.9640   55.8440   21.4450 C.3   193  GLU193      0.1602
     39  C          8.4280   57.2260   21.8850 C.2   193  GLU193      0.2287
     40  O          8.3470   58.1820   21.1050 O.2   193  GLU193     -0.2864
     41  CB         6.5240   55.6020   21.8830 C.3   193  GLU193      0.0415
     42  CG         5.8840   54.4090   21.1920 C.3   193  GLU193      0.1163
     43  CD         4.6540   53.8780   21.9020 C.2   193  GLU193      0.3649
     44  OE1        4.2820   54.3940   22.9820 O.co2 193  GLU193     -0.2457
     45  OE2        4.0450   52.9320   21.3640 O.co2 193  GLU193     -0.2457
     46  N         11.1320   58.3450   19.6580 N.3   196  LYS196     -0.1245
     47  CA        10.6070   58.8270   18.3700 C.3   196  LYS196      0.1561
     48  C         10.1200   60.2660   18.5020 C.2   196  LYS196      0.2260
     49  O         10.4730   61.1140   17.6930 O.2   196  LYS196     -0.2867
     50  CB         9.4740   57.9300   17.8470 C.3   196  LYS196      0.0271
     51  CG         9.8810   56.4930   17.5300 C.3   196  LYS196      0.0035
     52  CD        10.6140   56.3750   16.2000 C.3   196  LYS196      0.0206
     53  CE        11.5680   55.1820   16.1610 C.3   196  LYS196      0.1093
     54  NZ        12.8720   55.4960   16.8170 N.3   196  LYS196     -0.1314
     55  N         16.1530   57.1170   10.6150 N.3   211  TRP211     -0.1241
     56  CA        16.1570   56.0460   11.6230 C.3   211  TRP211      0.1605
     57  C         15.2610   54.8980   11.1690 C.2   211  TRP211      0.2264
     58  O         15.6700   53.7360   11.1760 O.2   211  TRP211     -0.2867
     59  CB        15.6840   56.5680   12.9770 C.3   211  TRP211      0.0550
     60  CG        16.0320   55.6840   14.1430 C.ar  211  TRP211      0.0003
     61  CD1       17.0780   55.8510   15.0140 C.ar  211  TRP211      0.0946
     62  CD2       15.3300   54.5150   14.5860 C.ar  211  TRP211      0.0152
     63  NE1       17.0740   54.8570   15.9590 N.ar  211  TRP211     -0.2442
     64  CE2       16.0130   54.0240   15.7260 C.ar  211  TRP211      0.0810
     65  CE3       14.1890   53.8330   14.1330 C.ar  211  TRP211      0.0012
     66  CZ2       15.6020   52.8750   16.4150 C.ar  211  TRP211      0.0191
     67  CZ3       13.7690   52.6810   14.8300 C.ar  211  TRP211      0.0001
     68  CH2       14.4810   52.2180   15.9570 C.ar  211  TRP211      0.0015
     69  N         16.0260   50.8730   10.2560 N.3   215  ARG215     -0.1231
     70  CA        15.4560   49.7760   11.0500 C.3   215  ARG215      0.1694
     71  C         14.5470   48.8800   10.2080 C.2   215  ARG215      0.2591
     72  O         14.6750   47.6660   10.2500 O.2   215  ARG215     -0.2718
     73  CB        14.7090   50.3100   12.2870 C.3   215  ARG215      0.0321
     74  CG        14.3210   49.2380   13.3030 C.3   215  ARG215      0.0489
     75  CD        15.5110   48.7160   14.1120 C.3   215  ARG215      0.2205
     76  NE        15.1940   47.4250   14.7270 N.pl3 215  ARG215     -0.0865
     77  CZ        15.5080   46.2160   14.2510 C.cat 215  ARG215      0.5346
     78  NH1       16.2020   46.0530   13.1270 N.pl3 215  ARG215      0.1354
     79  NH2       15.1250   45.1370   14.9230 N.pl3 215  ARG215      0.1354
     80  N         13.6370   49.4770    9.4440 N.am  216  LEU216     -0.1980
     81  CA        12.7630   48.6990    8.5620 C.3   216  LEU216      0.1596
     82  C         13.5150   47.8640    7.5210 C.2   216  LEU216      0.2287
     83  O         13.1170   46.7260    7.2340 O.2   216  LEU216     -0.2864
     84  CB        11.7250   49.5930    7.8750 C.3   216  LEU216      0.0297
     85  CG        10.6410   50.2250    8.7620 C.3   216  LEU216      0.0022
     86  CD1        9.3760   50.4180    7.9470 C.3   216  LEU216      0.0001
     87  CD2       10.3060   49.4340   10.0220 C.3   216  LEU216      0.0001
     88  N         14.8150   44.8010    9.2620 N.3   219  LYS219     -0.1231
     89  CA        13.7050   43.8880    9.5310 C.3   219  LYS219      0.1693
     90  C         13.1240   43.2510    8.2780 C.2   219  LYS219      0.2592
     91  O         12.7610   42.0790    8.3060 O.2   219  LYS219     -0.2718
     92  CB        12.5930   44.6080   10.3010 C.3   219  LYS219      0.0285
     93  CG        12.8820   44.8040   11.7840 C.3   219  LYS219      0.0035
     94  CD        11.6040   45.0570   12.5760 C.3   219  LYS219      0.0206
     95  CE        11.8940   45.1760   14.0650 C.3   219  LYS219      0.1093
     96  NZ        10.6620   45.0170   14.8830 N.3   219  LYS219     -0.1314
     97  N         13.0480   44.0250    7.1940 N.am  220  PHE220     -0.1976
     98  CA        12.4510   43.5880    5.9280 C.3   220  PHE220      0.1639
     99  C         13.4490   43.6510    4.7580 C.2   220  PHE220      0.2290
    100  O         13.2420   44.3930    3.8020 O.2   220  PHE220     -0.2864
    101  CB        11.2320   44.4620    5.5960 C.3   220  PHE220      0.0560
    102  CG        10.2430   44.6070    6.7210 C.ar  220  PHE220     -0.0200
    103  CD1        9.7770   43.4930    7.4150 C.ar  220  PHE220     -0.0042
    104  CD2        9.7360   45.8580    7.0540 C.ar  220  PHE220     -0.0042
    105  CE1        8.8480   43.6260    8.4330 C.ar  220  PHE220     -0.0003
    106  CE2        8.8100   45.9980    8.0760 C.ar  220  PHE220     -0.0003
    107  CZ         8.3650   44.8770    8.7630 C.ar  220  PHE220     -0.0000
    108  N          6.2360   52.4110    3.3740 N.3   231  ILE231     -0.1245
    109  CA         6.0040   52.0830    4.7850 C.3   231  ILE231      0.1561
    110  C          6.5830   53.1520    5.7160 C.2   231  ILE231      0.2260
    111  O          5.8960   53.6100    6.6250 O.2   231  ILE231     -0.2867
    112  CB         6.5720   50.6950    5.1570 C.3   231  ILE231      0.0252
    113  CG1        5.8860   49.5920    4.3400 C.3   231  ILE231      0.0019
    114  CG2        6.3760   50.4060    6.6420 C.3   231  ILE231      0.0019
    115  CD1        6.6570   48.2880    4.2960 C.3   231  ILE231      0.0001
    116  N          4.5840   55.2660    8.3550 N.3   235  LEU235     -0.1245
    117  CA         5.0270   55.0790    9.7400 C.3   235  LEU235      0.1561
    118  C          5.4940   56.3850   10.3980 C.2   235  LEU235      0.2260
    119  O          5.1530   56.6660   11.5460 O.2   235  LEU235     -0.2867
    120  CB         6.1530   54.0440    9.7760 C.3   235  LEU235      0.0270
    121  CG         6.7170   53.6070   11.1270 C.3   235  LEU235      0.0019
    122  CD1        5.6380   53.0850   12.0650 C.3   235  LEU235      0.0001
    123  CD2        7.7780   52.5450   10.8910 C.3   235  LEU235      0.0001
    124  N          2.4350   58.2730   11.2700 N.3   238  VAL238     -0.1231
    125  CA         1.8560   57.7030   12.4910 C.3   238  VAL238      0.1692
    126  C          2.5710   58.2850   13.7100 C.2   238  VAL238      0.2592
    127  O          1.9260   58.8510   14.5850 O.2   238  VAL238     -0.2718
    128  CB         1.9320   56.1530   12.4960 C.3   238  VAL238      0.0266
    129  CG1        1.5390   55.5620   13.8480 C.3   238  VAL238      0.0020
    130  CG2        1.0150   55.5780   11.4300 C.3   238  VAL238      0.0020
    131  N          3.8990   58.1530   13.7360 N.am  239  HIS239     -0.1976
    132  CA         4.7390   58.6960   14.8120 C.3   239  HIS239      0.1656
    133  C          4.4640   60.1680   15.0960 C.2   239  HIS239      0.2291
    134  O          4.2410   60.5480   16.2450 O.2   239  HIS239     -0.2864
    135  CB         6.2270   58.5850   14.4730 C.3   239  HIS239      0.0771
    136  CG         6.7700   57.1980   14.5100 C.ar  239  HIS239      0.0820
    137  ND1        6.4220   56.2900   15.4810 N.ar  239  HIS239     -0.2267
    138  CD2        7.6790   56.5780   13.7180 C.ar  239  HIS239      0.1154
    139  CE1        7.0700   55.1590   15.2700 C.ar  239  HIS239      0.1986
    140  NE2        7.8420   55.3070   14.2080 N.ar  239  HIS239     -0.2212
    141  N         -2.2420   54.1780   11.8870 N.3   254  ARG254     -0.1245
    142  CA        -1.5680   52.9960   12.4300 C.3   254  ARG254      0.1563
    143  C         -2.2840   51.6950   12.0570 C.2   254  ARG254      0.2260
    144  O         -1.6420   50.7100   11.7000 O.2   254  ARG254     -0.2867
    145  CB        -1.4610   53.1180   13.9480 C.3   254  ARG254      0.0307
    146  CG        -0.5540   52.1050   14.6280 C.3   254  ARG254      0.0489
    147  CD        -0.4660   52.4260   16.1100 C.3   254  ARG254      0.2205
    148  NE         0.4360   51.5390   16.8490 N.pl3 254  ARG254     -0.0865
    149  CZ         0.0820   50.4800   17.5820 C.cat 254  ARG254      0.5346
    150  NH1       -1.1950   50.0920   17.7140 N.pl3 254  ARG254      0.1354
    151  NH2        1.0350   49.7880   18.1970 N.pl3 254  ARG254      0.1354
    152  N         -1.8260   51.1450    8.2820 N.3   257  LEU257     -0.1231
    153  CA        -0.4680   50.6680    8.0250 C.3   257  LEU257      0.1693
    154  C         -0.3110   49.1760    8.3110 C.2   257  LEU257      0.2591
    155  O          0.2880   48.4520    7.5150 O.2   257  LEU257     -0.2718
    156  CB         0.5490   51.4790    8.8370 C.3   257  LEU257      0.0284
    157  CG         2.0260   51.1150    8.6700 C.3   257  LEU257      0.0019
    158  CD1        2.4450   51.2280    7.2160 C.3   257  LEU257      0.0001
    159  CD2        2.8990   52.0050    9.5390 C.3   257  LEU257      0.0001
    160  N         -0.8310   48.7310    9.4490 N.am  258  ALA258     -0.1980
    161  CA        -0.8510   47.3070    9.7900 C.3   258  ALA258      0.1597
    162  C         -1.5690   46.5090    8.7120 C.2   258  ALA258      0.2287
    163  O         -1.0520   45.5080    8.2260 O.2   258  ALA258     -0.2864
    164  CB        -1.5250   47.0960   11.1330 C.3   258  ALA258      0.0319
    165  N          0.7000   46.4180    5.4910 N.3   261  ILE261     -0.1245
    166  CA         1.8220   45.4870    5.6610 C.3   261  ILE261      0.1561
    167  C          1.3650   44.0260    5.5270 C.2   261  ILE261      0.2260
    168  O          2.0260   43.2260    4.8660 O.2   261  ILE261     -0.2867
    169  CB         2.5500   45.7210    7.0040 C.3   261  ILE261      0.0252
    170  CG1        3.3020   47.0600    6.9640 C.3   261  ILE261      0.0019
    171  CG2        3.5420   44.5940    7.3120 C.3   261  ILE261      0.0019
    172  CD1        3.7030   47.5920    8.3200 C.3   261  ILE261      0.0001
    173  N         -0.9850   45.0170   15.1190 N.3   284  SER284     -0.1217
    174  CA        -0.1110   46.1860   15.0190 C.3   284  SER284      0.1889
    175  C          1.1320   46.0080   15.8780 C.2   284  SER284      0.2288
    176  O          2.2520   46.2070   15.4030 O.2   284  SER284     -0.2866
    177  CB        -0.8460   47.4530   15.4460 C.3   284  SER284      0.2089
    178  OG        -1.9440   47.7270   14.5980 O.3   284  SER284     -0.2183
    179  N          3.6290   43.1980   14.5540 N.3   287  ILE287     -0.1231
    180  CA         4.3820   43.7510   13.4160 C.3   287  ILE287      0.1692
    181  C          5.5420   44.6270   13.8890 C.2   287  ILE287      0.2592
    182  O          6.6660   44.4860   13.4210 O.2   287  ILE287     -0.2718
    183  CB         3.4630   44.6070   12.5110 C.3   287  ILE287      0.0266
    184  CG1        2.4670   43.7200   11.7660 C.3   287  ILE287      0.0019
    185  CG2        4.2640   45.4190   11.4990 C.3   287  ILE287      0.0020
    186  CD1        1.2330   44.4620   11.3030 C.3   287  ILE287      0.0001
    187  N          5.2470   45.5400   14.8060 N.am  288  ALA288     -0.1966
    188  CA         6.2530   46.4370   15.3730 C.3   288  ALA288      0.1728
    189  C          7.4300   45.7180   16.0550 C.2   288  ALA288      0.2616
    190  O          8.5470   46.2170   16.0320 O.2   288  ALA288     -0.2715
    191  CB         5.5880   47.3900   16.3460 C.3   288  ALA288      0.0334
    192  N          7.1680   44.5620   16.6580 N.am  289  GLU289     -0.1977
    193  CA         8.1970   43.7660   17.3420 C.3   289  GLU289      0.1602
    194  C          8.6200   42.5060   16.5770 C.2   289  GLU289      0.2287
    195  O          9.2830   41.6350   17.1400 O.2   289  GLU289     -0.2864
    196  CB         7.6990   43.3820   18.7460 C.3   289  GLU289      0.0415
    197  CG         7.4380   44.5690   19.6660 C.3   289  GLU289      0.1163
    198  CD         8.6880   45.3990   19.9350 C.2   289  GLU289      0.3649
    199  OE1        9.7680   44.8120   20.1820 O.co2 289  GLU289     -0.2457
    200  OE2        8.5990   46.6470   19.8920 O.co2 289  GLU289     -0.2457
@<TRIPOS>BOND
     1   108   109    1
     2   100    99    2
     3   115   113    1
     4   113   112    1
     5    99    98    1
     6   109   112    1
     7   109   110    1
     8   168   167    2
     9   112   114    1
    10   165   166    1
    11   167   166    1
    12   101    98    1
    13   101   102    1
    14   166   169    1
    15   110   111    2
    16    98    97    1
    17   102   104   ar
    18   102   103   ar
    19   170   169    1
    20   170   172    1
    21   169   171    1
    22   104   106   ar
    23    97    90   am
    24   158   157    1
    25    83    82    2
    26   103   105   ar
    27   155   154    2
    28    82    81    1
    29    84    81    1
    30    84    85    1
    31    86    85    1
    32   153   152    1
    33   153   154    1
    34   153   156    1
    35   106   107   ar
    36   163   162    2
    37    90    91    2
    38    90    89    1
    39   154   160   am
    40   116   117    1
    41   105   107   ar
    42    81    80    1
    43   157   156    1
    44   157   159    1
    45   162   161    1
    46    85    87    1
    47    88    89    1
    48    80    71   am
    49   160   161    1
    50    89    92    1
    51   117   120    1
    52   117   118    1
    53   120   121    1
    54   161   164    1
    55    71    72    2
    56    71    70    1
    57    69    70    1
    58    92    93    1
    59   118   119    2
    60    55    56    1
    61   123   121    1
    62    70    73    1
    63   121   122    1
    64    57    58    2
    65    57    56    1
    66   124   125    1
    67   186   184    1
    68   130   128    1
    69   185   183    1
    70    56    59    1
    71   144   143    2
    72   184   183    1
    73    93    94    1
    74   141   142    1
    75   143   142    1
    76    73    74    1
    77   142   145    1
    78   125   128    1
    79   125   126    1
    80   128   129    1
    81   183   180    1
    82    94    95    1
    83    59    60    1
    84    78    77    1
    85    74    75    1
    86   180   181    1
    87   180   179    1
    88   182   181    2
    89   126   131   am
    90   126   127    2
    91   138   140   ar
    92   138   136   ar
    93   131   132    1
    94   181   187   am
    95   145   146    1
    96    95    96    1
    97    75    76    1
    98    65    62   ar
    99    65    67   ar
   100    60    62   ar
   101    60    61   ar
   102   140   139   ar
   103    77    76    2
   104    77    79    1
   105   135   136    1
   106   135   132    1
   107   136   137   ar
   108    62    64   ar
   109   178   177    1
   110   146   147    1
   111   187   188    1
   112   132   133    1
   113    67    68   ar
   114    61    63   ar
   115   174   173    1
   116   174   177    1
   117   174   175    1
   118   133   134    2
   119   139   137   ar
   120   188   189    1
   121   188   191    1
   122   176   175    2
   123    64    63   ar
   124    64    66   ar
   125    68    66   ar
   126   190   189    2
   127   189   192   am
   128   147   148    1
   129    53    52    1
   130    53    54    1
   131    52    51    1
   132   194   195    2
   133   194   193    1
   134   192   193    1
   135   148   149    2
   136   193   196    1
   137    51    50    1
   138   149   150    1
   139   149   151    1
   140    49    48    2
   141    50    47    1
   142    12    11    1
   143    10    11   ar
   144    10     8   ar
   145    47    48    1
   146    47    46    1
   147    11     9   ar
   148     8     6   ar
   149   196   197    1
   150   197   198    1
   151     9     7   ar
   152   200   198   ar
   153     6     7   ar
   154     6     5    1
   155   198   199   ar
   156    20    19   ar
   157     5     2    1
   158    31    30    2
   159    36    35    1
   160    35    34    1
   161    34    33    1
   162    40    39    2
   163    42    41    1
   164    42    43    1
   165    45    43   ar
   166    13    14    1
   167    38    41    1
   168    38    39    1
   169    38    37    1
   170    32    33    1
   171    32    29    1
   172    19    21   ar
   173    19    18    1
   174    30    37   am
   175    30    29    1
   176    17    14    1
   177    17    18    1
   178     2     3    1
   179     2     1    1
   180    43    44   ar
   181    14    15    1
   182    29    28    1
   183     3     4    2
   184    15    16    2
   185    25    24    2
   186    27    26    1
   187    23    26    1
   188    23    24    1
   189    23    22    1
