@<TRIPOS>MOLECULE
tmp/5v0vA05.pdb
 105 97 0 0 0
SMALL
GASTEIGER

@<TRIPOS>ATOM
      1  N         13.0520   64.5400    9.2410 N.3   206  ARG206     -0.1245
      2  CA        14.0870   63.8710    8.4420 C.3   206  ARG206      0.1563
      3  C         14.8930   62.8560    9.2520 C.2   206  ARG206      0.2260
      4  O         15.2650   61.8020    8.7360 O.2   206  ARG206     -0.2867
      5  CB        15.0370   64.8950    7.8240 C.3   206  ARG206      0.0307
      6  CG        14.4210   65.7500    6.7190 C.3   206  ARG206      0.0489
      7  CD        15.2720   66.9810    6.4380 C.3   206  ARG206      0.2205
      8  NE        16.6320   66.6170    6.0260 N.pl3 206  ARG206     -0.0865
      9  CZ        17.0010   66.2700    4.7890 C.cat 206  ARG206      0.5346
     10  NH1       16.1160   66.2390    3.7910 N.pl3 206  ARG206      0.1354
     11  NH2       18.2740   65.9550    4.5390 N.pl3 206  ARG206      0.1354
     12  N         12.6420   59.7460    9.7280 N.3   209  LYS209     -0.1231
     13  CA        12.6420   58.9810    8.4730 C.3   209  LYS209      0.1693
     14  C         13.8940   58.1140    8.3340 C.2   209  LYS209      0.2591
     15  O         13.7940   56.9200    8.0830 O.2   209  LYS209     -0.2718
     16  CB        12.4870   59.8960    7.2500 C.3   209  LYS209      0.0285
     17  CG        11.0980   60.4900    7.1230 C.3   209  LYS209      0.0035
     18  CD        10.7960   61.0360    5.7380 C.3   209  LYS209      0.0206
     19  CE         9.3840   61.6180    5.6990 C.3   209  LYS209      0.1093
     20  NZ         8.9970   62.1590    4.3630 N.3   209  LYS209     -0.1314
     21  N         15.0590   58.7190    8.5310 N.am  210  ALA210     -0.1980
     22  CA        16.3370   58.0300    8.3640 C.3   210  ALA210      0.1597
     23  C         16.5020   56.8810    9.3510 C.2   210  ALA210      0.2287
     24  O         16.9290   55.7890    8.9650 O.2   210  ALA210     -0.2864
     25  CB        17.4900   59.0120    8.4940 C.3   210  ALA210      0.0319
     26  N         14.0990   54.1820    8.0760 N.3   213  VAL213     -0.1245
     27  CA        14.6480   53.5170    6.8700 C.3   213  VAL213      0.1561
     28  C         15.6590   52.4440    7.2770 C.2   213  VAL213      0.2260
     29  O         15.6090   51.3170    6.7810 O.2   213  VAL213     -0.2867
     30  CB        15.3020   54.5170    5.8710 C.3   213  VAL213      0.0252
     31  CG1       16.1070   53.8100    4.7940 C.3   213  VAL213      0.0019
     32  CG2       14.2450   55.3650    5.1850 C.3   213  VAL213      0.0019
     33  N         13.0570   48.8500   -2.5370 N.3   225  PHE225     -0.1241
     34  CA        13.2220   50.2420   -2.1050 C.3   225  PHE225      0.1605
     35  C         11.9070   51.0210   -2.0480 C.2   225  PHE225      0.2264
     36  O         11.6280   51.6850   -1.0650 O.2   225  PHE225     -0.2867
     37  CB        14.2150   50.9620   -3.0240 C.3   225  PHE225      0.0534
     38  CG        14.4800   52.3950   -2.6370 C.ar  225  PHE225     -0.0203
     39  CD1       15.2830   52.6960   -1.5420 C.ar  225  PHE225     -0.0042
     40  CD2       13.9280   53.4460   -3.3700 C.ar  225  PHE225     -0.0042
     41  CE1       15.5350   54.0110   -1.1810 C.ar  225  PHE225     -0.0003
     42  CE2       14.1770   54.7660   -3.0150 C.ar  225  PHE225     -0.0003
     43  CZ        14.9840   55.0480   -1.9200 C.ar  225  PHE225     -0.0000
     44  N          9.7430   49.8850    1.0930 N.3   228  VAL228     -0.1231
     45  CA        10.2930   50.5160    2.3000 C.3   228  VAL228      0.1692
     46  C         10.0030   52.0250    2.3320 C.2   228  VAL228      0.2592
     47  O          9.7260   52.5700    3.3930 O.2   228  VAL228     -0.2718
     48  CB        11.8110   50.2170    2.4450 C.3   228  VAL228      0.0266
     49  CG1       12.4670   51.0310    3.5520 C.3   228  VAL228      0.0020
     50  CG2       12.0230   48.7430    2.7350 C.3   228  VAL228      0.0020
     51  N         10.0580   52.6880    1.1800 N.am  229  SER229     -0.1952
     52  CA         9.7130   54.1150    1.0860 C.3   229  SER229      0.1924
     53  C          8.2820   54.3760    1.5260 C.2   229  SER229      0.2314
     54  O          8.0260   55.2700    2.3300 O.2   229  SER229     -0.2863
     55  CB         9.8750   54.6220   -0.3440 C.3   229  SER229      0.2116
     56  OG        11.1310   54.2500   -0.8670 O.3   229  SER229     -0.2180
     57  N          7.8350   53.5390    5.4830 N.3   232  VAL232     -0.1231
     58  CA         8.5080   54.5660    6.2960 C.3   232  VAL232      0.1692
     59  C          7.7630   55.8970    6.2720 C.2   232  VAL232      0.2592
     60  O          7.6450   56.5560    7.2950 O.2   232  VAL232     -0.2718
     61  CB         9.9730   54.7840    5.8600 C.3   232  VAL232      0.0266
     62  CG1       10.5790   56.0080    6.5400 C.3   232  VAL232      0.0020
     63  CG2       10.8100   53.5640    6.2060 C.3   232  VAL232      0.0020
     64  N          7.2790   56.2890    5.1020 N.am  233  THR233     -0.1953
     65  CA         6.4780   57.5000    4.9600 C.3   233  THR233      0.1897
     66  C          5.2210   57.4570    5.8450 C.2   233  THR233      0.2313
     67  O          4.9650   58.3920    6.6170 O.2   233  THR233     -0.2863
     68  CB         6.0880   57.7050    3.4870 C.3   233  THR233      0.1794
     69  OG1        7.2830   57.8590    2.7150 O.3   233  THR233     -0.2208
     70  CG2        5.2050   58.9410    3.2930 C.3   233  THR233      0.0378
     71  N         19.4900   63.4510   -1.1040 N.3   321  ASP321     -0.1225
     72  CA        18.5590   62.6880   -0.2510 C.3   321  ASP321      0.1805
     73  C         18.1700   61.3220   -0.8140 C.2   321  ASP321      0.2597
     74  O         18.1440   60.3310   -0.0790 O.2   321  ASP321     -0.2718
     75  CB        17.2850   63.5060    0.0160 C.3   321  ASP321      0.1424
     76  CG        17.5210   64.6790    0.9530 C.2   321  ASP321      0.3668
     77  OD1       18.3550   64.5680    1.8810 O.co2 321  ASP321     -0.2456
     78  OD2       16.8480   65.7160    0.7780 O.co2 321  ASP321     -0.2456
     79  N         17.8520   61.2860   -2.1060 N.am  322  VAL322     -0.1980
     80  CA        17.5220   60.0350   -2.7950 C.3   322  VAL322      0.1595
     81  C         18.7340   59.1060   -2.8380 C.2   322  VAL322      0.2287
     82  O         18.6070   57.9190   -2.5380 O.2   322  VAL322     -0.2864
     83  CB        16.9780   60.2940   -4.2220 C.3   322  VAL322      0.0276
     84  CG1       16.8330   59.0000   -5.0240 C.3   322  VAL322      0.0022
     85  CG2       15.6330   61.0000   -4.1400 C.3   322  VAL322      0.0022
     86  N         21.6110   59.0600   -0.9370 N.3   324  LEU324     -0.1231
     87  CA        21.9520   58.6090    0.4180 C.3   324  LEU324      0.1693
     88  C         20.8850   57.6970    1.0240 C.2   324  LEU324      0.2592
     89  O         21.2140   56.7140    1.7010 O.2   324  LEU324     -0.2718
     90  CB        22.1770   59.8060    1.3380 C.3   324  LEU324      0.0284
     91  CG        23.3660   60.7040    0.9890 C.3   324  LEU324      0.0019
     92  CD1       23.4010   61.8980    1.9290 C.3   324  LEU324      0.0001
     93  CD2       24.6920   59.9560    1.0480 C.3   324  LEU324      0.0001
     94  N         19.6150   58.0380    0.7900 N.am  325  GLY325     -0.1957
     95  CA        18.4900   57.1760    1.1330 C.3   325  GLY325      0.1869
     96  C         18.6740   55.7830    0.5630 C.2   325  GLY325      0.2309
     97  O         18.5280   54.7870    1.2780 O.2   325  GLY325     -0.2863
     98  N         21.6000   54.0690    2.3520 N.3   328  LEU328     -0.1245
     99  CA        21.2160   53.6550    3.7100 C.3   328  LEU328      0.1561
    100  C         20.3370   52.4040    3.6860 C.2   328  LEU328      0.2260
    101  O         20.5440   51.4900    4.4800 O.2   328  LEU328     -0.2867
    102  CB        20.5100   54.7860    4.4660 C.3   328  LEU328      0.0270
    103  CG        20.0140   54.4560    5.8810 C.3   328  LEU328      0.0019
    104  CD1       21.1550   54.0590    6.8100 C.3   328  LEU328      0.0001
    105  CD2       19.2330   55.6220    6.4600 C.3   328  LEU328      0.0001
@<TRIPOS>BOND
     1    84    83    1
     2    83    85    1
     3    83    80    1
     4    40    42   ar
     5    40    38   ar
     6    37    38    1
     7    37    34    1
     8    42    43   ar
     9    81    80    1
    10    81    82    2
    11    80    79    1
    12    38    39   ar
    13    33    34    1
    14    79    73   am
    15    34    35    1
    16    35    36    2
    17    43    41   ar
    18    39    41   ar
    19    71    72    1
    20    86    87    1
    21    56    55    1
    22    73    72    1
    23    73    74    2
    24    55    52    1
    25    72    75    1
    26    75    76    1
    27    87    88    1
    28    87    90    1
    29    96    95    1
    30    96    97    2
    31    78    76   ar
    32    94    88   am
    33    94    95    1
    34    76    77   ar
    35    91    93    1
    36    91    90    1
    37    91    92    1
    38    88    89    2
    39    52    51    1
    40    52    53    1
    41    44    45    1
    42    51    46   am
    43    53    54    2
    44    45    46    1
    45    45    48    1
    46    46    47    2
    47    98    99    1
    48    48    50    1
    49    48    49    1
    50    69    68    1
    51    70    68    1
    52    68    65    1
    53   100    99    1
    54   100   101    2
    55    99   102    1
    56    10     9    1
    57    20    19    1
    58   102   103    1
    59    11     9    1
    60     9     8    2
    61    31    30    1
    62    65    64    1
    63    65    66    1
    64    64    59   am
    65    32    30    1
    66    57    58    1
    67    19    18    1
    68    18    17    1
    69    66    67    2
    70    61    63    1
    71    61    58    1
    72    61    62    1
    73    30    27    1
    74   103   105    1
    75   103   104    1
    76     8     7    1
    77    59    58    1
    78    59    60    2
    79     7     6    1
    80     6     5    1
    81    29    28    2
    82    27    28    1
    83    27    26    1
    84    17    16    1
    85    16    13    1
    86     5     2    1
    87    15    14    2
    88    14    13    1
    89    14    21   am
    90    22    25    1
    91    22    21    1
    92    22    23    1
    93     2     1    1
    94     2     3    1
    95    13    12    1
    96     4     3    2
    97    24    23    2
