@<TRIPOS>MOLECULE
tmp/5v0vA06.pdb
 118 109 0 0 0
SMALL
GASTEIGER

@<TRIPOS>ATOM
      1  N         15.5230   66.8500   16.6660 N.3   203  PHE203     -0.1241
      2  CA        16.2260   66.6590   15.3830 C.3   203  PHE203      0.1605
      3  C         15.3920   66.7580   14.1050 C.2   203  PHE203      0.2264
      4  O         15.9560   66.8960   13.0200 O.2   203  PHE203     -0.2867
      5  CB        16.9510   65.3240   15.4030 C.3   203  PHE203      0.0534
      6  CG        17.8370   65.1400   16.5990 C.ar  203  PHE203     -0.0203
      7  CD1       19.0260   65.8540   16.7110 C.ar  203  PHE203     -0.0042
      8  CD2       17.4870   64.2540   17.6120 C.ar  203  PHE203     -0.0042
      9  CE1       19.8570   65.6810   17.8060 C.ar  203  PHE203     -0.0003
     10  CE2       18.3110   64.0790   18.7140 C.ar  203  PHE203     -0.0003
     11  CZ        19.4960   64.7960   18.8120 C.ar  203  PHE203     -0.0000
     12  N         13.0520   64.5400    9.2410 N.3   206  ARG206     -0.1231
     13  CA        14.0870   63.8710    8.4420 C.3   206  ARG206      0.1694
     14  C         14.8930   62.8560    9.2520 C.2   206  ARG206      0.2591
     15  O         15.2650   61.8020    8.7360 O.2   206  ARG206     -0.2718
     16  CB        15.0370   64.8950    7.8240 C.3   206  ARG206      0.0321
     17  CG        14.4210   65.7500    6.7190 C.3   206  ARG206      0.0489
     18  CD        15.2720   66.9810    6.4380 C.3   206  ARG206      0.2205
     19  NE        16.6320   66.6170    6.0260 N.pl3 206  ARG206     -0.0865
     20  CZ        17.0010   66.2700    4.7890 C.cat 206  ARG206      0.5346
     21  NH1       16.1160   66.2390    3.7910 N.pl3 206  ARG206      0.1354
     22  NH2       18.2740   65.9550    4.5390 N.pl3 206  ARG206      0.1354
     23  N         15.1530   63.1790   10.5180 N.am  207  ALA207     -0.1980
     24  CA        15.8500   62.2700   11.4280 C.3   207  ALA207      0.1597
     25  C         15.0420   61.0170   11.7400 C.2   207  ALA207      0.2287
     26  O         15.5970   59.9260   11.8250 O.2   207  ALA207     -0.2864
     27  CB        16.2160   62.9850   12.7110 C.3   207  ALA207      0.0319
     28  N         15.0590   58.7190    8.5310 N.3   210  ALA210     -0.1245
     29  CA        16.3370   58.0300    8.3640 C.3   210  ALA210      0.1562
     30  C         16.5020   56.8810    9.3510 C.2   210  ALA210      0.2260
     31  O         16.9290   55.7890    8.9650 O.2   210  ALA210     -0.2867
     32  CB        17.4900   59.0120    8.4940 C.3   210  ALA210      0.0290
     33  N         19.4900   63.4510   -1.1040 N.3   321  ASP321     -0.1239
     34  CA        18.5590   62.6880   -0.2510 C.3   321  ASP321      0.1674
     35  C         18.1700   61.3220   -0.8140 C.2   321  ASP321      0.2266
     36  O         18.1440   60.3310   -0.0790 O.2   321  ASP321     -0.2867
     37  CB        17.2850   63.5060    0.0160 C.3   321  ASP321      0.1410
     38  CG        17.5210   64.6790    0.9530 C.2   321  ASP321      0.3668
     39  OD1       18.3550   64.5680    1.8810 O.co2 321  ASP321     -0.2456
     40  OD2       16.8480   65.7160    0.7780 O.co2 321  ASP321     -0.2456
     41  N         21.6110   59.0600   -0.9370 N.3   324  LEU324     -0.1231
     42  CA        21.9520   58.6090    0.4180 C.3   324  LEU324      0.1693
     43  C         20.8850   57.6970    1.0240 C.2   324  LEU324      0.2592
     44  O         21.2140   56.7140    1.7010 O.2   324  LEU324     -0.2718
     45  CB        22.1770   59.8060    1.3380 C.3   324  LEU324      0.0284
     46  CG        23.3660   60.7040    0.9890 C.3   324  LEU324      0.0019
     47  CD1       23.4010   61.8980    1.9290 C.3   324  LEU324      0.0001
     48  CD2       24.6920   59.9560    1.0480 C.3   324  LEU324      0.0001
     49  N         19.6150   58.0380    0.7900 N.am  325  GLY325     -0.1957
     50  CA        18.4900   57.1760    1.1330 C.3   325  GLY325      0.1869
     51  C         18.6740   55.7830    0.5630 C.2   325  GLY325      0.2309
     52  O         18.5280   54.7870    1.2780 O.2   325  GLY325     -0.2863
     53  N         21.6000   54.0690    2.3520 N.3   328  LEU328     -0.1245
     54  CA        21.2160   53.6550    3.7100 C.3   328  LEU328      0.1561
     55  C         20.3370   52.4040    3.6860 C.2   328  LEU328      0.2260
     56  O         20.5440   51.4900    4.4800 O.2   328  LEU328     -0.2867
     57  CB        20.5100   54.7860    4.4660 C.3   328  LEU328      0.0270
     58  CG        20.0140   54.4560    5.8810 C.3   328  LEU328      0.0019
     59  CD1       21.1550   54.0590    6.8100 C.3   328  LEU328      0.0001
     60  CD2       19.2330   55.6220    6.4600 C.3   328  LEU328      0.0001
     61  N         23.4550   54.7690   10.8190 N.3   344  LEU344     -0.1245
     62  CA        23.3260   56.2040   10.5780 C.3   344  LEU344      0.1561
     63  C         24.6780   56.9160   10.6170 C.2   344  LEU344      0.2260
     64  O         24.8940   57.8760    9.8780 O.2   344  LEU344     -0.2867
     65  CB        22.3570   56.8270   11.5760 C.3   344  LEU344      0.0270
     66  CG        20.9240   56.2960   11.5150 C.3   344  LEU344      0.0019
     67  CD1       20.1210   56.8640   12.6770 C.3   344  LEU344      0.0001
     68  CD2       20.2440   56.6110   10.1870 C.3   344  LEU344      0.0001
     69  N         26.3110   56.0110    7.2550 N.3   347  ALA347     -0.1231
     70  CA        25.7040   56.8700    6.2330 C.3   347  ALA347      0.1694
     71  C         26.2560   58.2970    6.2570 C.2   347  ALA347      0.2591
     72  O         26.5080   58.8860    5.2120 O.2   347  ALA347     -0.2718
     73  CB        24.1880   56.8900    6.3830 C.3   347  ALA347      0.0304
     74  N         26.4340   58.8350    7.4560 N.am  348  LYS348     -0.1980
     75  CA        27.0090   60.1680    7.6630 C.3   348  LYS348      0.1596
     76  C         28.4710   60.2590    7.1850 C.2   348  LYS348      0.2287
     77  O         28.8900   61.2700    6.6150 O.2   348  LYS348     -0.2864
     78  CB        26.9100   60.5250    9.1420 C.3   348  LYS348      0.0298
     79  CG        27.1570   61.9860    9.4770 C.3   348  LYS348      0.0038
     80  CD        26.7870   62.2590   10.9330 C.3   348  LYS348      0.0206
     81  CE        27.2970   63.6090   11.4150 C.3   348  LYS348      0.1093
     82  NZ        26.6330   64.0240   12.6860 N.3   348  LYS348     -0.1314
     83  N         28.3290   60.2010    3.2850 N.3   351  GLU351     -0.1245
     84  CA        28.0390   61.5760    2.8520 C.3   351  GLU351      0.1567
     85  C         29.2790   62.4580    2.9350 C.2   351  GLU351      0.2260
     86  O         29.6110   63.1600    1.9840 O.2   351  GLU351     -0.2867
     87  CB        26.9280   62.1890    3.7120 C.3   351  GLU351      0.0388
     88  CG        26.5180   63.6070    3.2940 C.3   351  GLU351      0.1160
     89  CD        25.4480   64.2400    4.1720 C.2   351  GLU351      0.3649
     90  OE1       24.9920   63.6140    5.1460 O.co2 351  GLU351     -0.2457
     91  OE2       25.0580   65.3890    3.8850 O.co2 351  GLU351     -0.2457
     92  N         23.5130   67.6730   19.8160 N.3   476  ASP476     -0.1225
     93  CA        24.3370   67.8350   18.6130 C.3   476  ASP476      0.1805
     94  C         23.9520   66.8750   17.4870 C.2   476  ASP476      0.2598
     95  O         23.7750   67.2970   16.3430 O.2   476  ASP476     -0.2718
     96  CB        25.8290   67.6790   18.9410 C.3   476  ASP476      0.1424
     97  CG        26.4220   68.9010   19.6570 C.2   476  ASP476      0.3668
     98  OD1       25.9150   70.0320   19.4900 O.co2 476  ASP476     -0.2456
     99  OD2       27.4190   68.7230   20.3920 O.co2 476  ASP476     -0.2456
    100  N         23.8290   65.5920   17.8100 N.am  477  SER477     -0.1938
    101  CA        23.5800   64.5610   16.7970 C.3   477  SER477      0.2055
    102  C         22.9810   63.3110   17.4090 C.2   477  SER477      0.2643
    103  O         23.5300   62.7590   18.3640 O.2   477  SER477     -0.2714
    104  CB        24.8800   64.1930   16.0810 C.3   477  SER477      0.2130
    105  OG        24.8160   62.8860   15.5260 O.3   477  SER477     -0.2179
    106  N         21.8640   62.8660   16.8380 N.am  478  LEU478     -0.1963
    107  CA        21.1840   61.6490   17.2660 C.3   478  LEU478      0.1728
    108  C         22.0460   60.3900   17.0900 C.2   478  LEU478      0.2616
    109  O         22.1090   59.5460   17.9780 O.2   478  LEU478     -0.2715
    110  CB        19.8650   61.5080   16.5020 C.3   478  LEU478      0.0311
    111  CG        19.0030   60.2710   16.7680 C.3   478  LEU478      0.0022
    112  CD1       18.7370   60.0640   18.2520 C.3   478  LEU478      0.0001
    113  CD2       17.6970   60.3930   16.0050 C.3   478  LEU478      0.0001
    114  N         22.7130   60.2810   15.9490 N.am  479  ALA479     -0.1977
    115  CA        23.5450   59.1190   15.6350 C.3   479  ALA479      0.1597
    116  C         24.7930   59.0310   16.5090 C.2   479  ALA479      0.2287
    117  O         25.2710   57.9310   16.7940 O.2   479  ALA479     -0.2864
    118  CB        23.9390   59.1440   14.1690 C.3   479  ALA479      0.0319
@<TRIPOS>BOND
     1    33    34    1
     2    41    42    1
     3    35    34    1
     4    35    36    2
     5    34    37    1
     6    37    38    1
     7    42    43    1
     8    42    45    1
     9    51    50    1
    10    51    52    2
    11    40    38   ar
    12    49    43   am
    13    49    50    1
    14    38    39   ar
    15    46    48    1
    16    46    45    1
    17    46    47    1
    18    43    44    2
    19    86    85    2
    20    53    54    1
    21    84    85    1
    22    84    83    1
    23    84    87    1
    24    88    87    1
    25    88    89    1
    26    55    54    1
    27    55    56    2
    28    54    57    1
    29    21    20    1
    30    91    89   ar
    31    89    90   ar
    32    57    58    1
    33    22    20    1
    34    20    19    2
    35    72    71    2
    36    58    60    1
    37    58    59    1
    38    19    18    1
    39    70    71    1
    40    70    73    1
    41    70    69    1
    42    71    74   am
    43    18    17    1
    44    77    76    2
    45    17    16    1
    46    76    75    1
    47    74    75    1
    48    75    78    1
    49    16    13    1
    50    29    32    1
    51    29    28    1
    52    29    30    1
    53    13    12    1
    54    13    14    1
    55    15    14    2
    56    31    30    2
    57    78    79    1
    58    14    23   am
    59    79    80    1
    60    64    63    2
    61    68    66    1
    62    23    24    1
    63    62    63    1
    64    62    61    1
    65    62    65    1
    66    80    81    1
    67    81    82    1
    68    24    25    1
    69    24    27    1
    70    66    65    1
    71    66    67    1
    72    25    26    2
    73     4     3    2
    74     3     2    1
    75   118   115    1
    76     2     5    1
    77     2     1    1
    78     5     6    1
    79   105   104    1
    80   115   114    1
    81   115   116    1
    82   114   108   am
    83   113   111    1
    84   104   101    1
    85    95    94    2
    86   110   111    1
    87   110   107    1
    88   116   117    2
    89     6     7   ar
    90     6     8   ar
    91     7     9   ar
    92   111   112    1
    93   101   102    1
    94   101   100    1
    95   106   107    1
    96   106   102   am
    97   108   107    1
    98   108   109    2
    99   102   103    2
   100    94   100   am
   101    94    93    1
   102     8    10   ar
   103     9    11   ar
   104    93    96    1
   105    93    92    1
   106    10    11   ar
   107    96    97    1
   108    98    97   ar
   109    97    99   ar
