@<TRIPOS>MOLECULE
tmp/5v0vA00.pdb
 119 111 0 0 0
SMALL
GASTEIGER

@<TRIPOS>ATOM
      1  N         33.3420   47.6010   22.8400 N.3   384  LEU384     -0.1245
      2  CA        32.6620   48.0240   24.0650 C.3   384  LEU384      0.1561
      3  C         31.5790   47.0480   24.5140 C.2   384  LEU384      0.2260
      4  O         31.3830   46.8540   25.7120 O.2   384  LEU384     -0.2867
      5  CB        32.0670   49.4210   23.8970 C.3   384  LEU384      0.0270
      6  CG        33.0590   50.5460   23.5660 C.3   384  LEU384      0.0019
      7  CD1       32.2930   51.8470   23.3760 C.3   384  LEU384      0.0001
      8  CD2       34.1530   50.7190   24.6170 C.3   384  LEU384      0.0001
      9  N         32.0130   45.1510   28.0400 N.3   388  ASN388     -0.1240
     10  CA        30.9250   45.2700   29.0190 C.3   388  ASN388      0.1653
     11  C         30.1740   43.9710   29.2920 C.2   388  ASN388      0.2266
     12  O         29.7800   43.7160   30.4280 O.2   388  ASN388     -0.2867
     13  CB        29.9340   46.3560   28.5890 C.3   388  ASN388      0.1155
     14  CG        30.4880   47.7640   28.7570 C.2   388  ASN388      0.2627
     15  OD1       29.8650   48.7270   28.3290 O.2   388  ASN388     -0.2716
     16  ND2       31.6500   47.8890   29.3810 N.am  388  ASN388     -0.0877
     17  N         27.6630   45.2960   38.0240 N.3   400  PHE400     -0.1241
     18  CA        27.7140   45.9390   36.7020 C.3   400  PHE400      0.1605
     19  C         27.0240   47.3030   36.7200 C.2   400  PHE400      0.2264
     20  O         27.5390   48.2700   36.1600 O.2   400  PHE400     -0.2867
     21  CB        27.0760   45.0360   35.6350 C.3   400  PHE400      0.0534
     22  CG        27.1710   45.5740   34.2230 C.ar  400  PHE400     -0.0203
     23  CD1       28.4070   45.8570   33.6500 C.ar  400  PHE400     -0.0042
     24  CD2       26.0240   45.7590   33.4540 C.ar  400  PHE400     -0.0042
     25  CE1       28.5000   46.3360   32.3510 C.ar  400  PHE400     -0.0003
     26  CE2       26.1100   46.2380   32.1560 C.ar  400  PHE400     -0.0003
     27  CZ        27.3520   46.5260   31.6010 C.ar  400  PHE400     -0.0000
     28  N         28.7230   51.1620   36.2690 N.3   404  LEU404     -0.1245
     29  CA        28.1510   52.2260   35.4230 C.3   404  LEU404      0.1561
     30  C         27.7170   53.4810   36.1910 C.2   404  LEU404      0.2260
     31  O         27.8320   54.5870   35.6650 O.2   404  LEU404     -0.2867
     32  CB        26.9740   51.6870   34.6070 C.3   404  LEU404      0.0270
     33  CG        27.3100   50.5790   33.6070 C.3   404  LEU404      0.0019
     34  CD1       26.0350   49.9480   33.0510 C.3   404  LEU404      0.0001
     35  CD2       28.1730   51.1050   32.4760 C.3   404  LEU404      0.0001
     36  N         30.8680   55.1850   36.7040 N.3   407  ARG407     -0.1231
     37  CA        31.2980   55.6600   35.3880 C.3   407  ARG407      0.1694
     38  C         30.5730   56.9590   35.0170 C.2   407  ARG407      0.2592
     39  O         31.2120   57.9350   34.6330 O.2   407  ARG407     -0.2718
     40  CB        31.0760   54.5710   34.3200 C.3   407  ARG407      0.0321
     41  CG        32.1540   54.5140   33.2550 C.3   407  ARG407      0.0489
     42  CD        31.9110   53.3820   32.2650 C.3   407  ARG407      0.2205
     43  NE        32.2340   52.0530   32.8030 N.pl3 407  ARG407     -0.0865
     44  CZ        32.0980   50.9020   32.1350 C.cat 407  ARG407      0.5346
     45  NH1       32.4150   49.7470   32.7140 N.pl3 407  ARG407      0.1354
     46  NH2       31.6370   50.8950   30.8890 N.pl3 407  ARG407      0.1354
     47  N         29.2510   56.9690   35.1870 N.am  408  TYR408     -0.1976
     48  CA        28.4150   58.1200   34.8050 C.3   408  TYR408      0.1639
     49  C         28.3930   59.2830   35.8000 C.2   408  TYR408      0.2290
     50  O         28.2280   60.4330   35.3850 O.2   408  TYR408     -0.2864
     51  CB        26.9890   57.6680   34.4450 C.3   408  TYR408      0.0560
     52  CG        26.9270   57.2840   32.9980 C.ar  408  TYR408     -0.0198
     53  CD1       27.5350   56.1140   32.5520 C.ar  408  TYR408     -0.0009
     54  CD2       26.3420   58.1280   32.0530 C.ar  408  TYR408     -0.0009
     55  CE1       27.5260   55.7690   31.2140 C.ar  408  TYR408      0.0417
     56  CE2       26.3270   57.7940   30.7060 C.ar  408  TYR408      0.0417
     57  CZ        26.9220   56.6140   30.2920 C.ar  408  TYR408      0.1957
     58  OH        26.9130   56.2710   28.9660 O.3   408  TYR408     -0.2866
     59  N         31.3550   61.2750   34.9020 N.3   411  LYS411     -0.1245
     60  CA        31.0960   62.0500   33.6810 C.3   411  LYS411      0.1561
     61  C         30.2880   63.3130   33.9680 C.2   411  LYS411      0.2260
     62  O         30.5830   64.3830   33.4330 O.2   411  LYS411     -0.2867
     63  CB        30.3330   61.2060   32.6550 C.3   411  LYS411      0.0271
     64  CG        31.1300   60.0860   32.0080 C.3   411  LYS411      0.0035
     65  CD        30.2050   59.1970   31.1820 C.3   411  LYS411      0.0206
     66  CE        30.8850   57.9290   30.6820 C.3   411  LYS411      0.1093
     67  NZ        31.9160   58.1810   29.6390 N.3   411  LYS411     -0.1314
     68  N         20.7930   51.2610   32.3610 N.3   427  LEU427     -0.1245
     69  CA        21.9200   50.8650   31.5150 C.3   427  LEU427      0.1561
     70  C         22.4110   49.4530   31.8430 C.2   427  LEU427      0.2260
     71  O         22.7040   48.6800   30.9450 O.2   427  LEU427     -0.2867
     72  CB        23.0680   51.8660   31.6490 C.3   427  LEU427      0.0270
     73  CG        22.8660   53.2530   31.0260 C.3   427  LEU427      0.0019
     74  CD1       23.8790   54.2480   31.5660 C.3   427  LEU427      0.0001
     75  CD2       22.9700   53.1970   29.5130 C.3   427  LEU427      0.0001
     76  N         20.7210   51.1140   24.7480 N.3   450  LEU450     -0.1245
     77  CA        21.4710   52.2630   25.2840 C.3   450  LEU450      0.1561
     78  C         20.8680   53.5930   24.8200 C.2   450  LEU450      0.2260
     79  O         20.7440   54.5190   25.6130 O.2   450  LEU450     -0.2867
     80  CB        22.9490   52.2030   24.8860 C.3   450  LEU450      0.0270
     81  CG        23.8120   51.1010   25.5200 C.3   450  LEU450      0.0019
     82  CD1       25.1330   50.9680   24.7770 C.3   450  LEU450      0.0001
     83  CD2       24.0660   51.3310   26.9920 C.3   450  LEU450      0.0001
     84  N         19.7500   56.5010   27.2200 N.3   454  LEU454     -0.1245
     85  CA        20.3550   57.8300   27.0850 C.3   454  LEU454      0.1561
     86  C         19.3380   58.9110   26.7260 C.2   454  LEU454      0.2260
     87  O         19.4820   60.0510   27.1660 O.2   454  LEU454     -0.2867
     88  CB        21.4810   57.8160   26.0570 C.3   454  LEU454      0.0270
     89  CG        22.6910   56.9450   26.4080 C.3   454  LEU454      0.0019
     90  CD1       23.5770   56.7870   25.1820 C.3   454  LEU454      0.0001
     91  CD2       23.4850   57.5250   27.5630 C.3   454  LEU454      0.0001
     92  N         25.5570   57.9700   21.6690 N.3   482  ARG482     -0.1245
     93  CA        26.1900   56.9380   22.4830 C.3   482  ARG482      0.1563
     94  C         27.7180   57.0770   22.4800 C.2   482  ARG482      0.2260
     95  O         28.3190   57.0320   23.5450 O.2   482  ARG482     -0.2867
     96  CB        25.7060   55.5400   22.0820 C.3   482  ARG482      0.0307
     97  CG        25.9780   54.4320   23.0960 C.3   482  ARG482      0.0489
     98  CD        27.4180   53.9340   23.0950 C.3   482  ARG482      0.2205
     99  NE        27.9190   53.6780   21.7440 N.pl3 482  ARG482     -0.0865
    100  CZ        29.1980   53.7070   21.3590 C.cat 482  ARG482      0.5346
    101  NH1       30.1800   54.0050   22.2150 N.pl3 482  ARG482      0.1354
    102  NH2       29.5000   53.4460   20.0850 N.pl3 482  ARG482      0.1354
    103  N         28.5810   60.2820   24.7620 N.3   485  PHE485     -0.1227
    104  CA        28.5530   59.9590   26.1990 C.3   485  PHE485      0.1736
    105  C         29.7320   59.0910   26.6280 C.2   485  PHE485      0.2596
    106  O         30.2820   59.2930   27.7050 O.2   485  PHE485     -0.2718
    107  CB        27.2430   59.2680   26.6000 C.3   485  PHE485      0.0547
    108  CG        26.1160   60.2170   26.8910 C.ar  485  PHE485     -0.0202
    109  CD1       25.9690   60.7690   28.1600 C.ar  485  PHE485     -0.0042
    110  CD2       25.1980   60.5600   25.9040 C.ar  485  PHE485     -0.0042
    111  CE1       24.9300   61.6370   28.4360 C.ar  485  PHE485     -0.0003
    112  CE2       24.1590   61.4280   26.1740 C.ar  485  PHE485     -0.0003
    113  CZ        24.0260   61.9720   27.4400 C.ar  485  PHE485     -0.0000
    114  N         30.0970   58.1170   25.7990 N.am  486  SER486     -0.1952
    115  CA        31.2680   57.2690   26.0440 C.3   486  SER486      0.1924
    116  C         32.5630   58.0780   26.1300 C.2   486  SER486      0.2314
    117  O         33.4300   57.7830   26.9530 O.2   486  SER486     -0.2863
    118  CB        31.4000   56.2150   24.9410 C.3   486  SER486      0.2116
    119  OG        30.4590   55.1700   25.1120 O.3   486  SER486     -0.2180
@<TRIPOS>BOND
     1   102   100    1
     2   100    99    2
     3   100   101    1
     4    92    93    1
     5    99    98    1
     6    96    93    1
     7    96    97    1
     8    94    93    1
     9    94    95    2
    10     1     2    1
    11    98    97    1
    12     7     6    1
    13     6     5    1
    14     6     8    1
    15     5     2    1
    16     2     3    1
    17     3     4    2
    18    76    77    1
    19   103   104    1
    20    82    81    1
    21    78    77    1
    22    78    79    2
    23    80    77    1
    24    80    81    1
    25   118   119    1
    26   118   115    1
    27    90    89    1
    28    81    83    1
    29   114   115    1
    30   114   105   am
    31   110   112   ar
    32   110   108   ar
    33   115   116    1
    34    88    89    1
    35    88    85    1
    36   116   117    2
    37   112   113   ar
    38   104   107    1
    39   104   105    1
    40    89    91    1
    41   107   108    1
    42   105   106    2
    43    86    85    1
    44    86    87    2
    45   108   109   ar
    46    85    84    1
    47   113   111   ar
    48     9    10    1
    49   109   111   ar
    50    15    14    2
    51    13    14    1
    52    13    10    1
    53    14    16   am
    54    58    57    1
    55    10    11    1
    56    11    12    2
    57    75    73    1
    58    67    66    1
    59    57    56   ar
    60    57    55   ar
    61    66    65    1
    62    56    54   ar
    63    46    44    1
    64    71    70    2
    65    73    74    1
    66    73    72    1
    67    65    64    1
    68    55    53   ar
    69    69    72    1
    70    69    70    1
    71    69    68    1
    72    27    26   ar
    73    27    25   ar
    74    64    63    1
    75    54    52   ar
    76    44    45    1
    77    44    43    2
    78    26    24   ar
    79    42    43    1
    80    42    41    1
    81    25    23   ar
    82    35    33    1
    83    53    52   ar
    84    63    60    1
    85    52    51    1
    86    34    33    1
    87    41    40    1
    88    62    61    2
    89    24    22   ar
    90    33    32    1
    91    23    22   ar
    92    60    61    1
    93    60    59    1
    94    22    21    1
    95    40    37    1
    96    51    48    1
    97    32    29    1
    98    39    38    2
    99    48    47    1
   100    48    49    1
   101    38    47   am
   102    38    37    1
   103    50    49    2
   104    37    36    1
   105    29    30    1
   106    29    28    1
   107    21    18    1
   108    31    30    2
   109    20    19    2
   110    18    19    1
   111    18    17    1
