@<TRIPOS>MOLECULE
tmp/5v0wB01.pdb
 242 235 0 0 0
SMALL
GASTEIGER

@<TRIPOS>ATOM
      1  N          7.4370  -38.1970  -65.1580 N.3    70  TYR70      -0.1227
      2  CA         7.6350  -38.4090  -63.7260 C.3    70  TYR70       0.1736
      3  C          8.1210  -37.1120  -63.0620 C.2    70  TYR70       0.2595
      4  O          7.9190  -36.0120  -63.5880 O.2    70  TYR70      -0.2718
      5  CB         8.5690  -39.6060  -63.4980 C.3    70  TYR70       0.0548
      6  CG         8.4630  -40.2220  -62.1240 C.ar   70  TYR70      -0.0200
      7  CD1        7.2190  -40.5390  -61.5720 C.ar   70  TYR70      -0.0009
      8  CD2        9.5940  -40.4950  -61.3780 C.ar   70  TYR70      -0.0009
      9  CE1        7.1160  -41.1010  -60.3130 C.ar   70  TYR70       0.0417
     10  CE2        9.5040  -41.0640  -60.1160 C.ar   70  TYR70       0.0417
     11  CZ         8.2550  -41.3660  -59.5870 C.ar   70  TYR70       0.1957
     12  OH         8.1710  -41.9270  -58.3330 O.3    70  TYR70      -0.2866
     13  N          8.7760  -37.2350  -61.9010 N.am   71  VAL71      -0.1966
     14  CA         9.0360  -36.0930  -61.0240 C.3    71  VAL71       0.1727
     15  C          9.9580  -35.0880  -61.6960 C.2    71  VAL71       0.2616
     16  O         11.0000  -35.4550  -62.2550 O.2    71  VAL71      -0.2715
     17  CB         9.6510  -36.5800  -59.7030 C.3    71  VAL71       0.0290
     18  CG1        9.9450  -35.3920  -58.7900 C.3    71  VAL71       0.0023
     19  CG2        8.7380  -37.5910  -59.0240 C.3    71  VAL71       0.0023
     20  N          9.6060  -33.8060  -61.6020 N.am   72  GLU72      -0.1963
     21  CA        10.4860  -32.7210  -62.0030 C.3    72  GLU72       0.1733
     22  C         10.8840  -31.8890  -60.7890 C.2    72  GLU72       0.2616
     23  O         10.2300  -31.9200  -59.7440 O.2    72  GLU72      -0.2715
     24  CB         9.8240  -31.8170  -63.0580 C.3    72  GLU72       0.0429
     25  CG         9.5530  -32.5510  -64.3810 C.3    72  GLU72       0.1163
     26  CD         8.8330  -31.6920  -65.4170 C.2    72  GLU72       0.3649
     27  OE1        8.7350  -30.4630  -65.2260 O.co2  72  GLU72      -0.2457
     28  OE2        8.3670  -32.2540  -66.4280 O.co2  72  GLU72      -0.2457
     29  N         11.9760  -31.1420  -60.9310 N.am   73  ASP73      -0.1971
     30  CA        12.2980  -30.1850  -59.8910 C.3    73  ASP73       0.1709
     31  C         11.2710  -29.0530  -59.9120 C.2    73  ASP73       0.2293
     32  O         10.4560  -28.9290  -60.8350 O.2    73  ASP73      -0.2864
     33  CB        13.7120  -29.6370  -60.0720 C.3    73  ASP73       0.1436
     34  CG        13.8200  -28.6940  -61.2470 C.2    73  ASP73       0.3671
     35  OD1       13.5830  -29.1360  -62.3900 O.co2  73  ASP73      -0.2456
     36  OD2       14.1190  -27.4990  -61.0220 O.co2  73  ASP73      -0.2456
     37  N         14.7290  -30.1300  -64.6720 N.3    78  PHE78      -0.1241
     38  CA        15.1740  -31.5190  -64.6170 C.3    78  PHE78       0.1605
     39  C         13.9830  -32.4430  -64.3990 C.2    78  PHE78       0.2264
     40  O         13.0200  -32.0830  -63.7150 O.2    78  PHE78      -0.2867
     41  CB        16.1700  -31.7690  -63.4790 C.3    78  PHE78       0.0534
     42  CG        17.2850  -30.7730  -63.4250 C.ar   78  PHE78      -0.0203
     43  CD1       18.3000  -30.7980  -64.3670 C.ar   78  PHE78      -0.0042
     44  CD2       17.3100  -29.7960  -62.4440 C.ar   78  PHE78      -0.0042
     45  CE1       19.3390  -29.8650  -64.3300 C.ar   78  PHE78      -0.0003
     46  CE2       18.3440  -28.8620  -62.3970 C.ar   78  PHE78      -0.0003
     47  CZ        19.3570  -28.8970  -63.3430 C.ar   78  PHE78      -0.0000
     48  N         13.3100  -36.7500  -63.4700 N.3    80  PHE80      -0.1241
     49  CA        13.9210  -38.0440  -63.1820 C.3    80  PHE80       0.1605
     50  C         13.8650  -38.9430  -64.4080 C.2    80  PHE80       0.2264
     51  O         12.8790  -38.9530  -65.1470 O.2    80  PHE80      -0.2867
     52  CB        13.2270  -38.7620  -62.0210 C.3    80  PHE80       0.0534
     53  CG        13.5800  -38.2350  -60.6520 C.ar   80  PHE80      -0.0203
     54  CD1       14.7700  -37.5520  -60.4210 C.ar   80  PHE80      -0.0042
     55  CD2       12.7030  -38.4340  -59.5830 C.ar   80  PHE80      -0.0042
     56  CE1       15.0820  -37.0730  -59.1510 C.ar   80  PHE80      -0.0003
     57  CE2       13.0060  -37.9670  -58.3100 C.ar   80  PHE80      -0.0003
     58  CZ        14.1960  -37.2840  -58.0910 C.ar   80  PHE80      -0.0000
     59  N         14.8210  -42.6020  -64.4300 N.3    82  TYR82      -0.1241
     60  CA        15.1450  -43.9550  -63.9870 C.3    82  TYR82       0.1605
     61  C         15.3360  -44.8500  -65.2000 C.2    82  TYR82       0.2264
     62  O         14.5160  -44.8340  -66.1250 O.2    82  TYR82      -0.2867
     63  CB        14.0140  -44.5290  -63.1180 C.3    82  TYR82       0.0534
     64  CG        13.8310  -43.9170  -61.7440 C.ar   82  TYR82      -0.0201
     65  CD1       13.0200  -42.8020  -61.5570 C.ar   82  TYR82      -0.0009
     66  CD2       14.4380  -44.4770  -60.6290 C.ar   82  TYR82      -0.0009
     67  CE1       12.8350  -42.2470  -60.2870 C.ar   82  TYR82       0.0417
     68  CE2       14.2530  -43.9300  -59.3570 C.ar   82  TYR82       0.0417
     69  CZ        13.4560  -42.8130  -59.1980 C.ar   82  TYR82       0.1957
     70  OH        13.2580  -42.2690  -57.9440 O.3    82  TYR82      -0.2866
     71  N          5.4240  -48.0020  -51.2380 N.3   135  VAL135     -0.1231
     72  CA         4.7450  -47.5110  -52.4410 C.3   135  VAL135      0.1692
     73  C          5.6160  -46.4830  -53.1490 C.2   135  VAL135      0.2592
     74  O          6.1770  -45.5870  -52.5060 O.2   135  VAL135     -0.2718
     75  CB         3.3780  -46.8970  -52.0940 C.3   135  VAL135      0.0266
     76  CG1        2.7300  -46.2790  -53.3640 C.3   135  VAL135      0.0020
     77  CG2        2.4380  -47.9510  -51.4120 C.3   135  VAL135      0.0020
     78  N          5.7090  -46.5920  -54.4770 N.am  136  ASN136     -0.1974
     79  CA         6.6450  -45.7860  -55.2550 C.3   136  ASN136      0.1688
     80  C          6.1730  -45.7270  -56.7030 C.2   136  ASN136      0.2292
     81  O          5.3680  -46.5490  -57.1510 O.2   136  ASN136     -0.2864
     82  CB         8.0770  -46.3530  -55.1700 C.3   136  ASN136      0.1181
     83  CG         9.1430  -45.2710  -55.1940 C.2   136  ASN136      0.2629
     84  OD1        8.9280  -44.1840  -55.7310 O.2   136  ASN136     -0.2716
     85  ND2       10.3090  -45.5670  -54.6070 N.am  136  ASN136     -0.0877
     86  N          7.1130  -42.0240  -49.5230 N.3   172  THR172     -0.1203
     87  CA         7.6980  -40.6920  -49.4850 C.3   172  THR172      0.1994
     88  C          7.1130  -39.8540  -50.6120 C.2   172  THR172      0.2618
     89  O          6.6580  -40.3790  -51.6360 O.2   172  THR172     -0.2717
     90  CB         9.2410  -40.7360  -49.6240 C.3   172  THR172      0.1784
     91  OG1        9.6050  -41.4040  -50.8450 O.3   172  THR172     -0.2211
     92  CG2        9.8680  -41.4550  -48.4510 C.3   172  THR172      0.0376
     93  N          7.1450  -38.5330  -50.4240 N.am  173  ALA173     -0.1965
     94  CA         6.7560  -37.6170  -51.4840 C.3   173  ALA173      0.1728
     95  C          7.3180  -36.2420  -51.1650 C.2   173  ALA173      0.2616
     96  O          7.5710  -35.9110  -50.0050 O.2   173  ALA173     -0.2715
     97  CB         5.2280  -37.5440  -51.6470 C.3   173  ALA173      0.0334
     98  N          7.5000  -35.4380  -52.2200 N.am  174  GLY174     -0.1955
     99  CA         7.8890  -34.0470  -52.0320 C.3   174  GLY174      0.1869
    100  C          6.7510  -33.1440  -51.5980 C.2   174  GLY174      0.2309
    101  O          6.9730  -32.1750  -50.8650 O.2   174  GLY174     -0.2863
    102  N         17.0010  -32.4310  -48.7120 N.3   186  TYR186     -0.1227
    103  CA        18.0990  -32.9940  -49.4890 C.3   186  TYR186      0.1736
    104  C         19.2130  -31.9760  -49.7160 C.2   186  TYR186      0.2595
    105  O         18.9900  -30.7620  -49.7320 O.2   186  TYR186     -0.2718
    106  CB        17.6230  -33.5460  -50.8390 C.3   186  TYR186      0.0548
    107  CG        16.4210  -32.8610  -51.4730 C.ar  186  TYR186     -0.0200
    108  CD1       15.1270  -33.2980  -51.2030 C.ar  186  TYR186     -0.0009
    109  CD2       16.5810  -31.7930  -52.3500 C.ar  186  TYR186     -0.0009
    110  CE1       14.0330  -32.7020  -51.7890 C.ar  186  TYR186      0.0417
    111  CE2       15.4860  -31.1830  -52.9420 C.ar  186  TYR186      0.0417
    112  CZ        14.2160  -31.6440  -52.6570 C.ar  186  TYR186      0.1957
    113  OH        13.1270  -31.0410  -53.2400 O.3   186  TYR186     -0.2866
    114  N         20.4210  -32.5120  -49.8950 N.am  187  TYR187     -0.1962
    115  CA        21.6620  -31.7680  -50.0460 C.3   187  TYR187      0.1771
    116  C         22.4520  -32.3540  -51.2100 C.2   187  TYR187      0.2619
    117  O         22.3300  -33.5440  -51.5260 O.2   187  TYR187     -0.2715
    118  CB        22.5110  -31.8240  -48.7670 C.3   187  TYR187      0.0574
    119  CG        21.9950  -30.9700  -47.6290 C.ar  187  TYR187     -0.0198
    120  CD1       20.8440  -31.3160  -46.9230 C.ar  187  TYR187     -0.0009
    121  CD2       22.6850  -29.8280  -47.2420 C.ar  187  TYR187     -0.0009
    122  CE1       20.3820  -30.5200  -45.8650 C.ar  187  TYR187      0.0417
    123  CE2       22.2320  -29.0360  -46.2030 C.ar  187  TYR187      0.0417
    124  CZ        21.0900  -29.3790  -45.5210 C.ar  187  TYR187      0.1957
    125  OH        20.6830  -28.5680  -44.4790 O.3   187  TYR187     -0.2866
    126  N         23.2940  -31.5230  -51.8240 N.am  188  HIS188     -0.1973
    127  CA        23.9930  -31.8940  -53.0520 C.3   188  HIS188      0.1656
    128  C         25.4720  -31.5640  -52.9400 C.2   188  HIS188      0.2291
    129  O         25.8350  -30.4350  -52.5950 O.2   188  HIS188     -0.2864
    130  CB        23.3990  -31.1560  -54.2590 C.3   188  HIS188      0.0771
    131  CG        21.9040  -31.1710  -54.2990 C.ar  188  HIS188      0.0820
    132  ND1       21.1870  -32.3030  -54.6150 N.ar  188  HIS188     -0.2267
    133  CD2       20.9910  -30.1880  -54.0900 C.ar  188  HIS188      0.1154
    134  CE1       19.8920  -32.0230  -54.5830 C.ar  188  HIS188      0.1986
    135  NE2       19.7480  -30.7460  -54.2720 N.ar  188  HIS188     -0.2212
    136  N         22.3760  -26.0070  -62.3130 N.3   201  PHE201     -0.1241
    137  CA        22.1720  -26.7280  -61.0680 C.3   201  PHE201      0.1605
    138  C         22.8650  -26.0220  -59.9100 C.2   201  PHE201      0.2264
    139  O         22.3280  -25.9770  -58.7990 O.2   201  PHE201     -0.2867
    140  CB        22.6700  -28.1630  -61.2200 C.3   201  PHE201      0.0534
    141  CG        22.3790  -29.0390  -60.0350 C.ar  201  PHE201     -0.0203
    142  CD1       21.1950  -29.7630  -59.9620 C.ar  201  PHE201     -0.0042
    143  CD2       23.2770  -29.1310  -58.9880 C.ar  201  PHE201     -0.0042
    144  CE1       20.9290  -30.5720  -58.8650 C.ar  201  PHE201     -0.0003
    145  CE2       23.0180  -29.9380  -57.8910 C.ar  201  PHE201     -0.0003
    146  CZ        21.8400  -30.6560  -57.8310 C.ar  201  PHE201     -0.0000
    147  N         22.9600  -45.3430  -55.2230 N.3   290  TYR290     -0.1241
    148  CA        22.3170  -45.7630  -56.4620 C.3   290  TYR290      0.1605
    149  C         22.3440  -44.6540  -57.5110 C.2   290  TYR290      0.2264
    150  O         22.5140  -43.4690  -57.1970 O.2   290  TYR290     -0.2867
    151  CB        20.8790  -46.2300  -56.2050 C.3   290  TYR290      0.0534
    152  CG        19.9150  -45.2170  -55.6170 C.ar  290  TYR290     -0.0201
    153  CD1       19.1440  -44.4030  -56.4440 C.ar  290  TYR290     -0.0009
    154  CD2       19.7290  -45.1190  -54.2350 C.ar  290  TYR290     -0.0009
    155  CE1       18.2170  -43.4970  -55.9130 C.ar  290  TYR290      0.0417
    156  CE2       18.8000  -44.2170  -53.6930 C.ar  290  TYR290      0.0417
    157  CZ        18.0520  -43.4110  -54.5440 C.ar  290  TYR290      0.1957
    158  OH        17.1390  -42.5080  -54.0240 O.3   290  TYR290     -0.2866
    159  N         20.6250  -42.4590  -60.3290 N.3   292  LEU292     -0.1245
    160  CA        19.3440  -41.9030  -60.7620 C.3   292  LEU292      0.1561
    161  C         19.6520  -40.6440  -61.5440 C.2   292  LEU292      0.2260
    162  O         19.8300  -39.5580  -60.9730 O.2   292  LEU292     -0.2867
    163  CB        18.4240  -41.6160  -59.5760 C.3   292  LEU292      0.0270
    164  CG        17.1510  -40.8170  -59.9150 C.3   292  LEU292      0.0019
    165  CD1       16.4140  -41.4570  -61.0930 C.3   292  LEU292      0.0001
    166  CD2       16.2590  -40.7180  -58.6790 C.3   292  LEU292      0.0001
    167  N         18.9370  -37.4300  -64.0700 N.3   294  SER294     -0.1217
    168  CA        17.8220  -36.5490  -64.4150 C.3   294  SER294      0.1889
    169  C         18.0120  -36.0380  -65.8300 C.2   294  SER294      0.2288
    170  O         19.0890  -35.5490  -66.1840 O.2   294  SER294     -0.2866
    171  CB        17.6830  -35.3620  -63.4540 C.3   294  SER294      0.2089
    172  OG        17.2280  -35.8120  -62.1930 O.3   294  SER294     -0.2183
    173  N         21.8350  -35.2330  -66.3060 N.3   305  LEU305     -0.1245
    174  CA        22.6180  -35.0250  -65.0980 C.3   305  LEU305      0.1561
    175  C         22.8060  -36.3850  -64.4360 C.2   305  LEU305      0.2260
    176  O         21.8220  -37.0270  -64.0540 O.2   305  LEU305     -0.2867
    177  CB        21.8960  -34.0640  -64.1550 C.3   305  LEU305      0.0270
    178  CG        22.4340  -34.0510  -62.7310 C.3   305  LEU305      0.0019
    179  CD1       23.7160  -33.2540  -62.6970 C.3   305  LEU305      0.0001
    180  CD2       21.4190  -33.4840  -61.7710 C.3   305  LEU305      0.0001
    181  N         23.5930  -38.4770  -61.4700 N.3   307  ALA307     -0.1245
    182  CA        23.6160  -38.2620  -60.0310 C.3   307  ALA307      0.1562
    183  C         23.7180  -39.5820  -59.2780 C.2   307  ALA307      0.2260
    184  O         23.0470  -40.5560  -59.6220 O.2   307  ALA307     -0.2867
    185  CB        22.3570  -37.5130  -59.5860 C.3   307  ALA307      0.0290
    186  N         22.9980  -41.2290  -55.5480 N.3   309  TYR309     -0.1241
    187  CA        22.1870  -41.0000  -54.3590 C.3   309  TYR309      0.1605
    188  C         22.6980  -41.8650  -53.2200 C.2   309  TYR309      0.2264
    189  O         22.6890  -43.0990  -53.3180 O.2   309  TYR309     -0.2867
    190  CB        20.7090  -41.2980  -54.6290 C.3   309  TYR309      0.0534
    191  CG        20.0390  -40.2290  -55.4630 C.ar  309  TYR309     -0.0201
    192  CD1       20.3780  -40.0390  -56.7960 C.ar  309  TYR309     -0.0009
    193  CD2       19.0530  -39.4130  -54.9080 C.ar  309  TYR309     -0.0009
    194  CE1       19.7700  -39.0450  -57.5610 C.ar  309  TYR309      0.0417
    195  CE2       18.4330  -38.4210  -55.6650 C.ar  309  TYR309      0.0417
    196  CZ        18.7940  -38.2430  -56.9850 C.ar  309  TYR309      0.1957
    197  OH        18.1800  -37.2450  -57.7190 O.3   309  TYR309     -0.2866
    198  N         24.1790  -36.9180  -54.0050 N.3   340  ASN340     -0.1225
    199  CA        22.9700  -36.4240  -53.3510 C.3   340  ASN340      0.1785
    200  C         22.7050  -37.1980  -52.0660 C.2   340  ASN340      0.2597
    201  O         22.8700  -38.4210  -52.0300 O.2   340  ASN340     -0.2718
    202  CB        21.7530  -36.5700  -54.2800 C.3   340  ASN340      0.1169
    203  CG        21.8090  -35.6310  -55.4800 C.2   340  ASN340      0.2627
    204  OD1       22.4570  -34.5920  -55.4380 O.2   340  ASN340     -0.2716
    205  ND2       21.0920  -35.9820  -56.5430 N.am  340  ASN340     -0.0877
    206  N         22.2660  -36.4950  -51.0160 N.am  341  ALA341     -0.1966
    207  CA        21.9470  -37.1660  -49.7620 C.3   341  ALA341      0.1728
    208  C         20.8590  -36.4060  -49.0100 C.2   341  ALA341      0.2616
    209  O         20.7550  -35.1800  -49.1000 O.2   341  ALA341     -0.2715
    210  CB        23.1860  -37.3170  -48.8570 C.3   341  ALA341      0.0334
    211  N         20.0640  -37.1610  -48.2500 N.am  342  LEU342     -0.1977
    212  CA        19.0660  -36.6310  -47.3260 C.3   342  LEU342      0.1596
    213  C         19.6700  -36.4670  -45.9340 C.2   342  LEU342      0.2287
    214  O         20.6250  -37.1570  -45.5680 O.2   342  LEU342     -0.2864
    215  CB        17.8590  -37.5770  -47.2480 C.3   342  LEU342      0.0297
    216  CG        17.0760  -37.7480  -48.5480 C.3   342  LEU342      0.0022
    217  CD1       16.2780  -39.0350  -48.5550 C.3   342  LEU342      0.0001
    218  CD2       16.1540  -36.5500  -48.7510 C.3   342  LEU342      0.0001
    219  N         11.9800  -34.0820  -48.6750 N.3   363  LEU363     -0.1245
    220  CA        11.2510  -35.3200  -48.9110 C.3   363  LEU363      0.1561
    221  C         10.5460  -35.7190  -47.6220 C.2   363  LEU363      0.2260
    222  O         11.1890  -35.8540  -46.5740 O.2   363  LEU363     -0.2867
    223  CB        12.2070  -36.4160  -49.3760 C.3   363  LEU363      0.0270
    224  CG        11.5920  -37.7140  -49.9040 C.3   363  LEU363      0.0019
    225  CD1       10.8670  -37.4980  -51.2330 C.3   363  LEU363      0.0001
    226  CD2       12.7150  -38.7520  -50.0630 C.3   363  LEU363      0.0001
    227  N         14.0410  -44.5690  -49.5540 N.3   384  LEU384     -0.1231
    228  CA        13.2170  -45.0860  -50.6450 C.3   384  LEU384      0.1693
    229  C         13.7430  -44.5590  -51.9770 C.2   384  LEU384      0.2591
    230  O         14.1890  -43.4120  -52.0740 O.2   384  LEU384     -0.2718
    231  CB        11.7390  -44.6940  -50.4850 C.3   384  LEU384      0.0284
    232  CG        10.8520  -45.5220  -49.5580 C.3   384  LEU384      0.0019
    233  CD1       11.3050  -45.4080  -48.1190 C.3   384  LEU384      0.0001
    234  CD2        9.3880  -45.1230  -49.6810 C.3   384  LEU384      0.0001
    235  N         13.6870  -45.4000  -53.0030 N.am  385  LEU385     -0.1980
    236  CA        14.3370  -45.0940  -54.2800 C.3   385  LEU385      0.1596
    237  C         13.6750  -43.9360  -55.0340 C.2   385  LEU385      0.2287
    238  O         12.4870  -43.6390  -54.8340 O.2   385  LEU385     -0.2864
    239  CB        14.3550  -46.3420  -55.1620 C.3   385  LEU385      0.0297
    240  CG        14.9640  -47.5370  -54.4260 C.3   385  LEU385      0.0022
    241  CD1       14.7830  -48.8100  -55.2330 C.3   385  LEU385      0.0001
    242  CD2       16.4400  -47.2880  -54.1580 C.3   385  LEU385      0.0001
@<TRIPOS>BOND
     1    28    26   ar
     2   173   174    1
     3   170   169    2
     4    62    61    2
     5   169   168    1
     6    26    27   ar
     7    26    25    1
     8    61    60    1
     9     1     2    1
    10    51    50    2
    11   174   175    1
    12   174   177    1
    13    37    38    1
    14    38    39    1
    15    38    41    1
    16   175   176    2
    17    59    60    1
    18   168   167    1
    19   168   171    1
    20    50    49    1
    21    39    40    2
    22    25    24    1
    23    43    45   ar
    24    43    42   ar
    25    45    47   ar
    26   177   178    1
    27    60    63    1
    28     2     5    1
    29     2     3    1
    30     4     3    2
    31     5     6    1
    32    41    42    1
    33    48    49    1
    34   171   172    1
    35    42    44   ar
    36    47    46   ar
    37    49    52    1
    38    63    64    1
    39     3    13   am
    40    24    21    1
    41   178   179    1
    42   178   180    1
    43    44    46   ar
    44    35    34   ar
    45   136   137    1
    46    16    15    2
    47     6     7   ar
    48     6     8   ar
    49    52    53    1
    50    21    20    1
    51    21    22    1
    52    13    14    1
    53    64    65   ar
    54    64    66   ar
    55    15    20   am
    56    15    14    1
    57     7     9   ar
    58    65    67   ar
    59   161   162    2
    60   161   160    1
    61   181   182    1
    62     8    10   ar
    63    34    36   ar
    64    34    33    1
    65   140   137    1
    66   140   141    1
    67   165   164    1
    68   137   138    1
    69    14    17    1
    70    29    22   am
    71    29    30    1
    72    32    31    2
    73    22    23    2
    74   160   159    1
    75   160   163    1
    76    53    54   ar
    77    53    55   ar
    78    66    68   ar
    79    54    56   ar
    80     9    11   ar
    81    67    69   ar
    82    10    11   ar
    83    33    30    1
    84   141   142   ar
    85   141   143   ar
    86   182   185    1
    87   182   183    1
    88   142   144   ar
    89   164   163    1
    90   164   166    1
    91    31    30    1
    92   138   139    2
    93    17    19    1
    94    17    18    1
    95   184   183    2
    96    11    12    1
    97    55    57   ar
    98    68    69   ar
    99    69    70    1
   100    56    58   ar
   101   143   145   ar
   102   144   146   ar
   103    57    58   ar
   104   145   146   ar
   105   197   196    1
   106   194   196   ar
   107   194   192   ar
   108   149   150    2
   109   149   148    1
   110    81    80    2
   111   196   195   ar
   112   192   191   ar
   113    80    79    1
   114   205   203   am
   115   148   151    1
   116   148   147    1
   117   153   155   ar
   118   153   152   ar
   119   151   152    1
   120   155   157   ar
   121    84    83    2
   122   195   193   ar
   123   152   154   ar
   124   186   187    1
   125   203   204    2
   126   203   202    1
   127   191   193   ar
   128   191   190    1
   129    79    82    1
   130    79    78    1
   131   241   240    1
   132    83    82    1
   133    83    85   am
   134   239   240    1
   135   239   236    1
   136   237   238    2
   137   237   236    1
   138   190   187    1
   139   132   134   ar
   140   132   131   ar
   141   134   135   ar
   142   157   158    1
   143   157   156   ar
   144    78    73   am
   145   240   242    1
   146   187   188    1
   147   131   130    1
   148   131   133   ar
   149   202   199    1
   150   236   235    1
   151   135   133   ar
   152   130   127    1
   153   154   156   ar
   154   198   199    1
   155    76    75    1
   156   199   200    1
   157   189   188    2
   158   113   112    1
   159    73    74    2
   160    73    72    1
   161   127   128    1
   162   127   126    1
   163   235   229   am
   164   111   112   ar
   165   111   109   ar
   166   128   129    2
   167   112   110   ar
   168    72    75    1
   169    72    71    1
   170   109   107   ar
   171    98    99    1
   172    98    95   am
   173    75    77    1
   174   230   229    2
   175   200   201    2
   176   200   206   am
   177    99   100    1
   178   229   228    1
   179   126   116   am
   180   110   108   ar
   181    97    94    1
   182    89    88    2
   183   100   101    2
   184   117   116    2
   185    94    95    1
   186    94    93    1
   187   107   108   ar
   188   107   106    1
   189   225   224    1
   190   116   115    1
   191    95    96    2
   192   206   207    1
   193    91    90    1
   194   106   103    1
   195   228   231    1
   196   228   227    1
   197    88    93   am
   198    88    87    1
   199   231   232    1
   200   226   224    1
   201   115   114    1
   202   115   118    1
   203   224   223    1
   204   114   104   am
   205   207   208    1
   206   207   210    1
   207   105   104    2
   208   104   103    1
   209   234   232    1
   210    90    87    1
   211    90    92    1
   212   232   233    1
   213    86    87    1
   214   103   102    1
   215   223   220    1
   216   209   208    2
   217   208   211   am
   218   220   219    1
   219   220   221    1
   220   118   119    1
   221   218   216    1
   222   217   216    1
   223   216   215    1
   224   211   212    1
   225   119   121   ar
   226   119   120   ar
   227   221   222    2
   228   212   215    1
   229   212   213    1
   230   121   123   ar
   231   120   122   ar
   232   123   124   ar
   233   213   214    2
   234   122   124   ar
   235   124   125    1
