@<TRIPOS>MOLECULE
tmp/5v0xB01.pdb
 243 235 0 0 0
SMALL
GASTEIGER

@<TRIPOS>ATOM
      1  N          7.2670  -37.9240  -63.9900 N.3    70  TYR70      -0.1227
      2  CA         7.4910  -38.1810  -62.5770 C.3    70  TYR70       0.1736
      3  C          8.0080  -36.9010  -61.9230 C.2    70  TYR70       0.2595
      4  O          7.8020  -35.8000  -62.4450 O.2    70  TYR70      -0.2718
      5  CB         8.3940  -39.3990  -62.4000 C.3    70  TYR70       0.0548
      6  CG         8.2980  -40.0120  -61.0360 C.ar   70  TYR70      -0.0200
      7  CD1        7.0530  -40.2220  -60.4240 C.ar   70  TYR70      -0.0009
      8  CD2        9.4470  -40.3660  -60.3410 C.ar   70  TYR70      -0.0009
      9  CE1        6.9730  -40.7870  -59.1590 C.ar   70  TYR70       0.0417
     10  CE2        9.3740  -40.9290  -59.0830 C.ar   70  TYR70       0.0417
     11  CZ         8.1430  -41.1380  -58.4960 C.ar   70  TYR70       0.1957
     12  OH         8.1040  -41.6930  -57.2420 O.3    70  TYR70      -0.2866
     13  N          8.6650  -37.0250  -60.7720 N.am   71  VAL71      -0.1966
     14  CA         8.8780  -35.8780  -59.8970 C.3    71  VAL71       0.1727
     15  C          9.8150  -34.8690  -60.5480 C.2    71  VAL71       0.2616
     16  O         10.8720  -35.2240  -61.0850 O.2    71  VAL71      -0.2715
     17  CB         9.4280  -36.3350  -58.5390 C.3    71  VAL71       0.0290
     18  CG1        9.5400  -35.1430  -57.5890 C.3    71  VAL71       0.0023
     19  CG2        8.5580  -37.4410  -57.9550 C.3    71  VAL71       0.0023
     20  N          9.4380  -33.6010  -60.4850 N.am   72  GLU72      -0.1963
     21  CA        10.3260  -32.5030  -60.8270 C.3    72  GLU72       0.1733
     22  C         10.6900  -31.7590  -59.5510 C.2    72  GLU72       0.2616
     23  O          9.9350  -31.7800  -58.5760 O.2    72  GLU72      -0.2715
     24  CB         9.6690  -31.5520  -61.8390 C.3    72  GLU72       0.0429
     25  CG         9.0160  -32.3090  -63.0150 C.3    72  GLU72       0.1163
     26  CD         8.6260  -31.4150  -64.1870 C.2    72  GLU72       0.3649
     27  OE1        8.6440  -30.1700  -64.0510 O.co2  72  GLU72      -0.2457
     28  OE2        8.3180  -31.9630  -65.2610 O.co2  72  GLU72      -0.2457
     29  N         11.8500  -31.1040  -59.5550 N.am   73  ASP73      -0.1971
     30  CA        12.2060  -30.2710  -58.4170 C.3    73  ASP73       0.1709
     31  C         11.2820  -29.0560  -58.3540 C.2    73  ASP73       0.2293
     32  O         10.4910  -28.7940  -59.2670 O.2    73  ASP73      -0.2864
     33  CB        13.6600  -29.8110  -58.5030 C.3    73  ASP73       0.1436
     34  CG        13.8970  -28.9000  -59.6710 C.2    73  ASP73       0.3671
     35  OD1       13.5740  -29.3220  -60.8020 O.co2  73  ASP73      -0.2456
     36  OD2       14.3550  -27.7560  -59.4630 O.co2  73  ASP73      -0.2456
     37  N         14.7640  -29.9410  -63.1450 N.3    78  PHE78      -0.1227
     38  CA        15.0620  -31.3580  -63.2710 C.3    78  PHE78       0.1736
     39  C         13.7710  -32.1640  -63.3030 C.2    78  PHE78       0.2595
     40  O         12.7140  -31.6970  -62.8710 O.2    78  PHE78      -0.2718
     41  CB        15.9080  -31.8700  -62.0920 C.3    78  PHE78       0.0547
     42  CG        17.2230  -31.1560  -61.9060 C.ar   78  PHE78      -0.0202
     43  CD1       18.2530  -31.3130  -62.8240 C.ar   78  PHE78      -0.0042
     44  CD2       17.4480  -30.3760  -60.7830 C.ar   78  PHE78      -0.0042
     45  CE1       19.4890  -30.6780  -62.6360 C.ar   78  PHE78      -0.0003
     46  CE2       18.6850  -29.7290  -60.5870 C.ar   78  PHE78      -0.0003
     47  CZ        19.6950  -29.8830  -61.5110 C.ar   78  PHE78      -0.0000
     48  N         13.8810  -33.3950  -63.7970 N.am   79  ARG79      -0.1966
     49  CA        12.8600  -34.4200  -63.5980 C.3    79  ARG79       0.1729
     50  C         13.5910  -35.7310  -63.3800 C.2    79  ARG79       0.2616
     51  O         14.5130  -36.0410  -64.1380 O.2    79  ARG79      -0.2715
     52  CB        11.8980  -34.5320  -64.7930 C.3    79  ARG79       0.0348
     53  CG        10.6910  -35.4360  -64.5300 C.3    79  ARG79       0.0492
     54  CD         9.7730  -35.6110  -65.7640 C.3    79  ARG79       0.2205
     55  NE         9.4180  -34.3330  -66.3520 N.pl3  79  ARG79      -0.0865
     56  CZ         9.5740  -34.0060  -67.6300 C.cat  79  ARG79       0.5346
     57  NH1       10.0520  -34.8670  -68.5060 N.pl3  79  ARG79       0.1354
     58  NH2        9.2320  -32.8030  -68.0310 N.pl3  79  ARG79       0.1354
     59  N         13.2050  -36.4790  -62.3400 N.am   80  PHE80      -0.1974
     60  CA        13.8520  -37.7570  -62.0680 C.3    80  PHE80       0.1639
     61  C         13.7880  -38.6230  -63.3110 C.2    80  PHE80       0.2290
     62  O         12.7740  -38.6570  -64.0060 O.2    80  PHE80      -0.2864
     63  CB        13.1840  -38.5010  -60.9050 C.3    80  PHE80       0.0560
     64  CG        13.5120  -37.9530  -59.5410 C.ar   80  PHE80      -0.0200
     65  CD1       14.7740  -37.4620  -59.2530 C.ar   80  PHE80      -0.0042
     66  CD2       12.5460  -37.9340  -58.5410 C.ar   80  PHE80      -0.0042
     67  CE1       15.0790  -36.9640  -57.9830 C.ar   80  PHE80      -0.0003
     68  CE2       12.8380  -37.4380  -57.2790 C.ar   80  PHE80      -0.0003
     69  CZ        14.1080  -36.9590  -56.9970 C.ar   80  PHE80      -0.0000
     70  N         14.6800  -42.2350  -63.3870 N.3    82  TYR82      -0.1241
     71  CA        15.0250  -43.5820  -62.9420 C.3    82  TYR82       0.1605
     72  C         15.2000  -44.4990  -64.1450 C.2    82  TYR82       0.2264
     73  O         14.3870  -44.4880  -65.0740 O.2    82  TYR82      -0.2867
     74  CB        13.9420  -44.1640  -62.0440 C.3    82  TYR82       0.0534
     75  CG        13.7690  -43.5670  -60.6730 C.ar   82  TYR82      -0.0201
     76  CD1       12.9160  -42.4850  -60.4630 C.ar   82  TYR82      -0.0009
     77  CD2       14.4080  -44.1220  -59.5670 C.ar   82  TYR82      -0.0009
     78  CE1       12.7330  -41.9530  -59.1890 C.ar   82  TYR82       0.0417
     79  CE2       14.2260  -43.5970  -58.2860 C.ar   82  TYR82       0.0417
     80  CZ        13.3760  -42.5220  -58.1050 C.ar   82  TYR82       0.1957
     81  OH        13.1930  -41.9880  -56.8430 O.3    82  TYR82      -0.2866
     82  N          5.6750  -46.3810  -53.5200 N.3   136  ASN136     -0.1240
     83  CA         6.5770  -45.5320  -54.2970 C.3   136  ASN136      0.1653
     84  C          6.0820  -45.4500  -55.7340 C.2   136  ASN136      0.2266
     85  O          5.2610  -46.2590  -56.1840 O.2   136  ASN136     -0.2867
     86  CB         8.0180  -46.0580  -54.2580 C.3   136  ASN136      0.1155
     87  CG         9.0650  -44.9400  -54.2130 C.2   136  ASN136      0.2627
     88  OD1        8.8760  -43.8470  -54.7670 O.2   136  ASN136     -0.2716
     89  ND2       10.1930  -45.2260  -53.5540 N.am  136  ASN136     -0.0877
     90  N          7.0700  -41.5780  -48.7270 N.3   172  THR172     -0.1203
     91  CA         7.7080  -40.2750  -48.6780 C.3   172  THR172      0.1994
     92  C          7.2030  -39.4250  -49.8340 C.2   172  THR172      0.2618
     93  O          6.8210  -39.9370  -50.8900 O.2   172  THR172     -0.2717
     94  CB         9.2530  -40.3720  -48.7550 C.3   172  THR172      0.1784
     95  OG1        9.6380  -41.1040  -49.9300 O.3   172  THR172     -0.2211
     96  CG2        9.8300  -41.0420  -47.5170 C.3   172  THR172      0.0376
     97  N          7.2140  -38.1160  -49.6270 N.am  173  ALA173     -0.1965
     98  CA         6.8200  -37.1830  -50.6710 C.3   173  ALA173      0.1728
     99  C          7.4550  -35.8440  -50.3660 C.2   173  ALA173      0.2616
    100  O          7.6240  -35.4780  -49.1970 O.2   173  ALA173     -0.2715
    101  CB         5.2800  -37.0410  -50.7720 C.3   173  ALA173      0.0334
    102  N          7.8000  -35.1160  -51.4330 N.am  174  GLY174     -0.1955
    103  CA         8.2140  -33.7330  -51.2820 C.3   174  GLY174      0.1869
    104  C          7.0950  -32.7760  -50.8920 C.2   174  GLY174      0.2309
    105  O          7.3780  -31.6840  -50.3890 O.2   174  GLY174     -0.2863
    106  N         16.9990  -31.9760  -47.6920 N.3   186  TYR186     -0.1227
    107  CA        18.0160  -32.6310  -48.4890 C.3   186  TYR186      0.1736
    108  C         19.1410  -31.6520  -48.7970 C.2   186  TYR186      0.2595
    109  O         18.9390  -30.4350  -48.8420 O.2   186  TYR186     -0.2718
    110  CB        17.4320  -33.2130  -49.7820 C.3   186  TYR186      0.0548
    111  CG        16.3410  -32.4180  -50.4780 C.ar  186  TYR186     -0.0200
    112  CD1       16.6520  -31.3220  -51.2620 C.ar  186  TYR186     -0.0009
    113  CD2       15.0050  -32.8120  -50.3980 C.ar  186  TYR186     -0.0009
    114  CE1       15.6630  -30.6110  -51.9200 C.ar  186  TYR186      0.0417
    115  CE2       14.0050  -32.1170  -51.0560 C.ar  186  TYR186      0.0417
    116  CZ        14.3370  -31.0140  -51.8190 C.ar  186  TYR186      0.1957
    117  OH        13.3570  -30.2960  -52.4830 O.3   186  TYR186     -0.2866
    118  N         20.3390  -32.2070  -48.9550 N.am  187  TYR187     -0.1976
    119  CA        21.5660  -31.4620  -49.1700 C.3   187  TYR187      0.1639
    120  C         22.3190  -32.0860  -50.3330 C.2   187  TYR187      0.2290
    121  O         22.1850  -33.2860  -50.6070 O.2   187  TYR187     -0.2864
    122  CB        22.4680  -31.4700  -47.9240 C.3   187  TYR187      0.0560
    123  CG        21.9760  -30.6310  -46.7610 C.ar  187  TYR187     -0.0198
    124  CD1       20.7950  -30.9470  -46.0800 C.ar  187  TYR187     -0.0009
    125  CD2       22.6990  -29.5240  -46.3410 C.ar  187  TYR187     -0.0009
    126  CE1       20.3610  -30.1760  -45.0050 C.ar  187  TYR187      0.0417
    127  CE2       22.2740  -28.7470  -45.2850 C.ar  187  TYR187      0.0417
    128  CZ        21.1140  -29.0730  -44.6140 C.ar  187  TYR187      0.1957
    129  OH        20.7220  -28.2800  -43.5570 O.3   187  TYR187     -0.2866
    130  N         22.1300  -24.7630  -61.4900 N.3   201  PHE201     -0.1241
    131  CA        21.8270  -25.2720  -60.1580 C.3   201  PHE201      0.1605
    132  C         22.7120  -24.6320  -59.0910 C.2   201  PHE201      0.2264
    133  O         22.2310  -24.3130  -57.9990 O.2   201  PHE201     -0.2867
    134  CB        21.9730  -26.7930  -60.1140 C.3   201  PHE201      0.0534
    135  CG        21.5930  -27.3880  -58.7870 C.ar  201  PHE201     -0.0203
    136  CD1       20.2610  -27.4580  -58.3970 C.ar  201  PHE201     -0.0042
    137  CD2       22.5610  -27.8610  -57.9220 C.ar  201  PHE201     -0.0042
    138  CE1       19.9050  -28.0070  -57.1740 C.ar  201  PHE201     -0.0003
    139  CE2       22.2140  -28.4110  -56.6870 C.ar  201  PHE201     -0.0003
    140  CZ        20.8840  -28.4770  -56.3130 C.ar  201  PHE201     -0.0000
    141  N         22.9140  -45.0350  -54.2870 N.3   290  TYR290     -0.1241
    142  CA        22.2850  -45.4900  -55.5150 C.3   290  TYR290      0.1605
    143  C         22.2920  -44.3860  -56.5620 C.2   290  TYR290      0.2264
    144  O         22.4880  -43.2090  -56.2500 O.2   290  TYR290     -0.2867
    145  CB        20.8570  -45.9800  -55.2690 C.3   290  TYR290      0.0534
    146  CG        19.8770  -44.9820  -54.6840 C.ar  290  TYR290     -0.0201
    147  CD1       19.1050  -44.1730  -55.5090 C.ar  290  TYR290     -0.0009
    148  CD2       19.6730  -44.8970  -53.3060 C.ar  290  TYR290     -0.0009
    149  CE1       18.1790  -43.2910  -54.9800 C.ar  290  TYR290      0.0417
    150  CE2       18.7520  -44.0200  -52.7670 C.ar  290  TYR290      0.0417
    151  CZ        18.0020  -43.2160  -53.6140 C.ar  290  TYR290      0.1957
    152  OH        17.0750  -42.3350  -53.0960 O.3   290  TYR290     -0.2866
    153  N         20.5100  -42.1420  -59.3410 N.3   292  LEU292     -0.1245
    154  CA        19.2240  -41.5620  -59.7270 C.3   292  LEU292      0.1561
    155  C         19.4690  -40.3180  -60.5710 C.2   292  LEU292      0.2260
    156  O         19.6630  -39.2130  -60.0330 O.2   292  LEU292     -0.2867
    157  CB        18.3610  -41.2450  -58.5070 C.3   292  LEU292      0.0270
    158  CG        17.0610  -40.4650  -58.7410 C.3   292  LEU292      0.0019
    159  CD1       16.2780  -41.0380  -59.9230 C.3   292  LEU292      0.0001
    160  CD2       16.2160  -40.4440  -57.4660 C.3   292  LEU292      0.0001
    161  N         18.7600  -37.0670  -62.8870 N.3   294  SER294     -0.1217
    162  CA        17.7140  -36.1040  -63.1870 C.3   294  SER294      0.1889
    163  C         17.8980  -35.6440  -64.6200 C.2   294  SER294      0.2288
    164  O         18.9920  -35.2200  -65.0090 O.2   294  SER294     -0.2866
    165  CB        17.7400  -34.9140  -62.2280 C.3   294  SER294      0.2089
    166  OG        17.0490  -35.2170  -61.0270 O.3   294  SER294     -0.2183
    167  N         21.8040  -35.0930  -65.4880 N.3   305  LEU305     -0.1245
    168  CA        22.6880  -34.8970  -64.3470 C.3   305  LEU305      0.1561
    169  C         22.8210  -36.2360  -63.6350 C.2   305  LEU305      0.2260
    170  O         21.8180  -36.8100  -63.1980 O.2   305  LEU305     -0.2867
    171  CB        22.1450  -33.8280  -63.3980 C.3   305  LEU305      0.0270
    172  CG        22.9670  -33.6270  -62.1260 C.3   305  LEU305      0.0019
    173  CD1       24.2710  -32.9390  -62.4440 C.3   305  LEU305      0.0001
    174  CD2       22.1840  -32.8220  -61.1140 C.3   305  LEU305      0.0001
    175  N         23.4630  -38.3110  -60.6870 N.3   307  ALA307     -0.1245
    176  CA        23.3990  -38.0350  -59.2600 C.3   307  ALA307      0.1562
    177  C         23.4790  -39.3270  -58.4600 C.2   307  ALA307      0.2260
    178  O         22.7320  -40.2780  -58.7250 O.2   307  ALA307     -0.2867
    179  CB        22.1120  -37.2790  -58.9110 C.3   307  ALA307      0.0290
    180  N         22.8730  -40.8800  -54.6520 N.3   309  TYR309     -0.1241
    181  CA        22.1090  -40.6010  -53.4360 C.3   309  TYR309      0.1605
    182  C         22.5990  -41.4980  -52.3090 C.2   309  TYR309      0.2264
    183  O         22.5490  -42.7310  -52.4250 O.2   309  TYR309     -0.2867
    184  CB        20.6020  -40.8070  -53.6460 C.3   309  TYR309      0.0534
    185  CG        19.9330  -39.7200  -54.4790 C.ar  309  TYR309     -0.0201
    186  CD1       20.1910  -39.6040  -55.8520 C.ar  309  TYR309     -0.0009
    187  CD2       19.0500  -38.8130  -53.9000 C.ar  309  TYR309     -0.0009
    188  CE1       19.5800  -38.6230  -56.6220 C.ar  309  TYR309      0.0417
    189  CE2       18.4340  -37.8210  -54.6650 C.ar  309  TYR309      0.0417
    190  CZ        18.7000  -37.7430  -56.0290 C.ar  309  TYR309      0.1957
    191  OH        18.0970  -36.7730  -56.7950 O.3   309  TYR309     -0.2866
    192  N         27.3310  -35.3190  -58.6590 N.3   338  VAL338     -0.1245
    193  CA        26.8250  -34.7000  -57.4460 C.3   338  VAL338      0.1561
    194  C         26.4140  -35.8210  -56.5110 C.2   338  VAL338      0.2260
    195  O         25.9870  -36.8940  -56.9590 O.2   338  VAL338     -0.2867
    196  CB        25.6530  -33.7310  -57.7380 C.3   338  VAL338      0.0252
    197  CG1       24.4970  -34.4410  -58.4480 C.3   338  VAL338      0.0019
    198  CG2       25.1720  -33.0480  -56.4580 C.3   338  VAL338      0.0019
    199  N         24.0350  -36.6100  -53.1230 N.3   340  ASN340     -0.1225
    200  CA        22.8550  -36.0920  -52.4370 C.3   340  ASN340      0.1785
    201  C         22.5610  -36.9010  -51.1850 C.2   340  ASN340      0.2597
    202  O         22.6480  -38.1300  -51.1990 O.2   340  ASN340     -0.2718
    203  CB        21.6260  -36.1260  -53.3480 C.3   340  ASN340      0.1169
    204  CG        21.8180  -35.2920  -54.5890 C.2   340  ASN340      0.2627
    205  OD1       22.1140  -35.8160  -55.6630 O.2   340  ASN340     -0.2716
    206  ND2       21.6710  -33.9820  -54.4470 N.am  340  ASN340     -0.0877
    207  N         22.1700  -36.2110  -50.1140 N.am  341  ALA341     -0.1966
    208  CA        21.8390  -36.8870  -48.8720 C.3   341  ALA341      0.1728
    209  C         20.7500  -36.1180  -48.1320 C.2   341  ALA341      0.2616
    210  O         20.6450  -34.8920  -48.2360 O.2   341  ALA341     -0.2715
    211  CB        23.0770  -37.0550  -47.9800 C.3   341  ALA341      0.0334
    212  N         19.9360  -36.8580  -47.3830 N.am  342  LEU342     -0.1977
    213  CA        18.9730  -36.2530  -46.4750 C.3   342  LEU342      0.1596
    214  C         19.5940  -36.0650  -45.0950 C.2   342  LEU342      0.2287
    215  O         20.5650  -36.7300  -44.7260 O.2   342  LEU342     -0.2864
    216  CB        17.7220  -37.1280  -46.3630 C.3   342  LEU342      0.0297
    217  CG        16.9740  -37.2930  -47.6790 C.3   342  LEU342      0.0022
    218  CD1       16.1390  -38.5390  -47.6160 C.3   342  LEU342      0.0001
    219  CD2       16.1110  -36.0700  -47.9390 C.3   342  LEU342      0.0001
    220  N         12.0130  -33.6170  -47.8240 N.3   363  LEU363     -0.1245
    221  CA        11.2910  -34.8530  -48.0590 C.3   363  LEU363      0.1561
    222  C         10.5910  -35.2650  -46.7700 C.2   363  LEU363      0.2260
    223  O         11.2320  -35.3840  -45.7210 O.2   363  LEU363     -0.2867
    224  CB        12.2400  -35.9580  -48.5350 C.3   363  LEU363      0.0270
    225  CG        11.5720  -37.2850  -48.9360 C.3   363  LEU363      0.0019
    226  CD1       10.8230  -37.2090  -50.3000 C.3   363  LEU363      0.0001
    227  CD2       12.5850  -38.4080  -48.9270 C.3   363  LEU363      0.0001
    228  N         14.0710  -44.2360  -48.6820 N.3   384  LEU384     -0.1231
    229  CA        13.2610  -44.8000  -49.7520 C.3   384  LEU384      0.1693
    230  C         13.8010  -44.3370  -51.0960 C.2   384  LEU384      0.2591
    231  O         14.3890  -43.2630  -51.2130 O.2   384  LEU384     -0.2718
    232  CB        11.7930  -44.3990  -49.6060 C.3   384  LEU384      0.0284
    233  CG        10.9490  -45.1860  -48.5950 C.3   384  LEU384      0.0019
    234  CD1       11.4470  -44.9740  -47.1830 C.3   384  LEU384      0.0001
    235  CD2        9.4650  -44.7940  -48.6830 C.3   384  LEU384      0.0001
    236  N         13.6100  -45.1640  -52.1110 N.am  385  LEU385     -0.1980
    237  CA        14.2620  -44.9210  -53.3860 C.3   385  LEU385      0.1596
    238  C         13.6920  -43.7070  -54.1070 C.2   385  LEU385      0.2287
    239  O         12.4940  -43.4210  -54.0070 O.2   385  LEU385     -0.2864
    240  CB        14.1510  -46.1650  -54.2540 C.3   385  LEU385      0.0297
    241  CG        14.8690  -47.3420  -53.5820 C.3   385  LEU385      0.0022
    242  CD1       14.6470  -48.6020  -54.3590 C.3   385  LEU385      0.0001
    243  CD2       16.3520  -47.0460  -53.4500 C.3   385  LEU385      0.0001
@<TRIPOS>BOND
     1    57    56    1
     2    58    56    1
     3    56    55    2
     4    55    54    1
     5    54    53    1
     6   167   168    1
     7    28    26   ar
     8    73    72    2
     9   164   163    2
    10    52    53    1
    11    52    49    1
    12   163   162    1
    13   168   169    1
    14   168   171    1
    15    26    27   ar
    16    26    25    1
    17    72    71    1
    18    51    50    2
    19    62    61    2
    20     1     2    1
    21    48    49    1
    22    48    39   am
    23   169   170    2
    24    49    50    1
    25   171   172    1
    26    70    71    1
    27    50    59   am
    28    61    60    1
    29    39    38    1
    30    39    40    2
    31    38    37    1
    32    38    41    1
    33   162   161    1
    34   162   165    1
    35    25    24    1
    36    71    74    1
    37    43    45   ar
    38    43    42   ar
    39    45    47   ar
    40     2     5    1
    41     2     3    1
    42     4     3    2
    43   173   172    1
    44     5     6    1
    45    59    60    1
    46   165   166    1
    47   172   174    1
    48    41    42    1
    49    60    63    1
    50    74    75    1
    51     3    13   am
    52    42    44   ar
    53    24    21    1
    54    47    46   ar
    55   130   131    1
    56    16    15    2
    57     6     7   ar
    58     6     8   ar
    59    63    64    1
    60    21    20    1
    61    21    22    1
    62    35    34   ar
    63    44    46   ar
    64    13    14    1
    65   175   176    1
    66    75    76   ar
    67    75    77   ar
    68   155   156    2
    69   155   154    1
    70    15    20   am
    71    15    14    1
    72    76    78   ar
    73     7     9   ar
    74     8    10   ar
    75   131   134    1
    76   131   132    1
    77   134   135    1
    78   159   158    1
    79    14    17    1
    80   154   153    1
    81   154   157    1
    82    34    36   ar
    83    34    33    1
    84    77    79   ar
    85    29    22   am
    86    29    30    1
    87    22    23    2
    88    64    65   ar
    89    64    66   ar
    90    32    31    2
    91   176   179    1
    92   176   177    1
    93    65    67   ar
    94    78    80   ar
    95     9    11   ar
    96   132   133    2
    97    10    11   ar
    98   135   136   ar
    99   135   137   ar
   100   158   157    1
   101   158   160    1
   102   178   177    2
   103   192   193    1
   104    66    68   ar
   105    17    19    1
   106    17    18    1
   107    33    30    1
   108    11    12    1
   109   197   196    1
   110    30    31    1
   111   136   138   ar
   112    79    80   ar
   113    80    81    1
   114    67    69   ar
   115   137   139   ar
   116   196   193    1
   117   196   198    1
   118   193   194    1
   119    68    69   ar
   120   138   140   ar
   121   195   194    2
   122   191   190    1
   123   139   140   ar
   124   188   190   ar
   125   188   186   ar
   126   143   144    2
   127   143   142    1
   128    85    84    2
   129   190   189   ar
   130   186   185   ar
   131    84    83    1
   132   205   204    2
   133   142   145    1
   134   142   141    1
   135   147   149   ar
   136   147   146   ar
   137   145   146    1
   138   149   151   ar
   139    88    87    2
   140   146   148   ar
   141   189   187   ar
   142   180   181    1
   143   204   206   am
   144   204   203    1
   145   185   187   ar
   146   185   184    1
   147   242   241    1
   148    83    86    1
   149    83    82    1
   150    86    87    1
   151   240   241    1
   152   240   237    1
   153    87    89   am
   154   238   239    2
   155   238   237    1
   156   184   181    1
   157   151   152    1
   158   151   150   ar
   159   241   243    1
   160   181   182    1
   161   237   236    1
   162   203   200    1
   163   148   150   ar
   164   199   200    1
   165   117   116    1
   166   200   201    1
   167   183   182    2
   168   236   230   am
   169   114   116   ar
   170   114   112   ar
   171   116   115   ar
   172   102   103    1
   173   102    99   am
   174   103   104    1
   175   112   111   ar
   176   231   230    2
   177   202   201    2
   178   201   207   am
   179   230   229    1
   180   115   113   ar
   181   104   105    2
   182    93    92    2
   183   101    98    1
   184    98    99    1
   185    98    97    1
   186   121   120    2
   187   111   113   ar
   188   111   110    1
   189    99   100    2
   190   120   119    1
   191   226   225    1
   192   207   208    1
   193    95    94    1
   194    92    97   am
   195    92    91    1
   196   110   107    1
   197   229   232    1
   198   229   228    1
   199   232   233    1
   200   119   118    1
   201   119   122    1
   202   118   108   am
   203   225   227    1
   204   225   224    1
   205   208   209    1
   206   208   211    1
   207   109   108    2
   208   108   107    1
   209    94    91    1
   210    94    96    1
   211    90    91    1
   212   235   233    1
   213   233   234    1
   214   224   221    1
   215   107   106    1
   216   210   209    2
   217   209   212   am
   218   221   220    1
   219   221   222    1
   220   219   217    1
   221   122   123    1
   222   217   218    1
   223   217   216    1
   224   212   213    1
   225   222   223    2
   226   123   125   ar
   227   123   124   ar
   228   213   216    1
   229   213   214    1
   230   125   127   ar
   231   124   126   ar
   232   127   128   ar
   233   214   215    2
   234   126   128   ar
   235   128   129    1
