@<TRIPOS>MOLECULE
tmp/5v13B00.pdb
 225 220 0 0 0
SMALL
GASTEIGER

@<TRIPOS>ATOM
      1  N        248.8520    4.9940  359.1740 N.3    11  LEU11      -0.1245
      2  CA       248.1300    6.2130  359.5370 C.3    11  LEU11       0.1561
      3  C        248.8890    6.9900  360.6080 C.2    11  LEU11       0.2260
      4  O        248.9860    8.2210  360.5400 O.2    11  LEU11      -0.2867
      5  CB       246.7110    5.8750  360.0120 C.3    11  LEU11       0.0270
      6  CG       245.8130    7.1110  360.1500 C.3    11  LEU11       0.0019
      7  CD1      245.7140    7.8740  358.8180 C.3    11  LEU11       0.0001
      8  CD2      244.4350    6.7190  360.6310 C.3    11  LEU11       0.0001
      9  N        251.7840    8.7550  358.7860 N.3    14  TYR14      -0.1227
     10  CA       251.3390    9.8400  357.9010 C.3    14  TYR14       0.1736
     11  C        250.9050   11.0680  358.6990 C.2    14  TYR14       0.2595
     12  O        251.2630   12.2070  358.3640 O.2    14  TYR14      -0.2718
     13  CB       250.1790    9.3770  357.0030 C.3    14  TYR14       0.0548
     14  CG       250.4590    8.1690  356.1230 C.ar   14  TYR14      -0.0200
     15  CD1      251.7590    7.7940  355.8000 C.ar   14  TYR14      -0.0009
     16  CD2      249.4080    7.4110  355.6170 C.ar   14  TYR14      -0.0009
     17  CE1      252.0020    6.6670  354.9900 C.ar   14  TYR14       0.0417
     18  CE2      249.6320    6.3080  354.8130 C.ar   14  TYR14       0.0417
     19  CZ       250.9230    5.9390  354.5020 C.ar   14  TYR14       0.1957
     20  OH       251.1270    4.8250  353.7190 O.3    14  TYR14      -0.2866
     21  N        250.1030   10.8530  359.7420 N.am   15  VAL15      -0.1980
     22  CA       249.5500   11.9690  360.5070 C.3    15  VAL15       0.1595
     23  C        250.6340   12.6500  361.3430 C.2    15  VAL15       0.2287
     24  O        250.7170   13.8920  361.4000 O.2    15  VAL15      -0.2864
     25  CB       248.3770   11.4790  361.3810 C.3    15  VAL15       0.0276
     26  CG1      247.9490   12.5880  362.3450 C.3    15  VAL15       0.0022
     27  CG2      247.2130   11.0450  360.4960 C.3    15  VAL15       0.0022
     28  N        252.9390   14.6430  359.2180 N.3    18  LEU18      -0.1245
     29  CA       252.2680   15.8500  358.7220 C.3    18  LEU18       0.1561
     30  C        252.2590   16.9510  359.7770 C.2    18  LEU18       0.2260
     31  O        252.5780   18.1140  359.4870 O.2    18  LEU18      -0.2867
     32  CB       250.8350   15.5270  358.2890 C.3    18  LEU18       0.0270
     33  CG       250.6270   15.0310  356.8560 C.3    18  LEU18       0.0019
     34  CD1      249.1940   14.5320  356.6570 C.3    18  LEU18       0.0001
     35  CD2      250.9310   16.1620  355.8730 C.3    18  LEU18       0.0001
     36  N        251.0390   16.0760  349.3360 N.3    31  TRP31      -0.1227
     37  CA       251.5430   14.8650  349.9760 C.3    31  TRP31       0.1737
     38  C        250.4330   13.8400  350.1710 C.2    31  TRP31       0.2595
     39  O        250.6330   12.6440  349.9190 O.2    31  TRP31      -0.2718
     40  CB       252.1900   15.1830  351.3220 C.3    31  TRP31       0.0564
     41  CG       253.3050   16.2100  351.2580 C.ar   31  TRP31       0.0003
     42  CD1      253.9010   16.7100  350.1430 C.ar   31  TRP31       0.0946
     43  CD2      253.9160   16.8660  352.3690 C.ar   31  TRP31       0.0152
     44  NE1      254.8680   17.6300  350.4910 N.ar   31  TRP31      -0.2442
     45  CE2      254.8980   17.7370  351.8560 C.ar   31  TRP31       0.0810
     46  CE3      253.7510   16.7770  353.7570 C.ar   31  TRP31       0.0012
     47  CZ2      255.6840   18.5490  352.6800 C.ar   31  TRP31       0.0191
     48  CZ3      254.5400   17.5810  354.5760 C.ar   31  TRP31       0.0001
     49  CH2      255.4900   18.4510  354.0340 C.ar   31  TRP31       0.0015
     50  N        249.2550   14.2760  350.6230 N.am   32  VAL32      -0.1980
     51  CA       248.1900   13.2990  350.8570 C.3    32  VAL32       0.1595
     52  C        247.6180   12.7430  349.5620 C.2    32  VAL32       0.2287
     53  O        246.8690   11.7610  349.6080 O.2    32  VAL32      -0.2864
     54  CB       247.0500   13.8840  351.7190 C.3    32  VAL32       0.0276
     55  CG1      247.5830   14.3660  353.0610 C.3    32  VAL32       0.0022
     56  CG2      246.3200   15.0100  350.9850 C.3    32  VAL32       0.0022
     57  N        249.7990   11.6660  347.3950 N.3    34  TRP34      -0.1241
     58  CA       250.9210   10.7920  347.0630 C.3    34  TRP34       0.1605
     59  C        251.8400   11.3590  345.9810 C.2    34  TRP34       0.2264
     60  O        252.5250   10.6050  345.2840 O.2    34  TRP34      -0.2867
     61  CB       250.4270    9.4000  346.6630 C.3    34  TRP34       0.0550
     62  CG       249.8320    8.6450  347.8130 C.ar   34  TRP34       0.0003
     63  CD1      248.5570    8.7510  348.3010 C.ar   34  TRP34       0.0946
     64  CD2      250.4880    7.6630  348.6190 C.ar   34  TRP34       0.0152
     65  NE1      248.3850    7.8930  349.3640 N.ar   34  TRP34      -0.2442
     66  CE2      249.5540    7.2080  349.5730 C.ar   34  TRP34       0.0810
     67  CE3      251.7750    7.1150  348.6220 C.ar   34  TRP34       0.0012
     68  CZ2      249.8700    6.2420  350.5290 C.ar   34  TRP34       0.0191
     69  CZ3      252.0780    6.1380  349.5620 C.ar   34  TRP34       0.0001
     70  CH2      251.1350    5.7190  350.5020 C.ar   34  TRP34       0.0015
     71  N        254.5930   14.0970  346.5520 N.3    36  PRO36      -0.2116
     72  CA       255.4620   15.1360  347.1250 C.3    36  PRO36       0.1372
     73  C        256.4410   15.6560  346.0840 C.2    36  PRO36       0.2244
     74  O        257.0450   14.8810  345.3380 O.2    36  PRO36      -0.2868
     75  CB       256.2060   14.4090  348.2560 C.3    36  PRO36       0.0268
     76  CG       255.5990   13.0000  348.3400 C.3    36  PRO36       0.0207
     77  CD       254.9090   12.7400  347.0420 C.3    36  PRO36       0.0892
     78  N        259.4560   15.2200  354.5500 N.3    45  TYR45      -0.1227
     79  CA       258.2740   14.4050  354.8330 C.3    45  TYR45       0.1736
     80  C        258.4890   12.9580  354.4030 C.2    45  TYR45       0.2595
     81  O        258.1280   12.0180  355.1290 O.2    45  TYR45      -0.2718
     82  CB       257.0410   14.9810  354.1340 C.3    45  TYR45       0.0548
     83  CG       255.7680   14.2390  354.4910 C.ar   45  TYR45      -0.0200
     84  CD1      255.1650   14.4280  355.7270 C.ar   45  TYR45      -0.0009
     85  CD2      255.1880   13.3190  353.6050 C.ar   45  TYR45      -0.0009
     86  CE1      253.9920   13.7290  356.0740 C.ar   45  TYR45       0.0417
     87  CE2      254.0220   12.6290  353.9370 C.ar   45  TYR45       0.0417
     88  CZ       253.4330   12.8360  355.1730 C.ar   45  TYR45       0.1957
     89  OH       252.2770   12.1570  355.5230 O.3    45  TYR45      -0.2866
     90  N        259.0590   12.7560  353.2170 N.am   46  VAL46      -0.1980
     91  CA       259.3380   11.3960  352.7570 C.3    46  VAL46       0.1595
     92  C        260.3210   10.6940  353.6950 C.2    46  VAL46       0.2287
     93  O        260.1390    9.5170  354.0400 O.2    46  VAL46      -0.2864
     94  CB       259.8440   11.4170  351.3040 C.3    46  VAL46       0.0276
     95  CG1      260.2050    9.9960  350.8470 C.3    46  VAL46       0.0022
     96  CG2      258.7730   12.0180  350.3860 C.3    46  VAL46       0.0022
     97  N        258.4170    9.7780  357.0330 N.3    49  VAL49      -0.1231
     98  CA       257.5050    8.6340  356.9160 C.3    49  VAL49       0.1692
     99  C        258.2910    7.3480  356.7220 C.2    49  VAL49       0.2592
    100  O        257.9710    6.3090  357.3170 O.2    49  VAL49      -0.2718
    101  CB       256.4990    8.8450  355.7680 C.3    49  VAL49       0.0266
    102  CG1      255.5800    7.5870  355.5870 C.3    49  VAL49       0.0020
    103  CG2      255.6560   10.0770  356.0390 C.3    49  VAL49       0.0020
    104  N        259.3360    7.4030  355.8910 N.am   50  SER50      -0.1952
    105  CA       260.1820    6.2370  355.6610 C.3    50  SER50       0.1924
    106  C        260.8220    5.7560  356.9600 C.2    50  SER50       0.2314
    107  O        260.7930    4.5590  357.2740 O.2    50  SER50      -0.2863
    108  CB       261.2520    6.5720  354.6140 C.3    50  SER50       0.2116
    109  OG       260.6480    6.8220  353.3470 O.3    50  SER50      -0.2180
    110  N        258.1660    4.2290  359.4640 N.3    53  LEU53      -0.1245
    111  CA       257.7350    2.8910  359.0660 C.3    53  LEU53       0.1561
    112  C        258.8810    1.8830  359.0240 C.2    53  LEU53       0.2260
    113  O        258.6560    0.7280  358.6290 O.2    53  LEU53      -0.2867
    114  CB       257.0480    2.9560  357.6980 C.3    53  LEU53       0.0270
    115  CG       255.7510    3.7800  357.7100 C.3    53  LEU53       0.0019
    116  CD1      255.1440    3.9090  356.3170 C.3    53  LEU53       0.0001
    117  CD2      254.7610    3.1330  358.6680 C.3    53  LEU53       0.0001
    118  N        261.2080    1.6980  356.9580 N.3    55  LEU55      -0.1245
    119  CA       261.6240    1.3960  355.5960 C.3    55  LEU55       0.1561
    120  C        262.9970    1.9540  355.2860 C.2    55  LEU55       0.2260
    121  O        263.7160    1.3780  354.4670 O.2    55  LEU55      -0.2867
    122  CB       260.6180    1.9590  354.5930 C.3    55  LEU55       0.0270
    123  CG       259.1760    1.4570  354.7870 C.3    55  LEU55       0.0019
    124  CD1      258.2040    2.3130  353.9760 C.3    55  LEU55       0.0001
    125  CD2      259.0440   -0.0140  354.3820 C.3    55  LEU55       0.0001
    126  N        259.9160   -3.4810  351.5420 N.3    68  PHE68      -0.1241
    127  CA       258.9430   -3.1530  350.5000 C.3    68  PHE68       0.1605
    128  C        258.3930   -4.4180  349.8400 C.2    68  PHE68       0.2264
    129  O        257.2000   -4.4940  349.5450 O.2    68  PHE68      -0.2867
    130  CB       259.5750   -2.2390  349.4460 C.3    68  PHE68       0.0534
    131  CG       259.8680   -0.8500  349.9460 C.ar   68  PHE68      -0.0203
    132  CD1      261.0890   -0.5480  350.5440 C.ar   68  PHE68      -0.0042
    133  CD2      258.9220    0.1590  349.8160 C.ar   68  PHE68      -0.0042
    134  CE1      261.3550    0.7540  350.9990 C.ar   68  PHE68      -0.0003
    135  CE2      259.1790    1.4530  350.2670 C.ar   68  PHE68      -0.0003
    136  CZ       260.3960    1.7510  350.8600 C.ar   68  PHE68      -0.0000
    137  N        265.1970    7.3580  346.9320 N.3   110  TYR110     -0.1241
    138  CA       263.8880    6.7300  346.7620 C.3   110  TYR110      0.1605
    139  C        263.2640    7.0120  345.3930 C.2   110  TYR110      0.2264
    140  O        262.3510    6.2850  344.9750 O.2   110  TYR110     -0.2867
    141  CB       262.9820    7.2450  347.8760 C.3   110  TYR110      0.0534
    142  CG       261.6580    6.5390  348.1030 C.ar  110  TYR110     -0.0201
    143  CD1      261.5880    5.1570  348.2540 C.ar  110  TYR110     -0.0009
    144  CD2      260.4930    7.2740  348.2560 C.ar  110  TYR110     -0.0009
    145  CE1      260.3610    4.5210  348.5030 C.ar  110  TYR110      0.0417
    146  CE2      259.2860    6.6610  348.4950 C.ar  110  TYR110      0.0417
    147  CZ       259.2240    5.2890  348.6190 C.ar  110  TYR110      0.1957
    148  OH       258.0150    4.6900  348.8810 O.3   110  TYR110     -0.2866
    149  N        260.1460    4.9710  343.5290 N.3   114  TYR114     -0.1241
    150  CA       258.8310    5.5280  343.7970 C.3   114  TYR114      0.1605
    151  C        258.1100    5.8920  342.5040 C.2   114  TYR114      0.2264
    152  O        256.8920    5.7020  342.3930 O.2   114  TYR114     -0.2867
    153  CB       258.9600    6.7420  344.7150 C.3   114  TYR114      0.0534
    154  CG       257.6300    7.2640  345.2020 C.ar  114  TYR114     -0.0201
    155  CD1      256.8940    6.5580  346.1400 C.ar  114  TYR114     -0.0009
    156  CD2      257.1220    8.4700  344.7320 C.ar  114  TYR114     -0.0009
    157  CE1      255.6810    7.0240  346.5890 C.ar  114  TYR114      0.0417
    158  CE2      255.9060    8.9470  345.1740 C.ar  114  TYR114      0.0417
    159  CZ       255.1960    8.2220  346.1070 C.ar  114  TYR114      0.1957
    160  OH       253.9910    8.7010  346.5630 O.3   114  TYR114     -0.2866
    161  N        252.9510    1.0430  345.3820 N.3   121  ILE121     -0.1245
    162  CA       253.3400    1.4820  346.7250 C.3   121  ILE121      0.1561
    163  C        252.1490    2.0960  347.4560 C.2   121  ILE121      0.2260
    164  O        251.8860    1.7930  348.6230 O.2   121  ILE121     -0.2867
    165  CB       254.5050    2.4840  346.6240 C.3   121  ILE121      0.0252
    166  CG1      255.7390    1.8000  346.0440 C.3   121  ILE121      0.0019
    167  CG2      254.7800    3.1680  347.9800 C.3   121  ILE121      0.0019
    168  CD1      256.7970    2.8190  345.5290 C.3   121  ILE121      0.0001
    169  N        250.5990    0.2430  351.0140 N.3   125  PHE125     -0.1241
    170  CA       250.6720    0.9950  352.2610 C.3   125  PHE125      0.1605
    171  C        249.3420    1.6730  352.6030 C.2   125  PHE125      0.2264
    172  O        249.3270    2.7360  353.2340 O.2   125  PHE125     -0.2867
    173  CB       251.8060    2.0230  352.1980 C.3   125  PHE125      0.0534
    174  CG       253.1800    1.4140  352.2930 C.ar  125  PHE125     -0.0203
    175  CD1      253.6270    0.8650  353.4950 C.ar  125  PHE125     -0.0042
    176  CD2      254.0230    1.3920  351.1890 C.ar  125  PHE125     -0.0042
    177  CE1      254.8980    0.2940  353.5960 C.ar  125  PHE125     -0.0003
    178  CE2      255.3070    0.8330  351.2790 C.ar  125  PHE125     -0.0003
    179  CZ       255.7410    0.2780  352.4890 C.ar  125  PHE125     -0.0000
    180  N        246.8700    3.2170  351.0410 N.3   127  GLY127     -0.1225
    181  CA       246.4310    4.4830  350.4920 C.3   127  GLY127      0.1811
    182  C        245.1070    4.4530  349.7530 C.2   127  GLY127      0.2280
    183  O        244.5420    5.5230  349.5040 O.2   127  GLY127     -0.2866
    184  N        241.2340    3.3460  349.6920 N.3   129  TYR129     -0.1241
    185  CA       240.1900    2.9260  350.6190 C.3   129  TYR129      0.1605
    186  C        239.2450    1.8890  350.0300 C.2   129  TYR129      0.2264
    187  O        238.3560    1.4110  350.7390 O.2   129  TYR129     -0.2867
    188  CB       239.3860    4.1340  351.1090 C.3   129  TYR129      0.0534
    189  CG       240.1450    4.9690  352.1240 C.ar  129  TYR129     -0.0201
    190  CD1      241.3960    4.5700  352.5860 C.ar  129  TYR129     -0.0009
    191  CD2      239.6090    6.1480  352.6270 C.ar  129  TYR129     -0.0009
    192  CE1      242.0970    5.3290  353.5160 C.ar  129  TYR129      0.0417
    193  CE2      240.2990    6.9100  353.5560 C.ar  129  TYR129      0.0417
    194  CZ       241.5380    6.4960  353.9960 C.ar  129  TYR129      0.1957
    195  OH       242.2200    7.2560  354.9180 O.3   129  TYR129     -0.2866
    196  N        243.1960   11.1080  362.8560 N.3   249  PHE249     -0.1241
    197  CA       242.5670   12.3500  362.4080 C.3   249  PHE249      0.1605
    198  C        241.0950   12.0620  362.1390 C.2   249  PHE249      0.2264
    199  O        240.6490   10.9150  362.1890 O.2   249  PHE249     -0.2867
    200  CB       243.2580   12.9460  361.1780 C.3   249  PHE249      0.0534
    201  CG       242.9000   12.2820  359.8780 C.ar  249  PHE249     -0.0203
    202  CD1      243.4740   11.0770  359.5130 C.ar  249  PHE249     -0.0042
    203  CD2      242.0220   12.8910  359.0020 C.ar  249  PHE249     -0.0042
    204  CE1      243.1550   10.4790  358.3110 C.ar  249  PHE249     -0.0003
    205  CE2      241.6990   12.3080  357.8010 C.ar  249  PHE249     -0.0003
    206  CZ       242.2660   11.1000  357.4450 C.ar  249  PHE249     -0.0000
    207  N        243.1090   17.2620  355.5260 N.3   258  TRP258     -0.1241
    208  CA       242.3470   16.0470  355.8270 C.3   258  TRP258      0.1605
    209  C        241.2630   15.7850  354.7860 C.2   258  TRP258      0.2264
    210  O        241.0610   14.6360  354.3710 O.2   258  TRP258     -0.2867
    211  CB       241.7500   16.1430  357.2350 C.3   258  TRP258      0.0550
    212  CG       242.7320   16.7230  358.2100 C.ar  258  TRP258      0.0003
    213  CD1      242.6140   17.9020  358.8840 C.ar  258  TRP258      0.0946
    214  CD2      244.0130   16.1820  358.5690 C.ar  258  TRP258      0.0152
    215  NE1      243.7250   18.1160  359.6610 N.ar  258  TRP258     -0.2442
    216  CE2      244.6010   17.0780  359.4820 C.ar  258  TRP258      0.0810
    217  CE3      244.7090   15.0140  358.2250 C.ar  258  TRP258      0.0012
    218  CZ2      245.8530   16.8540  360.0480 C.ar  258  TRP258      0.0191
    219  CZ3      245.9640   14.8000  358.7810 C.ar  258  TRP258      0.0001
    220  CH2      246.5160   15.7100  359.6890 C.ar  258  TRP258      0.0015
    221  N        242.7500   14.4650  351.6500 N.3   261  ALA261     -0.1245
    222  CA       243.2930   13.1270  351.8480 C.3   261  ALA261      0.1562
    223  C        242.2070   12.0750  351.6820 C.2   261  ALA261      0.2260
    224  O        242.4150   11.0430  351.0250 O.2   261  ALA261     -0.2867
    225  CB       243.9220   13.0120  353.2370 C.3   261  ALA261      0.0290
@<TRIPOS>BOND
     1   152   151    2
     2   151   150    1
     3   149   150    1
     4   150   153    1
     5   153   154    1
     6   156   158   ar
     7   156   154   ar
     8   140   139    2
     9   158   159   ar
    10   154   155   ar
    11    60    59    2
    12    74    73    2
    13   161   162    1
    14   139   138    1
    15   168   166    1
    16    59    58    1
    17   166   165    1
    18    73    72    1
    19   159   160    1
    20   159   157   ar
    21   155   157   ar
    22    71    77    1
    23    71    72    1
    24   165   162    1
    25   165   167    1
    26    61    58    1
    27    61    62    1
    28   162   163    1
    29   138   137    1
    30   138   141    1
    31    77    76    1
    32    58    57    1
    33    72    75    1
    34   163   164    2
    35    62    63   ar
    36    62    64   ar
    37   141   142    1
    38   142   143   ar
    39   142   144   ar
    40   143   145   ar
    41   144   146   ar
    42    75    76    1
    43    63    65   ar
    44   146   147   ar
    45   145   147   ar
    46    64    67   ar
    47    64    66   ar
    48   147   148    1
    49    67    69   ar
    50    36    37    1
    51    65    66   ar
    52   130   131    1
    53   130   127    1
    54   183   182    2
    55   129   128    2
    56    52    53    2
    57    52    51    1
    58    69    70   ar
    59    66    68   ar
    60   184   185    1
    61   182   181    1
    62   133   131   ar
    63   133   135   ar
    64   128   127    1
    65    39    38    2
    66   131   132   ar
    67    37    38    1
    68    37    40    1
    69   186   185    1
    70   186   187    2
    71    42    44   ar
    72    42    41   ar
    73    38    50   am
    74   135   136   ar
    75    96    94    1
    76    44    45   ar
    77   181   180    1
    78   127   126    1
    79    70    68   ar
    80   132   134   ar
    81   185   188    1
    82    50    51    1
    83    95    94    1
    84    51    54    1
    85   136   134   ar
    86    56    54    1
    87   169   170    1
    88   224   223    2
    89   188   189    1
    90   176   178   ar
    91   176   174   ar
    92    41    40    1
    93    41    43   ar
    94   178   179   ar
    95    94    91    1
    96   221   222    1
    97   223   222    1
    98    54    55    1
    99   222   225    1
   100    45    43   ar
   101    45    47   ar
   102   189   190   ar
   103   189   191   ar
   104   173   170    1
   105   173   174    1
   106   170   171    1
   107   174   175   ar
   108    43    46   ar
   109   179   177   ar
   110   190   192   ar
   111   171   172    2
   112   191   193   ar
   113    47    49   ar
   114    91    90    1
   115    91    92    1
   116    90    80   am
   117   109   108    1
   118   175   177   ar
   119   192   194   ar
   120   193   194   ar
   121    85    87   ar
   122    85    83   ar
   123    92    93    2
   124    20    19    1
   125    46    48   ar
   126    87    88   ar
   127   124   123    1
   128   194   195    1
   129    49    48   ar
   130    82    83    1
   131    82    79    1
   132   210   209    2
   133   125   123    1
   134    80    79    1
   135    80    81    2
   136   121   120    2
   137    83    84   ar
   138    19    18   ar
   139    19    17   ar
   140    78    79    1
   141   122   123    1
   142   122   119    1
   143   108   105    1
   144   209   208    1
   145    18    16   ar
   146    17    15   ar
   147    88    89    1
   148    88    86   ar
   149   120   119    1
   150   207   208    1
   151   102   101    1
   152   119   118    1
   153    16    14   ar
   154   105   104    1
   155   105   106    1
   156    84    86   ar
   157   101   103    1
   158   101    98    1
   159    15    14   ar
   160   208   211    1
   161    35    33    1
   162   104    99   am
   163    14    13    1
   164   116   115    1
   165    34    33    1
   166    99    98    1
   167    99   100    2
   168    33    32    1
   169    98    97    1
   170   106   107    2
   171    13    10    1
   172   211   212    1
   173   206   205   ar
   174   206   204   ar
   175   114   115    1
   176   114   111    1
   177   115   117    1
   178   205   203   ar
   179    10    11    1
   180    10     9    1
   181   212   214   ar
   182   212   213   ar
   183   217   214   ar
   184   217   219   ar
   185    32    29    1
   186   204   202   ar
   187    12    11    2
   188   214   216   ar
   189   113   112    2
   190    11    21   am
   191    29    28    1
   192    29    30    1
   193   219   220   ar
   194     7     6    1
   195   213   215   ar
   196   203   201   ar
   197   112   111    1
   198   111   110    1
   199     1     2    1
   200   216   215   ar
   201   216   218   ar
   202    31    30    2
   203   202   201   ar
   204     2     5    1
   205     2     3    1
   206   220   218   ar
   207    21    22    1
   208   201   200    1
   209     5     6    1
   210     6     8    1
   211    27    25    1
   212    22    23    1
   213    22    25    1
   214     4     3    2
   215   200   197    1
   216    23    24    2
   217    25    26    1
   218   198   199    2
   219   198   197    1
   220   197   196    1
