@<TRIPOS>MOLECULE
tmp/5v18A00.pdb
 167 158 0 0 0
SMALL
GASTEIGER

@<TRIPOS>ATOM
      1  N         24.3990   47.4400   -2.3450 N.3    62  ASP62      -0.1239
      2  CA        23.6870   48.3480   -1.4460 C.3    62  ASP62       0.1674
      3  C         22.1990   48.0000   -1.2920 C.2    62  ASP62       0.2266
      4  O         21.6480   47.2140   -2.0710 O.2    62  ASP62      -0.2867
      5  CB        23.8660   49.8170   -1.8820 C.3    62  ASP62       0.1410
      6  CG        23.6030   50.0480   -3.3760 C.2    62  ASP62       0.3668
      7  OD1       22.9820   51.0830   -3.7170 O.co2  62  ASP62      -0.2456
      8  OD2       24.0270   49.2160   -4.2110 O.co2  62  ASP62      -0.2456
      9  N         25.2580   50.4920    2.9080 N.3   111  TYR111     -0.1241
     10  CA        26.3030   50.0250    1.9990 C.3   111  TYR111      0.1605
     11  C         27.1150   48.9770    2.7610 C.2   111  TYR111      0.2264
     12  O         27.8740   49.3280    3.6680 O.2   111  TYR111     -0.2867
     13  CB        27.1710   51.2020    1.5380 C.3   111  TYR111      0.0534
     14  CG        26.3610   52.3710    1.0090 C.ar  111  TYR111     -0.0201
     15  CD1       25.9440   53.4020    1.8550 C.ar  111  TYR111     -0.0009
     16  CD2       25.9980   52.4400   -0.3330 C.ar  111  TYR111     -0.0009
     17  CE1       25.1990   54.4660    1.3730 C.ar  111  TYR111      0.0417
     18  CE2       25.2570   53.5020   -0.8270 C.ar  111  TYR111      0.0417
     19  CZ        24.8600   54.5090    0.0230 C.ar  111  TYR111      0.1957
     20  OH        24.1180   55.5570   -0.4650 O.3   111  TYR111     -0.2866
     21  N         32.1940   51.5820   -6.0620 N.3   117  TYR117     -0.1241
     22  CA        31.2570   52.3360   -6.9180 C.3   117  TYR117      0.1605
     23  C         32.0160   53.2200   -7.8880 C.2   117  TYR117      0.2264
     24  O         32.7380   54.1290   -7.4700 O.2   117  TYR117     -0.2867
     25  CB        30.3020   53.1870   -6.0900 C.3   117  TYR117      0.0534
     26  CG        29.4990   52.3810   -5.1180 C.ar  117  TYR117     -0.0201
     27  CD1       28.2460   51.8780   -5.4720 C.ar  117  TYR117     -0.0009
     28  CD2       29.9910   52.0960   -3.8420 C.ar  117  TYR117     -0.0009
     29  CE1       27.5040   51.1180   -4.5810 C.ar  117  TYR117      0.0417
     30  CE2       29.2540   51.3380   -2.9420 C.ar  117  TYR117      0.0417
     31  CZ        28.0120   50.8490   -3.3200 C.ar  117  TYR117      0.1957
     32  OH        27.2770   50.0880   -2.4430 O.3   117  TYR117     -0.2866
     33  N         31.0240   58.4260  -11.5850 N.3   120  HIS120     -0.1241
     34  CA        29.7660   58.7870  -12.2150 C.3   120  HIS120      0.1621
     35  C         29.4120   60.2340  -11.8930 C.2   120  HIS120      0.2264
     36  O         30.0120   60.8550  -11.0180 O.2   120  HIS120     -0.2867
     37  CB        28.6570   57.8570  -11.7270 C.3   120  HIS120      0.0745
     38  CG        28.3370   58.0280  -10.2740 C.ar  120  HIS120      0.0817
     39  ND1       29.2110   57.6680   -9.2700 N.ar  120  HIS120     -0.2268
     40  CD2       27.2630   58.5710   -9.6610 C.ar  120  HIS120      0.1154
     41  CE1       28.6760   57.9590   -8.1010 C.ar  120  HIS120      0.1986
     42  NE2       27.4970   58.5140   -8.3120 N.ar  120  HIS120     -0.2212
     43  N         25.9530   62.4510  -10.9210 N.3   122  ASP122     -0.1239
     44  CA        24.6060   62.2200  -10.3880 C.3   122  ASP122      0.1674
     45  C         23.5420   62.5980  -11.4170 C.2   122  ASP122      0.2266
     46  O         22.6290   61.8190  -11.6700 O.2   122  ASP122     -0.2867
     47  CB        24.3720   63.0070   -9.0960 C.3   122  ASP122      0.1410
     48  CG        25.0160   62.3610   -7.8760 C.2   122  ASP122      0.3668
     49  OD1       25.7690   61.3780   -8.0340 O.co2 122  ASP122     -0.2456
     50  OD2       24.7510   62.8470   -6.7460 O.co2 122  ASP122     -0.2456
     51  N         23.5690   68.0210   -4.5670 N.3   132  THR132     -0.1218
     52  CA        23.5450   66.7530   -3.8490 C.3   132  THR132      0.1862
     53  C         23.9420   67.0300   -2.4060 C.2   132  THR132      0.2287
     54  O         24.9250   67.7250   -2.1530 O.2   132  THR132     -0.2866
     55  CB        24.5460   65.7610   -4.4620 C.3   132  THR132      0.1770
     56  OG1       24.1920   65.5150   -5.8380 O.3   132  THR132     -0.2211
     57  CG2       24.5600   64.4640   -3.6940 C.3   132  THR132      0.0375
     58  N         24.5930   64.8980    1.1660 N.3   134  ILE134     -0.1245
     59  CA        24.7410   63.6060    1.8320 C.3   134  ILE134      0.1561
     60  C         25.0700   63.8440    3.3060 C.2   134  ILE134      0.2260
     61  O         25.9390   64.6690    3.6440 O.2   134  ILE134     -0.2867
     62  CB        25.8410   62.7370    1.1950 C.3   134  ILE134      0.0252
     63  CG1       25.6650   62.6440   -0.3250 C.3   134  ILE134      0.0019
     64  CG2       25.8380   61.3390    1.7970 C.3   134  ILE134      0.0019
     65  CD1       26.6820   61.7500   -1.0040 C.3   134  ILE134      0.0001
     66  N         26.2520   61.6250    6.6560 N.3   136  TYR136     -0.1241
     67  CA        26.8480   60.3400    7.0340 C.3   136  TYR136      0.1605
     68  C         26.6370   60.0020    8.5250 C.2   136  TYR136      0.2264
     69  O         26.5580   60.8800    9.3720 O.2   136  TYR136     -0.2867
     70  CB        28.3360   60.3130    6.6900 C.3   136  TYR136      0.0534
     71  CG        28.6790   60.5260    5.2250 C.ar  136  TYR136     -0.0201
     72  CD1       28.7040   59.4660    4.3210 C.ar  136  TYR136     -0.0009
     73  CD2       29.0260   61.8000    4.7510 C.ar  136  TYR136     -0.0009
     74  CE1       29.0470   59.6730    2.9740 C.ar  136  TYR136      0.0417
     75  CE2       29.3620   62.0200    3.4220 C.ar  136  TYR136      0.0417
     76  CZ        29.3850   60.9610    2.5390 C.ar  136  TYR136      0.1957
     77  OH        29.7120   61.2110    1.2260 O.3   136  TYR136     -0.2866
     78  N         28.3180   57.1150   10.2710 N.3   138  ASN138     -0.1240
     79  CA        29.2150   56.0120   10.6600 C.3   138  ASN138      0.1653
     80  C         30.1240   56.4060   11.8180 C.2   138  ASN138      0.2266
     81  O         31.0850   57.1430   11.6360 O.2   138  ASN138     -0.2867
     82  CB        30.0280   55.5540    9.4560 C.3   138  ASN138      0.1155
     83  CG        29.1570   55.3550    8.2360 C.2   138  ASN138      0.2627
     84  OD1       28.2930   54.4770    8.2180 O.2   138  ASN138     -0.2716
     85  ND2       29.3300   56.2120    7.2350 N.am  138  ASN138     -0.0877
     86  N         36.2230   53.2160    1.9780 N.3   148  GLY148     -0.1225
     87  CA        34.9510   53.9110    1.7590 C.3   148  GLY148      0.1811
     88  C         35.0390   55.4070    1.5190 C.2   148  GLY148      0.2280
     89  O         34.0340   56.1090    1.6620 O.2   148  GLY148     -0.2866
     90  N         34.8400   58.8230   -0.2900 N.3   150  LEU150     -0.1245
     91  CA        34.2930   59.4910   -1.4820 C.3   150  LEU150      0.1561
     92  C         35.3720   60.3960   -2.1010 C.2   150  LEU150      0.2260
     93  O         35.8670   61.3310   -1.4580 O.2   150  LEU150     -0.2867
     94  CB        33.0460   60.3030   -1.1510 C.3   150  LEU150      0.0270
     95  CG        32.4270   61.1180   -2.3040 C.3   150  LEU150      0.0019
     96  CD1       31.8040   60.2170   -3.3600 C.3   150  LEU150      0.0001
     97  CD2       31.4040   62.1090   -1.7830 C.3   150  LEU150      0.0001
     98  N         33.4990   59.1700    4.9990 N.3   165  PRO165     -0.2116
     99  CA        32.0760   59.0920    5.3120 C.3   165  PRO165      0.1372
    100  C         31.8350   59.1460    6.8360 C.2   165  PRO165      0.2244
    101  O         31.2900   58.2090    7.4360 O.2   165  PRO165     -0.2868
    102  CB        31.6700   57.7580    4.6830 C.3   165  PRO165      0.0268
    103  CG        32.8820   56.9030    4.8150 C.3   165  PRO165      0.0207
    104  CD        34.0690   57.8300    4.7550 C.3   165  PRO165      0.0892
    105  N         27.4490   69.0730   -2.8150 N.3   173  PHE173     -0.1241
    106  CA        28.1690   69.3140   -4.0570 C.3   173  PHE173      0.1605
    107  C         27.2230   69.4720   -5.2480 C.2   173  PHE173      0.2264
    108  O         26.1040   68.9620   -5.2140 O.2   173  PHE173     -0.2867
    109  CB        29.2440   68.2350   -4.3080 C.3   173  PHE173      0.0534
    110  CG        28.7220   66.8250   -4.4230 C.ar  173  PHE173     -0.0203
    111  CD1       28.7370   65.9710   -3.3220 C.ar  173  PHE173     -0.0042
    112  CD2       28.3000   66.3220   -5.6460 C.ar  173  PHE173     -0.0042
    113  CE1       28.2970   64.6570   -3.4340 C.ar  173  PHE173     -0.0003
    114  CE2       27.8500   65.0090   -5.7710 C.ar  173  PHE173     -0.0003
    115  CZ        27.8530   64.1740   -4.6540 C.ar  173  PHE173     -0.0000
    116  N         32.4190   61.7020   -9.3610 N.3   181  HIS181     -0.1241
    117  CA        32.9550   61.1540   -8.1220 C.3   181  HIS181      0.1621
    118  C         32.8880   59.6330   -8.1030 C.2   181  HIS181      0.2264
    119  O         32.0580   59.0330   -8.7890 O.2   181  HIS181     -0.2867
    120  CB        32.2140   61.7390   -6.9160 C.3   181  HIS181      0.0745
    121  CG        30.7230   61.6750   -7.0290 C.ar  181  HIS181      0.0817
    122  ND1       29.9990   62.5240   -7.8340 N.ar  181  HIS181     -0.2268
    123  CD2       29.8240   60.8540   -6.4510 C.ar  181  HIS181      0.1154
    124  CE1       28.7130   62.2360   -7.7370 C.ar  181  HIS181      0.1986
    125  NE2       28.5820   61.2260   -6.9030 N.ar  181  HIS181     -0.2212
    126  N         33.4960   56.0970   -5.2170 N.3   183  VAL183     -0.1245
    127  CA        33.5950   55.6270   -3.8410 C.3   183  VAL183      0.1561
    128  C         34.5960   54.4700   -3.8250 C.2   183  VAL183      0.2260
    129  O         34.4050   53.4570   -4.5010 O.2   183  VAL183     -0.2867
    130  CB        32.2330   55.1780   -3.2870 C.3   183  VAL183      0.0252
    131  CG1       32.2810   55.0680   -1.7710 C.3   183  VAL183      0.0019
    132  CG2       31.1450   56.1610   -3.6890 C.3   183  VAL183      0.0019
    133  N         28.2840   50.6860    6.0550 N.3   190  ARG190     -0.1231
    134  CA        28.0780   52.1250    6.1080 C.3   190  ARG190      0.1694
    135  C         26.6120   52.4940    5.9400 C.2   190  ARG190      0.2592
    136  O         25.8660   51.7900    5.2560 O.2   190  ARG190     -0.2718
    137  CB        28.8870   52.8090    5.0220 C.3   190  ARG190      0.0321
    138  CG        30.3830   52.6450    5.1530 C.3   190  ARG190      0.0489
    139  CD        31.0650   52.9860    3.8500 C.3   190  ARG190      0.2205
    140  NE        30.7870   51.9830    2.8220 N.pl3 190  ARG190     -0.0865
    141  CZ        31.0230   52.1310    1.5200 C.cat 190  ARG190      0.5346
    142  NH1       30.7340   51.1370    0.6870 N.pl3 190  ARG190      0.1354
    143  NH2       31.5730   53.2400    1.0480 N.pl3 190  ARG190      0.1354
    144  N         26.2320   53.6180    6.5570 N.am  191  TYR191     -0.1962
    145  CA        24.9130   54.2330    6.4140 C.3   191  TYR191      0.1771
    146  C         25.0470   55.6910    6.0110 C.2   191  TYR191      0.2619
    147  O         25.9040   56.4200    6.5190 O.2   191  TYR191     -0.2715
    148  CB        24.1450   54.1560    7.7320 C.3   191  TYR191      0.0574
    149  CG        23.7740   52.7490    8.1150 C.ar  191  TYR191     -0.0198
    150  CD1       22.7360   52.0980    7.4710 C.ar  191  TYR191     -0.0009
    151  CD2       24.4750   52.0600    9.1140 C.ar  191  TYR191     -0.0009
    152  CE1       22.3840   50.8050    7.8130 C.ar  191  TYR191      0.0417
    153  CE2       24.1390   50.7650    9.4530 C.ar  191  TYR191      0.0417
    154  CZ        23.0880   50.1470    8.7980 C.ar  191  TYR191      0.1957
    155  OH        22.7260   48.8750    9.1230 O.3   191  TYR191     -0.2866
    156  N         24.1970   56.1200    5.0880 N.am  192  ALA192     -0.1977
    157  CA        24.1380   57.5180    4.7130 C.3   192  ALA192      0.1597
    158  C         22.7370   57.8640    4.2490 C.2   192  ALA192      0.2287
    159  O         21.9430   56.9810    3.9560 O.2   192  ALA192     -0.2864
    160  CB        25.1620   57.8190    3.6320 C.3   192  ALA192      0.0319
    161  N         20.9580   60.5750    1.5650 N.3   194  THR194     -0.1218
    162  CA        21.1370   61.5350    0.4780 C.3   194  THR194      0.1862
    163  C         19.8230   62.2160    0.0860 C.2   194  THR194      0.2287
    164  O         18.7960   61.5570   -0.0630 O.2   194  THR194     -0.2866
    165  CB        21.7030   60.8490   -0.7780 C.3   194  THR194      0.1770
    166  OG1       22.8670   60.0930   -0.4230 O.3   194  THR194     -0.2211
    167  CG2       22.0720   61.8790   -1.8270 C.3   194  THR194      0.0375
@<TRIPOS>BOND
     1    34    35    1
     2    34    37    1
     3    34    33    1
     4    35    36    2
     5    37    38    1
     6    46    45    2
     7    45    44    1
     8    43    44    1
     9    44    47    1
    10    38    40   ar
    11    38    39   ar
    12    40    42   ar
    13   116   117    1
    14    39    41   ar
    15    47    48    1
    16   119   118    2
    17    42    41   ar
    18   117   118    1
    19   117   120    1
    20    49    48   ar
    21    23    24    2
    22    23    22    1
    23    48    50   ar
    24   122   124   ar
    25   122   121   ar
    26   124   125   ar
    27   121   120    1
    28   121   123   ar
    29    22    25    1
    30    22    21    1
    31   125   123   ar
    32    25    26    1
    33    56    55    1
    34   114   112   ar
    35   114   115   ar
    36   112   110   ar
    37    27    26   ar
    38    27    29   ar
    39   107   108    2
    40   107   106    1
    41   126   127    1
    42    26    28   ar
    43   115   113   ar
    44    29    31   ar
    45    51    52    1
    46   129   128    2
    47    55    52    1
    48    55    57    1
    49   110   109    1
    50   110   111   ar
    51   109   106    1
    52     8     6   ar
    53   106   105    1
    54    52    53    1
    55    28    30   ar
    56   127   128    1
    57   127   130    1
    58     7     6   ar
    59   132   130    1
    60   113   111   ar
    61     6     5    1
    62    96    95    1
    63    31    30   ar
    64    31    32    1
    65   130   131    1
    66    53    54    2
    67     1     2    1
    68    95    97    1
    69    95    94    1
    70    92    91    1
    71    92    93    2
    72     4     3    2
    73     5     2    1
    74   167   165    1
    75    91    94    1
    76    91    90    1
    77     2     3    1
    78    65    63    1
    79    18    16   ar
    80    18    19   ar
    81   165   166    1
    82   165   162    1
    83    20    19    1
    84    16    14   ar
    85    63    62    1
    86   164   163    2
    87    19    17   ar
    88   163   162    1
    89   162   161    1
    90   142   141    1
    91    14    13    1
    92    14    15   ar
    93   143   141    1
    94    58    59    1
    95    62    64    1
    96    62    59    1
    97    77    76    1
    98    17    15   ar
    99    88    89    2
   100    88    87    1
   101   141   140    2
   102    13    10    1
   103    87    86    1
   104    59    60    1
   105    10    11    1
   106    10     9    1
   107    76    74   ar
   108    76    75   ar
   109    11    12    2
   110   140   139    1
   111    74    72   ar
   112    60    61    2
   113    75    73   ar
   114   160   157    1
   115   139   138    1
   116   159   158    2
   117   158   157    1
   118    72    71   ar
   119   102   103    1
   120   102    99    1
   121   157   156    1
   122    73    71   ar
   123   104   103    1
   124   104    98    1
   125    98    99    1
   126   137   138    1
   127   137   134    1
   128   156   146   am
   129    71    70    1
   130   136   135    2
   131    99   100    1
   132   135   134    1
   133   135   144   am
   134   146   145    1
   135   146   147    2
   136   133   134    1
   137   145   144    1
   138   145   148    1
   139    66    67    1
   140    70    67    1
   141   100   101    2
   142    67    68    1
   143    85    83   am
   144   150   152   ar
   145   150   149   ar
   146   148   149    1
   147   152   154   ar
   148   149   151   ar
   149    84    83    2
   150    83    82    1
   151    68    69    2
   152   154   155    1
   153   154   153   ar
   154   151   153   ar
   155    82    79    1
   156    78    79    1
   157    79    80    1
   158    81    80    2
