@<TRIPOS>MOLECULE
tmp/5v1bA00.pdb
 160 152 0 0 0
SMALL
GASTEIGER

@<TRIPOS>ATOM
      1  N          5.0180   24.5740   -5.3720 N.3    61  ASP61      -0.1239
      2  CA         5.9470   23.5860   -5.9230 C.3    61  ASP61       0.1674
      3  C          5.1690   22.5650   -6.7350 C.2    61  ASP61       0.2266
      4  O          4.1420   22.0400   -6.2810 O.2    61  ASP61      -0.2867
      5  CB         6.7260   22.8390   -4.8230 C.3    61  ASP61       0.1410
      6  CG         7.2570   23.7500   -3.7210 C.2    61  ASP61       0.3668
      7  OD1        7.2520   24.9890   -3.8820 O.co2  61  ASP61      -0.2456
      8  OD2        7.6850   23.2070   -2.6760 O.co2  61  ASP61      -0.2456
      9  N          9.8010   25.2900   -9.4050 N.3   110  TYR110     -0.1241
     10  CA         9.5020   26.3700   -8.4700 C.3   110  TYR110      0.1605
     11  C          9.2570   27.6640   -9.2390 C.2   110  TYR110      0.2264
     12  O         10.2110   28.4010   -9.5250 O.2   110  TYR110     -0.2867
     13  CB        10.6430   26.5660   -7.4670 C.3   110  TYR110      0.0534
     14  CG        11.0650   25.3300   -6.7090 C.ar  110  TYR110     -0.0201
     15  CD1       10.4170   24.9560   -5.5270 C.ar  110  TYR110     -0.0009
     16  CD2       12.1300   24.5410   -7.1590 C.ar  110  TYR110     -0.0009
     17  CE1       10.8120   23.8280   -4.8160 C.ar  110  TYR110      0.0417
     18  CE2       12.5330   23.4140   -6.4540 C.ar  110  TYR110      0.0417
     19  CZ        11.8740   23.0630   -5.2830 C.ar  110  TYR110      0.1957
     20  OH        12.2660   21.9430   -4.5810 O.3   110  TYR110     -0.2866
     21  N         10.4140   30.9640    0.7840 N.3   117  TYR117     -0.1241
     22  CA        10.0790   29.9480    1.7770 C.3   117  TYR117      0.1605
     23  C         10.6890   30.4220    3.0820 C.2   117  TYR117      0.2264
     24  O         11.8670   30.7840    3.1200 O.2   117  TYR117     -0.2867
     25  CB        10.5930   28.5580    1.3470 C.3   117  TYR117      0.0534
     26  CG        10.0470   28.1150   -0.0060 C.ar  117  TYR117     -0.0201
     27  CD1        8.9540   27.2320   -0.0970 C.ar  117  TYR117     -0.0009
     28  CD2       10.6030   28.6070   -1.2050 C.ar  117  TYR117     -0.0009
     29  CE1        8.4460   26.8500   -1.3410 C.ar  117  TYR117      0.0417
     30  CE2       10.0990   28.2360   -2.4450 C.ar  117  TYR117      0.0417
     31  CZ         9.0290   27.3620   -2.5090 C.ar  117  TYR117      0.1957
     32  OH         8.5540   27.0140   -3.7460 O.3   117  TYR117     -0.2866
     33  N         13.2130   27.3630    7.8990 N.3   120  HIS120     -0.1241
     34  CA        12.7720   26.0290    8.2940 C.3   120  HIS120      0.1621
     35  C         13.9620   25.0680    8.4040 C.2   120  HIS120      0.2264
     36  O         15.0520   25.3310    7.8860 O.2   120  HIS120     -0.2867
     37  CB        11.7300   25.4850    7.3000 C.3   120  HIS120      0.0745
     38  CG        12.2670   25.3030    5.9160 C.ar  120  HIS120      0.0817
     39  ND1       12.3530   26.3400    5.0100 N.ar  120  HIS120     -0.2268
     40  CD2       12.7850   24.2170    5.2960 C.ar  120  HIS120      0.1154
     41  CE1       12.8890   25.8970    3.8870 C.ar  120  HIS120      0.1986
     42  NE2       13.1560   24.6110    4.0330 N.ar  120  HIS120     -0.2212
     43  N         14.6200   21.0380    7.5670 N.3   122  ASP122     -0.1239
     44  CA        14.0980   19.8990    6.8080 C.3   122  ASP122      0.1674
     45  C         13.5430   18.7820    7.6880 C.2   122  ASP122      0.2266
     46  O         12.4230   18.3180    7.4730 O.2   122  ASP122     -0.2867
     47  CB        15.1870   19.3370    5.8940 C.3   122  ASP122      0.1410
     48  CG        15.3130   20.0940    4.5900 C.2   122  ASP122      0.3668
     49  OD1       14.8800   21.2610    4.5020 O.co2 122  ASP122     -0.2456
     50  OD2       15.8570   19.5030    3.6410 O.co2 122  ASP122     -0.2456
     51  N         20.4950   18.8700   -2.9240 N.3   134  ILE134     -0.1245
     52  CA        19.7400   19.6160   -3.9390 C.3   134  ILE134      0.1561
     53  C         20.6220   19.8510   -5.1640 C.2   134  ILE134      0.2260
     54  O         21.7150   20.4260   -5.0540 O.2   134  ILE134     -0.2867
     55  CB        19.1390   20.9560   -3.4120 C.3   134  ILE134      0.0252
     56  CG1       18.4480   20.7620   -2.0420 C.3   134  ILE134      0.0019
     57  CG2       18.1600   21.5370   -4.4380 C.3   134  ILE134      0.0019
     58  CD1       17.9370   22.0180   -1.3660 C.3   134  ILE134      0.0001
     59  N         20.6870   21.7410   -8.7180 N.3   136  TYR136     -0.1241
     60  CA        20.0320   22.8570   -9.3950 C.3   136  TYR136      0.1605
     61  C         20.2350   22.8470  -10.9120 C.2   136  TYR136      0.2264
     62  O         21.2700   22.3930  -11.4130 O.2   136  TYR136     -0.2867
     63  CB        20.5310   24.1760   -8.8270 C.3   136  TYR136      0.0534
     64  CG        20.3000   24.3830   -7.3560 C.ar  136  TYR136     -0.0201
     65  CD1       19.0920   24.9200   -6.8860 C.ar  136  TYR136     -0.0009
     66  CD2       21.3000   24.0790   -6.4230 C.ar  136  TYR136     -0.0009
     67  CE1       18.8850   25.1450   -5.5280 C.ar  136  TYR136      0.0417
     68  CE2       21.0980   24.2910   -5.0590 C.ar  136  TYR136      0.0417
     69  CZ        19.8910   24.8270   -4.6180 C.ar  136  TYR136      0.1957
     70  OH        19.6900   25.0390   -3.2720 O.3   136  TYR136     -0.2866
     71  N         19.2210   25.8080  -13.0690 N.3   138  ASN138     -0.1240
     72  CA        18.9000   27.1580  -13.5730 C.3   138  ASN138      0.1653
     73  C         20.0760   27.8710  -14.2390 C.2   138  ASN138      0.2266
     74  O         20.9960   28.3400  -13.5600 O.2   138  ASN138     -0.2867
     75  CB        18.3240   28.0260  -12.4510 C.3   138  ASN138      0.1155
     76  CG        17.3540   27.2680  -11.5750 C.2   138  ASN138      0.2627
     77  OD1       16.4040   26.6690  -12.0640 O.2   138  ASN138     -0.2716
     78  ND2       17.6040   27.2690  -10.2750 N.am  138  ASN138     -0.0877
     79  N         15.6810   34.3250   -5.4000 N.3   148  GLY148     -0.1225
     80  CA        15.7470   32.8870   -5.1580 C.3   148  GLY148      0.1811
     81  C         17.0210   32.3950   -4.5000 C.2   148  GLY148      0.2280
     82  O         17.3650   31.2180   -4.6270 O.2   148  GLY148     -0.2866
     83  N         19.2490   30.9110   -1.7220 N.3   150  LEU150     -0.1245
     84  CA        19.2050   30.0970   -0.5160 C.3   150  LEU150      0.1561
     85  C         20.1990   30.6310    0.5090 C.2   150  LEU150      0.2260
     86  O         21.3540   30.9380    0.1800 O.2   150  LEU150     -0.2867
     87  CB        19.5060   28.6310   -0.8310 C.3   150  LEU150      0.0270
     88  CG        19.5500   27.6320    0.3350 C.3   150  LEU150      0.0019
     89  CD1       18.1990   27.4530    1.0250 C.3   150  LEU150      0.0001
     90  CD2       20.0520   26.3040   -0.1760 C.3   150  LEU150      0.0001
     91  N         21.0760   29.4360   -6.8110 N.3   165  PRO165     -0.2116
     92  CA        20.5360   28.1870   -7.3480 C.3   165  PRO165      0.1372
     93  C         21.0260   27.9070   -8.7780 C.2   165  PRO165      0.2244
     94  O         20.2150   27.7950   -9.7080 O.2   165  PRO165     -0.2868
     95  CB        19.0180   28.4070   -7.2760 C.3   165  PRO165      0.0268
     96  CG        18.8330   29.8820   -7.3410 C.3   165  PRO165      0.0207
     97  CD        20.1120   30.5500   -6.9260 C.3   165  PRO165      0.0892
     98  N         23.9080   19.1110    2.5980 N.3   173  PHE173     -0.1241
     99  CA        23.8790   19.5890    3.9920 C.3   173  PHE173      0.1605
    100  C         23.0860   18.6960    4.9550 C.2   173  PHE173      0.2264
    101  O         22.1800   17.9610    4.5280 O.2   173  PHE173     -0.2867
    102  CB        23.3850   21.0460    4.0760 C.3   173  PHE173      0.0534
    103  CG        21.9580   21.2460    3.6260 C.ar  173  PHE173     -0.0203
    104  CD1       20.9080   21.2200    4.5490 C.ar  173  PHE173     -0.0042
    105  CD2       21.6610   21.4980    2.2880 C.ar  173  PHE173     -0.0042
    106  CE1       19.5930   21.4210    4.1440 C.ar  173  PHE173     -0.0003
    107  CE2       20.3500   21.6980    1.8780 C.ar  173  PHE173     -0.0003
    108  CZ        19.3150   21.6620    2.8040 C.ar  173  PHE173     -0.0000
    109  N         17.3210   27.1820    7.2710 N.3   181  HIS181     -0.1241
    110  CA        17.5050   27.8930    6.0100 C.3   181  HIS181      0.1621
    111  C         16.2020   28.4560    5.4750 C.2   181  HIS181      0.2264
    112  O         15.1160   27.9990    5.8450 O.2   181  HIS181     -0.2867
    113  CB        18.1520   26.9770    4.9590 C.3   181  HIS181      0.0745
    114  CG        17.4270   25.6860    4.7470 C.ar  181  HIS181      0.0817
    115  ND1       17.5960   24.5950    5.5710 N.ar  181  HIS181     -0.2268
    116  CD2       16.5400   25.3070    3.7950 C.ar  181  HIS181      0.1154
    117  CE1       16.8430   23.6010    5.1390 C.ar  181  HIS181      0.1986
    118  NE2       16.1920   24.0060    4.0620 N.ar  181  HIS181     -0.2212
    119  N         14.5580   30.2350    1.5990 N.3   183  VAL183     -0.1245
    120  CA        14.7330   30.5990    0.1980 C.3   183  VAL183      0.1561
    121  C         14.0760   31.9590    0.0080 C.2   183  VAL183      0.2260
    122  O         12.9010   32.1340    0.3280 O.2   183  VAL183     -0.2867
    123  CB        14.1550   29.5380   -0.7790 C.3   183  VAL183      0.0252
    124  CG1       14.4880   29.8810   -2.2250 C.3   183  VAL183      0.0019
    125  CG2       14.6960   28.1540   -0.4540 C.3   183  VAL183      0.0019
    126  N         12.1870   28.0780  -11.6870 N.3   190  ARG190     -0.1231
    127  CA        13.3530   27.2690  -11.3300 C.3   190  ARG190      0.1694
    128  C         13.0500   25.7800  -11.3430 C.2   190  ARG190      0.2592
    129  O         11.9080   25.3650  -11.1250 O.2   190  ARG190     -0.2718
    130  CB        13.8550   27.6330   -9.9370 C.3   190  ARG190      0.0321
    131  CG        14.5680   28.9650   -9.8380 C.3   190  ARG190      0.0489
    132  CD        14.3270   29.5640   -8.4700 C.3   190  ARG190      0.2205
    133  NE        12.9040   29.8270   -8.2490 N.pl3 190  ARG190     -0.0865
    134  CZ        12.3050   29.8550   -7.0600 C.cat 190  ARG190      0.5346
    135  NH1       11.0010   30.1050   -6.9930 N.pl3 190  ARG190      0.1354
    136  NH2       12.9960   29.6500   -5.9400 N.pl3 190  ARG190      0.1354
    137  N         14.0930   24.9880  -11.5880 N.am  191  TYR191     -0.1962
    138  CA        14.0420   23.5380  -11.4580 C.3   191  TYR191      0.1771
    139  C         15.1880   23.0610  -10.5830 C.2   191  TYR191      0.2619
    140  O         16.3160   23.5730  -10.6650 O.2   191  TYR191     -0.2715
    141  CB        14.1390   22.8410  -12.8160 C.3   191  TYR191      0.0574
    142  CG        13.0850   23.2100  -13.8290 C.ar  191  TYR191     -0.0198
    143  CD1       11.7520   22.8110  -13.6710 C.ar  191  TYR191     -0.0009
    144  CD2       13.4260   23.9300  -14.9770 C.ar  191  TYR191     -0.0009
    145  CE1       10.7880   23.1380  -14.6210 C.ar  191  TYR191      0.0417
    146  CE2       12.4690   24.2610  -15.9280 C.ar  191  TYR191      0.0417
    147  CZ        11.1570   23.8620  -15.7450 C.ar  191  TYR191      0.1957
    148  OH        10.2180   24.1910  -16.6910 O.3   191  TYR191     -0.2866
    149  N         14.8850   22.0750   -9.7480 N.am  192  ALA192     -0.1977
    150  CA        15.8800   21.4280   -8.9040 C.3   192  ALA192      0.1597
    151  C         15.4220   20.0190   -8.5850 C.2   192  ALA192      0.2287
    152  O         14.2210   19.7260   -8.6140 O.2   192  ALA192     -0.2864
    153  CB        16.1140   22.2200   -7.6220 C.3   192  ALA192      0.0319
    154  N         15.8570   17.0680   -5.5930 N.3   194  THR194     -0.1218
    155  CA        16.2400   16.8650   -4.2010 C.3   194  THR194      0.1862
    156  C         16.1220   15.3960   -3.8140 C.2   194  THR194      0.2287
    157  O         15.1150   14.7540   -4.1150 O.2   194  THR194     -0.2866
    158  CB        15.4130   17.7560   -3.2450 C.3   194  THR194      0.1770
    159  OG1       15.4940   19.1220   -3.6690 O.3   194  THR194     -0.2211
    160  CG2       15.9310   17.6630   -1.8180 C.3   194  THR194      0.0375
@<TRIPOS>BOND
     1   148   147    1
     2   146   147   ar
     3   146   144   ar
     4   147   145   ar
     5   144   142   ar
     6   145   143   ar
     7    73    72    1
     8    73    74    2
     9   142   143   ar
    10   142   141    1
    11    72    71    1
    12    72    75    1
    13   141   138    1
    14    75    76    1
    15    77    76    2
    16   126   127    1
    17   137   138    1
    18   137   128   am
    19    76    78   am
    20   138   139    1
    21    62    61    2
    22   128   127    1
    23   128   129    2
    24   127   130    1
    25    61    60    1
    26   140   139    2
    27   139   149   am
    28   130   131    1
    29   131   132    1
    30   149   150    1
    31    94    93    2
    32    12    11    2
    33     9    10    1
    34    60    63    1
    35    60    59    1
    36    11    10    1
    37   150   151    1
    38   150   153    1
    39    63    64    1
    40    93    92    1
    41   152   151    2
    42   132   133    1
    43    10    13    1
    44   133   134    2
    45    13    14    1
    46    64    65   ar
    47    64    66   ar
    48    92    95    1
    49    92    91    1
    50    96    95    1
    51    96    97    1
    52    16    14   ar
    53    16    18   ar
    54   134   135    1
    55   134   136    1
    56    97    91    1
    57    65    67   ar
    58     3     4    2
    59     3     2    1
    60    14    15   ar
    61    18    19   ar
    62    66    68   ar
    63     2     1    1
    64     2     5    1
    65   154   155    1
    66    67    69   ar
    67    15    17   ar
    68    79    80    1
    69    19    17   ar
    70    19    20    1
    71    53    54    2
    72    53    52    1
    73    80    81    1
    74    68    69   ar
    75     5     6    1
    76    82    81    2
    77    69    70    1
    78    57    55    1
    79   155   156    1
    80   155   158    1
    81   157   156    2
    82    52    55    1
    83    52    51    1
    84     7     6   ar
    85    32    31    1
    86     6     8   ar
    87   159   158    1
    88    55    56    1
    89   158   160    1
    90    31    30   ar
    91    31    29   ar
    92    30    28   ar
    93   124   123    1
    94    56    58    1
    95    83    84    1
    96    29    27   ar
    97    28    26   ar
    98    87    84    1
    99    87    88    1
   100   123   125    1
   101   123   120    1
   102    84    85    1
   103    90    88    1
   104    27    26   ar
   105    26    25    1
   106   121   120    1
   107   121   122    2
   108    86    85    2
   109   120   119    1
   110    88    89    1
   111    21    22    1
   112    25    22    1
   113    22    23    1
   114   107   105   ar
   115   107   108   ar
   116   105   103   ar
   117    98    99    1
   118   108   106   ar
   119    23    24    2
   120   103   102    1
   121   103   104   ar
   122    50    48   ar
   123   116   118   ar
   124   116   114   ar
   125    41    42   ar
   126    41    39   ar
   127    99   102    1
   128    99   100    1
   129    42    40   ar
   130   118   117   ar
   131   106   104   ar
   132    49    48   ar
   133   101   100    2
   134    48    47    1
   135   114   113    1
   136   114   115   ar
   137   113   110    1
   138    39    38   ar
   139   117   115   ar
   140    40    38   ar
   141   111   112    2
   142   111   110    1
   143    47    44    1
   144    38    37    1
   145   110   109    1
   146    44    43    1
   147    44    45    1
   148    37    34    1
   149    46    45    2
   150    36    35    2
   151    33    34    1
   152    34    35    1
