@<TRIPOS>MOLECULE
tmp/5v1mA00.pdb
 152 152 0 0 0
SMALL
GASTEIGER

@<TRIPOS>ATOM
      1  N         -8.0740   22.2700   56.1820 N.3     7  HIS7       -0.1241
      2  CA        -8.5040   20.8660   55.9930 C.3     7  HIS7        0.1621
      3  C        -10.0250   20.8030   55.8760 C.2     7  HIS7        0.2264
      4  O        -10.6970   21.4020   56.6830 O.2     7  HIS7       -0.2867
      5  CB        -8.0280   20.0560   57.2240 C.3     7  HIS7        0.0745
      6  CG        -8.4280   18.6240   57.1740 C.ar    7  HIS7        0.0817
      7  ND1       -8.8770   17.9330   58.2800 N.ar    7  HIS7       -0.2268
      8  CD2       -8.4070   17.7300   56.1570 C.ar    7  HIS7        0.1154
      9  CE1       -9.1060   16.6680   57.9480 C.ar    7  HIS7        0.1986
     10  NE2       -8.7970   16.5150   56.6720 N.ar    7  HIS7       -0.2212
     11  N         -8.7480    8.6850   69.1460 N.3    39  MET39      -0.1245
     12  CA        -9.1250    9.9860   68.6330 C.3    39  MET39       0.1570
     13  C        -10.1720   10.5990   69.5450 C.2    39  MET39       0.2261
     14  O        -11.0120    9.8820   70.1270 O.2    39  MET39      -0.2867
     15  CB        -9.7230    9.8600   67.2340 C.3    39  MET39       0.0387
     16  CG        -8.8830   10.3590   66.0980 C.3    39  MET39       0.0595
     17  SD        -7.5960    9.2180   65.5580 S.3    39  MET39      -0.1393
     18  CE        -6.8540   10.1400   64.2410 C.3    39  MET39       0.0692
     19  N        -13.6820   12.2130   61.9070 N.3    43  HIS43      -0.1241
     20  CA       -13.9630   12.8530   60.6360 C.3    43  HIS43       0.1621
     21  C        -13.5620   11.9740   59.4600 C.2    43  HIS43       0.2264
     22  O        -12.8250   11.0360   59.6120 O.2    43  HIS43      -0.2867
     23  CB       -13.1510   14.1480   60.5710 C.3    43  HIS43       0.0745
     24  CG       -11.6910   13.9200   60.4320 C.ar   43  HIS43       0.0817
     25  ND1      -10.8500   13.8260   61.5260 N.ar   43  HIS43      -0.2268
     26  CD2      -10.9210   13.6800   59.3450 C.ar   43  HIS43       0.1154
     27  CE1       -9.6090   13.6140   61.1090 C.ar   43  HIS43       0.1986
     28  NE2       -9.6240   13.5500   59.7810 N.ar   43  HIS43      -0.2212
     29  N        -11.9170   12.6970   55.7870 N.3    45  SER45      -0.1217
     30  CA       -11.2710   13.7370   54.9800 C.3    45  SER45       0.1889
     31  C        -11.8150   13.8560   53.5780 C.2    45  SER45       0.2288
     32  O        -12.0110   12.8450   52.9180 O.2    45  SER45      -0.2866
     33  CB        -9.7600   13.5620   54.9420 C.3    45  SER45       0.2089
     34  OG        -9.2620   13.7990   56.2380 O.3    45  SER45      -0.2183
     35  N         -3.4890    1.9690   58.3690 N.3    84  TYR84      -0.1227
     36  CA        -2.7870    2.7440   57.3820 C.3    84  TYR84       0.1736
     37  C         -1.9150    3.7450   58.1080 C.2    84  TYR84       0.2596
     38  O         -2.0530    3.9730   59.3220 O.2    84  TYR84      -0.2718
     39  CB        -3.7830    3.4410   56.4420 C.3    84  TYR84       0.0548
     40  CG        -4.9810    3.9860   57.1740 C.ar   84  TYR84      -0.0200
     41  CD1       -6.0720    3.1700   57.4630 C.ar   84  TYR84      -0.0009
     42  CD2       -4.9910    5.2970   57.6250 C.ar   84  TYR84      -0.0009
     43  CE1       -7.1550    3.6360   58.1710 C.ar   84  TYR84       0.0417
     44  CE2       -6.0560    5.7780   58.3340 C.ar   84  TYR84       0.0417
     45  CZ        -7.1440    4.9440   58.6040 C.ar   84  TYR84       0.1957
     46  OH        -8.2160    5.4400   59.3010 O.3    84  TYR84      -0.2866
     47  N         -0.9900    4.3040   57.3600 N.am   85  THR85      -0.1939
     48  CA        -0.0090    5.2290   57.8820 C.3    85  THR85       0.2028
     49  C         -0.2050    6.5660   57.2070 C.2    85  THR85       0.2642
     50  O         -0.9340    6.6700   56.2080 O.2    85  THR85      -0.2714
     51  CB         1.4220    4.7580   57.6160 C.3    85  THR85       0.1808
     52  OG1        1.6040    4.5960   56.2330 O.3    85  THR85      -0.2208
     53  CG2        1.7150    3.4030   58.3270 C.3    85  THR85       0.0379
     54  N          0.4680    7.5900   57.7190 N.am   86  ASN86      -0.1957
     55  CA         0.6020    8.8230   56.9840 C.3    86  ASN86       0.1819
     56  C          1.6890    8.6120   55.9450 C.2    86  ASN86       0.2621
     57  O          2.3450    7.5660   55.9140 O.2    86  ASN86      -0.2715
     58  CB         0.9350    9.9960   57.9040 C.3    86  ASN86       0.1195
     59  CG         2.2660    9.8280   58.6380 C.2    86  ASN86       0.2630
     60  OD1        2.9560    8.7990   58.5290 O.2    86  ASN86      -0.2716
     61  ND2        2.6170   10.8430   59.4240 N.am   86  ASN86      -0.0877
     62  N          1.8450    9.6120   55.0780 N.am   87  GLN87      -0.1977
     63  CA         2.7110    9.4910   53.9180 C.3    87  GLN87       0.1601
     64  C          4.1120    9.0490   54.3230 C.2    87  GLN87       0.2287
     65  O          4.6810    8.1560   53.6970 O.2    87  GLN87      -0.2864
     66  CB         2.7640   10.8240   53.1360 C.3    87  GLN87       0.0394
     67  CG         1.3990   11.3290   52.6260 C.3    87  GLN87       0.0908
     68  CD         0.8360   10.4920   51.4890 C.2    87  GLN87       0.2608
     69  OE1        1.3260   10.5530   50.3600 O.2    87  GLN87      -0.2717
     70  NE2       -0.1970    9.7080   51.7820 N.am   87  GLN87      -0.0878
     71  N         -2.5100    4.4720   61.9810 N.3    93  PHE93      -0.1241
     72  CA        -3.9100    4.6600   62.3120 C.3    93  PHE93       0.1605
     73  C         -4.6600    3.3340   62.2270 C.2    93  PHE93       0.2264
     74  O         -4.3880    2.5250   61.3320 O.2    93  PHE93      -0.2867
     75  CB        -4.5710    5.6840   61.3740 C.3    93  PHE93       0.0534
     76  CG        -3.9090    6.9830   61.3610 C.ar   93  PHE93      -0.0203
     77  CD1       -2.8360    7.2200   60.4970 C.ar   93  PHE93      -0.0042
     78  CD2       -4.3560    7.9840   62.2240 C.ar   93  PHE93      -0.0042
     79  CE1       -2.1870    8.4720   60.4960 C.ar   93  PHE93      -0.0003
     80  CE2       -3.7550    9.2390   62.2230 C.ar   93  PHE93      -0.0003
     81  CZ        -2.6380    9.4750   61.3620 C.ar   93  PHE93      -0.0000
     82  N         -6.9980   16.3260   46.0240 N.3   124  PHE124     -0.1227
     83  CA        -6.9730   15.1420   46.8940 C.3   124  PHE124      0.1736
     84  C         -6.0600   14.0140   46.4060 C.2   124  PHE124      0.2595
     85  O         -5.6290   13.9510   45.2300 O.2   124  PHE124     -0.2718
     86  CB        -8.3990   14.5930   47.0750 C.3   124  PHE124      0.0547
     87  CG        -8.6010   13.8300   48.3540 C.ar  124  PHE124     -0.0202
     88  CD1       -8.1990   14.3570   49.5810 C.ar  124  PHE124     -0.0042
     89  CD2       -9.2270   12.6320   48.3430 C.ar  124  PHE124     -0.0042
     90  CE1       -8.4690   13.6950   50.7350 C.ar  124  PHE124     -0.0003
     91  CE2       -9.4890   11.9430   49.5360 C.ar  124  PHE124     -0.0003
     92  CZ        -9.1130   12.4730   50.7040 C.ar  124  PHE124     -0.0000
     93  N         -5.7450   13.1260   47.3250 N.am  125  TYR125     -0.1976
     94  CA        -4.8990   11.9880   47.0120 C.3   125  TYR125      0.1639
     95  C         -5.3700   11.1790   45.8130 C.2   125  TYR125      0.2290
     96  O         -6.5810   10.9630   45.6510 O.2   125  TYR125     -0.2864
     97  CB        -4.8820   11.0420   48.2290 C.3   125  TYR125      0.0560
     98  CG        -4.5440   11.7310   49.5420 C.ar  125  TYR125     -0.0198
     99  CD1       -3.2190   12.0240   49.9510 C.ar  125  TYR125     -0.0009
    100  CD2       -5.5660   12.0750   50.4080 C.ar  125  TYR125     -0.0009
    101  CE1       -2.9820   12.6860   51.1920 C.ar  125  TYR125      0.0417
    102  CE2       -5.3260   12.7130   51.5990 C.ar  125  TYR125      0.0417
    103  CZ        -4.0460   13.0180   51.9760 C.ar  125  TYR125      0.1957
    104  OH        -3.8610   13.6600   53.1840 O.3   125  TYR125     -0.2866
    105  N         -6.1920    7.8330   44.0500 N.3   127  ASP127     -0.1225
    106  CA        -6.6810    6.5520   44.5800 C.3   127  ASP127      0.1790
    107  C         -7.0660    6.6460   46.0520 C.2   127  ASP127      0.2440
    108  O         -6.5500    5.9620   46.9210 O.2   127  ASP127     -0.2733
    109  CB        -5.6590    5.5020   44.3330 C.3   127  ASP127      0.1423
    110  CG        -5.3350    5.3870   42.8680 C.2   127  ASP127      0.3668
    111  OD1       -6.2790    5.5520   42.0000 O.co2 127  ASP127     -0.2456
    112  OD2       -4.1510    5.1020   42.6110 O.co2 127  ASP127     -0.2456
    113  N         -8.0250    7.5170   46.3180 N.am  128  PRO128     -0.2718
    114  CA        -8.3210    7.7720   47.7270 C.3   128  PRO128      0.1535
    115  C         -9.0890    6.6230   48.4100 C.2   128  PRO128      0.2599
    116  O         -9.8310    5.8470   47.8070 O.2   128  PRO128     -0.2715
    117  CB        -9.2090    9.0030   47.6390 C.3   128  PRO128      0.0310
    118  CG        -9.9570    8.8010   46.3480 C.3   128  PRO128      0.0237
    119  CD        -8.9010    8.2770   45.3840 C.3   128  PRO128      0.0939
    120  N         -8.8460    6.5380   49.7230 N.am  129  SER129     -0.1936
    121  CA        -9.5440    5.6010   50.5790 C.3   129  SER129      0.2055
    122  C        -10.1840    6.3400   51.7310 C.2   129  SER129      0.2643
    123  O         -9.4670    6.7060   52.6680 O.2   129  SER129     -0.2714
    124  CB        -8.5420    4.6190   51.1180 C.3   129  SER129      0.2130
    125  OG        -9.1280    3.7690   52.1190 O.3   129  SER129     -0.2179
    126  N        -11.4900    6.5350   51.7000 N.am  130  PHE130     -0.1959
    127  CA       -12.1730    7.3230   52.6990 C.3   130  PHE130      0.1771
    128  C        -12.2780    6.4860   53.9670 C.2   130  PHE130      0.2619
    129  O        -12.6410    5.2960   53.9200 O.2   130  PHE130     -0.2715
    130  CB       -13.5310    7.7430   52.1960 C.3   130  PHE130      0.0574
    131  CG       -13.4430    8.5930   50.9460 C.ar  130  PHE130     -0.0200
    132  CD1      -13.1450    9.9220   51.0300 C.ar  130  PHE130     -0.0042
    133  CD2      -13.6180    8.0370   49.7030 C.ar  130  PHE130     -0.0042
    134  CE1      -12.9950   10.6810   49.8810 C.ar  130  PHE130     -0.0003
    135  CE2      -13.4940    8.7970   48.5450 C.ar  130  PHE130     -0.0003
    136  CZ       -13.1650   10.1140   48.6340 C.ar  130  PHE130     -0.0000
    137  N        -11.9160    7.0910   55.0850 N.am  131  HIS131     -0.1973
    138  CA       -11.9860    6.3770   56.3250 C.3   131  HIS131      0.1656
    139  C        -12.1310    7.2940   57.5330 C.2   131  HIS131      0.2291
    140  O        -11.7720    8.4720   57.5250 O.2   131  HIS131     -0.2864
    141  CB       -10.7030    5.5780   56.4840 C.3   131  HIS131      0.0771
    142  CG        -9.4840    6.4070   56.4660 C.ar  131  HIS131      0.0820
    143  ND1       -8.6700    6.5400   55.3680 N.ar  131  HIS131     -0.2267
    144  CD2       -8.9370    7.1730   57.4360 C.ar  131  HIS131      0.1154
    145  CE1       -7.6740    7.3580   55.6700 C.ar  131  HIS131      0.1986
    146  NE2       -7.8030    7.7250   56.9260 N.ar  131  HIS131     -0.2212
    147  N        -10.8270    7.5130   61.0470 N.3   133  SER133     -0.1217
    148  CA        -9.7590    7.1480   61.9920 C.3   133  SER133      0.1889
    149  C        -10.2440    7.0580   63.4340 C.2   133  SER133      0.2288
    150  O        -10.9970    7.9290   63.9030 O.2   133  SER133     -0.2866
    151  CB        -8.5040    8.0060   61.8970 C.3   133  SER133      0.2089
    152  OG        -7.8750    7.8570   60.6050 O.3   133  SER133     -0.2183
@<TRIPOS>BOND
     1   111   110   ar
     2   112   110   ar
     3   110   109    1
     4   105   106    1
     5   109   106    1
     6   106   107    1
     7    85    84    2
     8   119   113    1
     9   119   118    1
    10    96    95    2
    11    95    94    1
    12    82    83    1
    13   107   113   am
    14   107   108    2
    15   113   114    1
    16   118   117    1
    17    84    83    1
    18    84    93   am
    19    83    86    1
    20    94    93    1
    21    94    97    1
    22    86    87    1
    23   117   114    1
    24   114   115    1
    25   116   115    2
    26    97    98    1
    27    89    87   ar
    28    89    91   ar
    29    87    88   ar
    30   115   120   am
    31   135   136   ar
    32   135   133   ar
    33   136   134   ar
    34    91    92   ar
    35    98    99   ar
    36    98   100   ar
    37    88    90   ar
    38   133   131   ar
    39   120   121    1
    40   134   132   ar
    41    99   101   ar
    42    69    68    2
    43   100   102   ar
    44   121   124    1
    45   121   122    1
    46    92    90   ar
    47   131   132   ar
    48   131   130    1
    49   124   125    1
    50   101   103   ar
    51    68    70   am
    52    68    67    1
    53   102   103   ar
    54   126   122   am
    55   126   127    1
    56   122   123    2
    57   103   104    1
    58   130   127    1
    59    67    66    1
    60   127   128    1
    61    32    31    2
    62    66    63    1
    63    31    30    1
    64    65    64    2
    65    63    64    1
    66    63    62    1
    67   129   128    2
    68   128   137   am
    69    33    30    1
    70    33    34    1
    71    30    29    1
    72    62    56   am
    73   137   138    1
    74   143   145   ar
    75   143   142   ar
    76   145   146   ar
    77     3     2    1
    78     3     4    2
    79    57    56    2
    80    56    55    1
    81     2     1    1
    82     2     5    1
    83     8    10   ar
    84     8     6   ar
    85    50    49    2
    86    52    51    1
    87   138   141    1
    88   138   139    1
    89    39    40    1
    90    39    36    1
    91   142   141    1
    92   142   144   ar
    93    10     9   ar
    94   146   144   ar
    95    55    54    1
    96    55    58    1
    97     6     5    1
    98     6     7   ar
    99    40    41   ar
   100    40    42   ar
   101    49    54   am
   102    49    48    1
   103    47    48    1
   104    47    37   am
   105    36    37    1
   106    36    35    1
   107    41    43   ar
   108   140   139    2
   109    51    48    1
   110    51    53    1
   111    42    44   ar
   112    58    59    1
   113     9     7   ar
   114    37    38    2
   115    43    45   ar
   116    44    45   ar
   117    60    59    2
   118    45    46    1
   119    59    61   am
   120    26    28   ar
   121    26    24   ar
   122    21    22    2
   123    21    20    1
   124    28    27   ar
   125    24    23    1
   126    24    25   ar
   127    79    77   ar
   128    79    81   ar
   129    77    76   ar
   130    23    20    1
   131   152   151    1
   132    20    19    1
   133   147   148    1
   134    27    25   ar
   135    74    73    2
   136    76    75    1
   137    76    78   ar
   138    81    80   ar
   139    75    72    1
   140   151   148    1
   141    71    72    1
   142   148   149    1
   143    80    78   ar
   144    73    72    1
   145   149   150    2
   146    18    17    1
   147    17    16    1
   148    16    15    1
   149    15    12    1
   150    12    11    1
   151    12    13    1
   152    13    14    2
