@<TRIPOS>MOLECULE
tmp/5v1tA02.pdb
 170 158 0 0 0
SMALL
GASTEIGER

@<TRIPOS>ATOM
      1  N         28.9580  135.0550   77.4680 N.3   112  TYR112     -0.1241
      2  CA        29.5270  134.1890   78.4920 C.3   112  TYR112      0.1605
      3  C         30.8930  134.7270   78.9040 C.2   112  TYR112      0.2264
      4  O         31.9110  134.2460   78.4160 O.2   112  TYR112     -0.2867
      5  CB        29.6770  132.7520   77.9740 C.3   112  TYR112      0.0534
      6  CG        28.3870  132.0600   77.5800 C.ar  112  TYR112     -0.0201
      7  CD1       27.6670  132.4640   76.4620 C.ar  112  TYR112     -0.0009
      8  CD2       27.9090  130.9820   78.3090 C.ar  112  TYR112     -0.0009
      9  CE1       26.4940  131.8210   76.0960 C.ar  112  TYR112      0.0417
     10  CE2       26.7400  130.3340   77.9500 C.ar  112  TYR112      0.0417
     11  CZ        26.0370  130.7550   76.8440 C.ar  112  TYR112      0.1957
     12  OH        24.8740  130.1090   76.4890 O.3   112  TYR112     -0.2866
     13  N         23.2000  118.1870   84.6720 N.3   123  PHE123     -0.1227
     14  CA        22.4330  118.5040   83.4710 C.3   123  PHE123      0.1736
     15  C         23.0660  119.6390   82.6650 C.2   123  PHE123      0.2596
     16  O         22.5450  120.0280   81.6190 O.2   123  PHE123     -0.2718
     17  CB        20.9940  118.8750   83.8480 C.3   123  PHE123      0.0547
     18  CG        20.8910  120.0540   84.7810 C.ar  123  PHE123     -0.0202
     19  CD1       20.9460  121.3490   84.2950 C.ar  123  PHE123     -0.0042
     20  CD2       20.7350  119.8630   86.1450 C.ar  123  PHE123     -0.0042
     21  CE1       20.8520  122.4320   85.1510 C.ar  123  PHE123     -0.0003
     22  CE2       20.6380  120.9430   87.0050 C.ar  123  PHE123     -0.0003
     23  CZ        20.6970  122.2270   86.5070 C.ar  123  PHE123     -0.0000
     24  N         24.1870  120.1660   83.1530 N.am  124  CYS124     -0.1956
     25  CA        24.8480  121.3050   82.5160 C.3   124  CYS124      0.1843
     26  C         25.2550  120.9890   81.0770 C.2   124  CYS124      0.2625
     27  O         25.8960  119.9730   80.8170 O.2   124  CYS124     -0.2714
     28  CB        26.0770  121.7210   83.3250 C.3   124  CYS124      0.0997
     29  SG        26.8420  123.2610   82.7730 S.3   124  CYS124     -0.0797
     30  N         24.8870  121.8640   80.1440 N.am  125  PHE125     -0.1974
     31  CA        25.1680  121.6140   78.7310 C.3   125  PHE125      0.1639
     32  C         26.6260  121.8920   78.3460 C.2   125  PHE125      0.2290
     33  O         27.0330  121.6210   77.2160 O.2   125  PHE125     -0.2864
     34  CB        24.2310  122.4410   77.8390 C.3   125  PHE125      0.0560
     35  CG        24.2220  123.9160   78.1440 C.ar  125  PHE125     -0.0200
     36  CD1       25.3580  124.6900   77.9700 C.ar  125  PHE125     -0.0042
     37  CD2       23.0600  124.5320   78.5780 C.ar  125  PHE125     -0.0042
     38  CE1       25.3400  126.0470   78.2450 C.ar  125  PHE125     -0.0003
     39  CE2       23.0340  125.8840   78.8520 C.ar  125  PHE125     -0.0003
     40  CZ        24.1760  126.6450   78.6830 C.ar  125  PHE125     -0.0000
     41  N         21.6470  138.6490   77.5910 N.3   156  SER156     -0.1217
     42  CA        21.6380  137.6580   78.6610 C.3   156  SER156      0.1889
     43  C         23.0630  137.3270   79.0930 C.2   156  SER156      0.2288
     44  O         23.8920  136.9290   78.2750 O.2   156  SER156     -0.2866
     45  CB        20.9160  136.3870   78.2100 C.3   156  SER156      0.2089
     46  OG        20.9690  135.3860   79.2110 O.3   156  SER156     -0.2183
     47  N         25.3770  134.8830   80.9540 N.3   158  LEU158     -0.1245
     48  CA        25.4430  133.5030   81.4200 C.3   158  LEU158      0.1561
     49  C         26.8890  133.0940   81.7160 C.2   158  LEU158      0.2260
     50  O         27.6940  133.9130   82.1650 O.2   158  LEU158     -0.2867
     51  CB        24.8140  132.5670   80.3820 C.3   158  LEU158      0.0270
     52  CG        23.3590  132.8560   80.0120 C.3   158  LEU158      0.0019
     53  CD1       22.8760  131.8400   78.9940 C.3   158  LEU158      0.0001
     54  CD2       22.4670  132.8370   81.2450 C.3   158  LEU158      0.0001
     55  N         21.6520  135.2440   84.8890 N.3   185  THR185     -0.1218
     56  CA        21.1720  133.9880   85.4550 C.3   185  THR185      0.1862
     57  C         22.2620  133.3650   86.3290 C.2   185  THR185      0.2287
     58  O         23.3920  133.1770   85.8750 O.2   185  THR185     -0.2866
     59  CB        20.7380  133.0000   84.3450 C.3   185  THR185      0.1770
     60  OG1       19.7990  133.6420   83.4730 O.3   185  THR185     -0.2211
     61  CG2       20.0940  131.7690   84.9490 C.3   185  THR185      0.0375
     62  N         17.8020  136.1800   87.3240 N.3   208  VAL208     -0.1245
     63  CA        17.1400  134.8830   87.2130 C.3   208  VAL208      0.1561
     64  C         17.8860  133.8640   88.0720 C.2   208  VAL208      0.2260
     65  O         19.0960  133.6910   87.9290 O.2   208  VAL208     -0.2867
     66  CB        17.0870  134.3880   85.7520 C.3   208  VAL208      0.0252
     67  CG1       16.3240  133.0770   85.6550 C.3   208  VAL208      0.0019
     68  CG2       16.4530  135.4410   84.8520 C.3   208  VAL208      0.0019
     69  N         18.6480  130.0300   89.2840 N.3   210  SER210     -0.1217
     70  CA        18.5740  128.6340   88.8680 C.3   210  SER210      0.1889
     71  C         18.2600  127.7470   90.0640 C.2   210  SER210      0.2288
     72  O         19.0940  127.5480   90.9470 O.2   210  SER210     -0.2866
     73  CB        19.8790  128.1950   88.2060 C.3   210  SER210      0.2089
     74  OG        20.0100  128.7800   86.9230 O.3   210  SER210     -0.2183
     75  N         15.9780  124.0620   90.9600 N.3   212  GLN212     -0.1245
     76  CA        15.2760  122.9160   90.3870 C.3   212  GLN212      0.1566
     77  C         14.0720  122.5020   91.2260 C.2   212  GLN212      0.2260
     78  O         13.0520  122.0630   90.6890 O.2   212  GLN212     -0.2867
     79  CB        16.2310  121.7300   90.2380 C.3   212  GLN212      0.0367
     80  CG        17.5570  122.0870   89.5980 C.3   212  GLN212      0.0905
     81  CD        17.3930  122.9320   88.3490 C.2   212  GLN212      0.2608
     82  OE1       16.5710  122.6290   87.4820 O.2   212  GLN212     -0.2717
     83  NE2       18.1690  124.0050   88.2570 N.am  212  GLN212     -0.0878
     84  N         14.2570  129.8970   86.9760 N.3   247  ASN247     -0.1240
     85  CA        14.2650  128.9470   85.8720 C.3   247  ASN247      0.1653
     86  C         14.7280  127.5800   86.3460 C.2   247  ASN247      0.2266
     87  O         15.7890  127.4500   86.9590 O.2   247  ASN247     -0.2867
     88  CB        15.1610  129.4370   84.7330 C.3   247  ASN247      0.1155
     89  CG        15.0650  128.5560   83.4990 C.2   247  ASN247      0.2627
     90  OD1       14.0540  128.5610   82.7970 O.2   247  ASN247     -0.2716
     91  ND2       16.1210  127.7970   83.2280 N.am  247  ASN247     -0.0877
     92  N         15.2460  123.3960   85.1260 N.3   249  VAL249     -0.1245
     93  CA        15.3690  122.4760   84.0060 C.3   249  VAL249      0.1561
     94  C         14.5930  121.2110   84.3460 C.2   249  VAL249      0.2260
     95  O         14.7770  120.6290   85.4140 O.2   249  VAL249     -0.2867
     96  CB        16.8370  122.1300   83.6930 C.3   249  VAL249      0.0252
     97  CG1       16.9260  121.3350   82.4000 C.3   249  VAL249      0.0019
     98  CG2       17.6720  123.3910   83.5870 C.3   249  VAL249      0.0019
     99  N          8.5190  135.7890   87.1510 N.3   272  ARG272     -0.1245
    100  CA         8.3750  134.7820   86.1090 C.3   272  ARG272      0.1563
    101  C          9.0150  133.4690   86.5410 C.2   272  ARG272      0.2260
    102  O         10.1740  133.4390   86.9560 O.2   272  ARG272     -0.2867
    103  CB         9.0040  135.2740   84.8050 C.3   272  ARG272      0.0307
    104  CG         8.7470  134.3850   83.6050 C.3   272  ARG272      0.0489
    105  CD         9.2790  135.0330   82.3400 C.3   272  ARG272      0.2205
    106  NE         8.9560  134.2630   81.1420 N.pl3 272  ARG272     -0.0865
    107  CZ         9.7270  133.3160   80.6150 C.cat 272  ARG272      0.5346
    108  NH1       10.8900  132.9930   81.1730 N.pl3 272  ARG272      0.1354
    109  NH2        9.3310  132.6860   79.5190 N.pl3 272  ARG272      0.1354
    110  N          9.8990  129.8180   84.9970 N.3   274  SER274     -0.1217
    111  CA        10.0250  129.0590   83.7580 C.3   274  SER274      0.1889
    112  C         10.5780  127.6570   84.0080 C.2   274  SER274      0.2288
    113  O         11.4940  127.4710   84.8100 O.2   274  SER274     -0.2866
    114  CB        10.9210  129.8050   82.7660 C.3   274  SER274      0.2089
    115  OG        12.1920  130.0790   83.3280 O.3   274  SER274     -0.2183
    116  N         12.3290  124.7270   81.8570 N.3   276  ALA276     -0.1231
    117  CA        12.9810  124.5260   80.5710 C.3   276  ALA276      0.1694
    118  C         13.0500  123.0570   80.1790 C.2   276  ALA276      0.2592
    119  O         13.1860  122.1730   81.0290 O.2   276  ALA276     -0.2718
    120  CB        14.3800  125.1160   80.5980 C.3   276  ALA276      0.0304
    121  N         12.9540  122.8090   78.8780 N.am  277  ASN277     -0.1960
    122  CA        13.2410  121.4980   78.3270 C.3   277  ASN277      0.1819
    123  C         14.7000  121.1470   78.5830 C.2   277  ASN277      0.2621
    124  O         15.5810  121.9950   78.4370 O.2   277  ASN277     -0.2715
    125  CB        12.9430  121.4710   76.8280 C.3   277  ASN277      0.1195
    126  CG        13.2370  120.1250   76.1970 C.2   277  ASN277      0.2630
    127  OD1       12.9090  119.0780   76.7550 O.2   277  ASN277     -0.2716
    128  ND2       13.8660  120.1470   75.0270 N.am  277  ASN277     -0.0877
    129  N         14.9490  119.9060   78.9840 N.am  278  TYR278     -0.1960
    130  CA        16.3060  119.4160   79.1830 C.3   278  TYR278      0.1771
    131  C         16.9480  119.1270   77.8280 C.2   278  TYR278      0.2620
    132  O         16.6240  118.1310   77.1830 O.2   278  TYR278     -0.2715
    133  CB        16.2850  118.1620   80.0600 C.3   278  TYR278      0.0574
    134  CG        17.6400  117.5680   80.3810 C.ar  278  TYR278     -0.0198
    135  CD1       18.8040  118.3240   80.2850 C.ar  278  TYR278     -0.0009
    136  CD2       17.7510  116.2400   80.7810 C.ar  278  TYR278     -0.0009
    137  CE1       20.0360  117.7720   80.5800 C.ar  278  TYR278      0.0417
    138  CE2       18.9750  115.6820   81.0760 C.ar  278  TYR278      0.0417
    139  CZ        20.1140  116.4490   80.9760 C.ar  278  TYR278      0.1957
    140  OH        21.3330  115.8860   81.2740 O.3   278  TYR278     -0.2866
    141  N         17.8550  120.0040   77.4020 N.am  279  SER279     -0.1950
    142  CA        18.4570  119.9130   76.0730 C.3   279  SER279      0.1924
    143  C         19.7800  119.1500   76.0800 C.2   279  SER279      0.2314
    144  O         20.6880  119.4660   76.8520 O.2   279  SER279     -0.2863
    145  CB        18.6780  121.3140   75.4990 C.3   279  SER279      0.2116
    146  OG        19.2080  121.2480   74.1860 O.3   279  SER279     -0.2180
    147  N         25.9420  116.7450   78.1440 N.3   285  THR285     -0.1218
    148  CA        25.1190  116.5010   79.3200 C.3   285  THR285      0.1862
    149  C         25.3190  115.0720   79.8230 C.2   285  THR285      0.2287
    150  O         25.6300  114.1710   79.0420 O.2   285  THR285     -0.2866
    151  CB        23.6300  116.7430   79.0210 C.3   285  THR285      0.1770
    152  OG1       23.1900  115.8450   77.9960 O.3   285  THR285     -0.2211
    153  CG2       23.3960  118.1820   78.5700 C.3   285  THR285      0.0375
    154  N          9.4510  126.2150   78.2400 N.3   319  GLU319     -0.1245
    155  CA        10.2650  126.6340   77.1020 C.3   319  GLU319      0.1567
    156  C         11.1700  125.5260   76.5820 C.2   319  GLU319      0.2260
    157  O         11.6910  124.7180   77.3480 O.2   319  GLU319     -0.2867
    158  CB        11.1210  127.8420   77.4870 C.3   319  GLU319      0.0388
    159  CG        10.3220  129.0870   77.8110 C.3   319  GLU319      0.1160
    160  CD        11.1970  130.2230   78.2990 C.2   319  GLU319      0.3649
    161  OE1       12.1790  129.9530   79.0240 O.co2 319  GLU319     -0.2457
    162  OE2       10.9050  131.3870   77.9540 O.co2 319  GLU319     -0.2457
    163  N         24.3090  127.9880   71.3660 N.3   366  ILE366     -0.1245
    164  CA        25.1700  127.2100   72.2480 C.3   366  ILE366      0.1561
    165  C         25.3300  125.7890   71.7090 C.2   366  ILE366      0.2260
    166  O         26.3090  125.1070   72.0030 O.2   366  ILE366     -0.2867
    167  CB        24.6050  127.1710   73.6890 C.3   366  ILE366      0.0252
    168  CG1       25.6110  126.5540   74.6670 C.3   366  ILE366      0.0019
    169  CG2       23.2760  126.4170   73.7340 C.3   366  ILE366      0.0019
    170  CD1       26.8620  127.3860   74.8760 C.3   366  ILE366      0.0001
@<TRIPOS>BOND
     1   163   164    1
     2   165   166    2
     3   165   164    1
     4   164   167    1
     5   167   169    1
     6   167   168    1
     7   146   145    1
     8   168   170    1
     9   128   126   am
    10   145   142    1
    11   142   143    1
    12   142   141    1
    13   143   144    2
    14     9     7   ar
    15     9    11   ar
    16   126   127    2
    17   126   125    1
    18     7     6   ar
    19    12    11    1
    20   156   155    1
    21   156   157    2
    22   125   122    1
    23    11    10   ar
    24   155   158    1
    25   155   154    1
    26   132   131    2
    27    33    32    2
    28   141   131   am
    29     1     2    1
    30   158   159    1
    31     6     5    1
    32     6     8   ar
    33    41    42    1
    34   159   160    1
    35   131   130    1
    36    34    35    1
    37    34    31    1
    38    10     8   ar
    39   162   160   ar
    40    36    35   ar
    41    36    38   ar
    42     5     2    1
    43   152   151    1
    44   147   148    1
    45    35    37   ar
    46    45    42    1
    47    45    46    1
    48    38    40   ar
    49    44    43    2
    50   160   161   ar
    51   122   123    1
    52   122   121    1
    53    32    31    1
    54     4     3    2
    55   124   123    2
    56     2     3    1
    57   153   151    1
    58    37    39   ar
    59   123   129   am
    60    42    43    1
    61    40    39   ar
    62    31    30    1
    63   121   118   am
    64   129   130    1
    65    53    52    1
    66   151   148    1
    67   150   149    2
    68   130   133    1
    69   148   149    1
    70   109   107    1
    71    52    51    1
    72    52    54    1
    73   133   134    1
    74    30    26   am
    75   118   117    1
    76   118   119    2
    77   135   134   ar
    78   135   137   ar
    79   134   136   ar
    80    51    48    1
    81   117   120    1
    82   117   116    1
    83   137   139   ar
    84   107   106    2
    85   107   108    1
    86   136   138   ar
    87    27    26    2
    88    47    48    1
    89   139   138   ar
    90   139   140    1
    91    26    25    1
    92   106   105    1
    93    48    49    1
    94    16    15    2
    95    49    50    2
    96   105   104    1
    97    97    96    1
    98    25    24    1
    99    25    28    1
   100    15    24   am
   101    15    14    1
   102   114   115    1
   103   114   111    1
   104    29    28    1
   105    90    89    2
   106    91    89   am
   107    14    17    1
   108    14    13    1
   109    60    59    1
   110    89    88    1
   111    98    96    1
   112   104   103    1
   113    96    93    1
   114   111   112    1
   115   111   110    1
   116    17    18    1
   117    93    94    1
   118    93    92    1
   119   112   113    2
   120    19    18   ar
   121    19    21   ar
   122    59    61    1
   123    59    56    1
   124    94    95    2
   125    88    85    1
   126    18    20   ar
   127   103   100    1
   128    68    66    1
   129    55    56    1
   130    21    23   ar
   131    56    57    1
   132    67    66    1
   133    66    63    1
   134    85    86    1
   135    85    84    1
   136    58    57    2
   137   100   101    1
   138   100    99    1
   139    20    22   ar
   140    86    87    2
   141    23    22   ar
   142   101   102    2
   143    74    73    1
   144    63    62    1
   145    63    64    1
   146    82    81    2
   147    65    64    2
   148    73    70    1
   149    83    81   am
   150    81    80    1
   151    70    69    1
   152    70    71    1
   153    80    79    1
   154    71    72    2
   155    79    76    1
   156    76    75    1
   157    76    77    1
   158    78    77    2
