@<TRIPOS>MOLECULE
tmp/5v1tA01.pdb
 128 124 0 0 0
SMALL
GASTEIGER

@<TRIPOS>ATOM
      1  N         28.9580  135.0550   77.4680 N.3   112  TYR112     -0.1241
      2  CA        29.5270  134.1890   78.4920 C.3   112  TYR112      0.1605
      3  C         30.8930  134.7270   78.9040 C.2   112  TYR112      0.2264
      4  O         31.9110  134.2460   78.4160 O.2   112  TYR112     -0.2867
      5  CB        29.6770  132.7520   77.9740 C.3   112  TYR112      0.0534
      6  CG        28.3870  132.0600   77.5800 C.ar  112  TYR112     -0.0201
      7  CD1       27.6670  132.4640   76.4620 C.ar  112  TYR112     -0.0009
      8  CD2       27.9090  130.9820   78.3090 C.ar  112  TYR112     -0.0009
      9  CE1       26.4940  131.8210   76.0960 C.ar  112  TYR112      0.0417
     10  CE2       26.7400  130.3340   77.9500 C.ar  112  TYR112      0.0417
     11  CZ        26.0370  130.7550   76.8440 C.ar  112  TYR112      0.1957
     12  OH        24.8740  130.1090   76.4890 O.3   112  TYR112     -0.2866
     13  N         32.7410  127.8730   86.5820 N.3   117  CYS117     -0.1235
     14  CA        31.6270  127.7570   87.5140 C.3   117  CYS117      0.1677
     15  C         32.0650  127.0120   88.7690 C.2   117  CYS117      0.2270
     16  O         32.9090  126.1140   88.7080 O.2   117  CYS117     -0.2867
     17  CB        30.4430  127.0430   86.8630 C.3   117  CYS117      0.0956
     18  SG        28.9620  127.0290   87.8950 S.3   117  CYS117     -0.0801
     19  N         26.6210  120.9130   87.8120 N.3   121  CYS121     -0.1235
     20  CA        25.3050  120.3100   87.6070 C.3   121  CYS121      0.1677
     21  C         25.3660  119.1660   86.6030 C.2   121  CYS121      0.2270
     22  O         26.0030  119.2790   85.5580 O.2   121  CYS121     -0.2867
     23  CB        24.3000  121.3580   87.1240 C.3   121  CYS121      0.0956
     24  SG        24.1250  122.7930   88.2150 S.3   121  CYS121     -0.0801
     25  N         23.2000  118.1870   84.6720 N.3   123  PHE123     -0.1227
     26  CA        22.4330  118.5040   83.4710 C.3   123  PHE123      0.1736
     27  C         23.0660  119.6390   82.6650 C.2   123  PHE123      0.2596
     28  O         22.5450  120.0280   81.6190 O.2   123  PHE123     -0.2718
     29  CB        20.9940  118.8750   83.8480 C.3   123  PHE123      0.0547
     30  CG        20.8910  120.0540   84.7810 C.ar  123  PHE123     -0.0202
     31  CD1       20.9460  121.3490   84.2950 C.ar  123  PHE123     -0.0042
     32  CD2       20.7350  119.8630   86.1450 C.ar  123  PHE123     -0.0042
     33  CE1       20.8520  122.4320   85.1510 C.ar  123  PHE123     -0.0003
     34  CE2       20.6380  120.9430   87.0050 C.ar  123  PHE123     -0.0003
     35  CZ        20.6970  122.2270   86.5070 C.ar  123  PHE123     -0.0000
     36  N         24.1870  120.1660   83.1530 N.am  124  CYS124     -0.1956
     37  CA        24.8480  121.3050   82.5160 C.3   124  CYS124      0.1843
     38  C         25.2550  120.9890   81.0770 C.2   124  CYS124      0.2625
     39  O         25.8960  119.9730   80.8170 O.2   124  CYS124     -0.2714
     40  CB        26.0770  121.7210   83.3250 C.3   124  CYS124      0.0997
     41  SG        26.8420  123.2610   82.7730 S.3   124  CYS124     -0.0797
     42  N         24.8870  121.8640   80.1440 N.am  125  PHE125     -0.1960
     43  CA        25.1680  121.6140   78.7310 C.3   125  PHE125      0.1771
     44  C         26.6260  121.8920   78.3460 C.2   125  PHE125      0.2619
     45  O         27.0330  121.6210   77.2160 O.2   125  PHE125     -0.2715
     46  CB        24.2310  122.4410   77.8390 C.3   125  PHE125      0.0574
     47  CG        24.2220  123.9160   78.1440 C.ar  125  PHE125     -0.0200
     48  CD1       25.3580  124.6900   77.9700 C.ar  125  PHE125     -0.0042
     49  CD2       23.0600  124.5320   78.5780 C.ar  125  PHE125     -0.0042
     50  CE1       25.3400  126.0470   78.2450 C.ar  125  PHE125     -0.0003
     51  CE2       23.0340  125.8840   78.8520 C.ar  125  PHE125     -0.0003
     52  CZ        24.1760  126.6450   78.6830 C.ar  125  PHE125     -0.0000
     53  N         27.4100  122.4260   79.2780 N.am  126  LEU126     -0.1977
     54  CA        28.8180  122.7160   79.0100 C.3   126  LEU126      0.1596
     55  C         29.6940  121.4820   79.1970 C.2   126  LEU126      0.2287
     56  O         29.3820  120.6020   79.9990 O.2   126  LEU126     -0.2864
     57  CB        29.3150  123.8380   79.9180 C.3   126  LEU126      0.0297
     58  CG        28.5940  125.1790   79.8010 C.3   126  LEU126      0.0022
     59  CD1       29.1910  126.1620   80.7870 C.3   126  LEU126      0.0001
     60  CD2       28.6690  125.7270   78.3840 C.3   126  LEU126      0.0001
     61  N         25.3770  134.8830   80.9540 N.3   158  LEU158     -0.1231
     62  CA        25.4430  133.5030   81.4200 C.3   158  LEU158      0.1693
     63  C         26.8890  133.0940   81.7160 C.2   158  LEU158      0.2593
     64  O         27.6940  133.9130   82.1650 O.2   158  LEU158     -0.2718
     65  CB        24.8140  132.5670   80.3820 C.3   158  LEU158      0.0284
     66  CG        23.3590  132.8560   80.0120 C.3   158  LEU158      0.0019
     67  CD1       22.8760  131.8400   78.9940 C.3   158  LEU158      0.0001
     68  CD2       22.4670  132.8370   81.2450 C.3   158  LEU158      0.0001
     69  N         27.2070  131.8270   81.4660 N.am  159  GLY159     -0.1942
     70  CA        28.5150  131.2680   81.7590 C.3   159  GLY159      0.2014
     71  C         28.3770  129.7520   81.7640 C.2   159  GLY159      0.2639
     72  O         27.6450  129.2230   80.9260 O.2   159  GLY159     -0.2714
     73  N         29.0140  129.0410   82.6970 N.am  160  GLY160     -0.1939
     74  CA        29.7630  129.6160   83.8020 C.3   160  GLY160      0.2014
     75  C         28.8440  130.2590   84.8220 C.2   160  GLY160      0.2639
     76  O         27.6680  130.4910   84.5450 O.2   160  GLY160     -0.2714
     77  N         29.3730  130.5290   86.0100 N.am  161  GLU161     -0.1963
     78  CA        28.6390  131.2950   87.0060 C.3   161  GLU161      0.1718
     79  C         29.0480  132.7610   86.8930 C.2   161  GLU161      0.2458
     80  O         30.1500  133.1250   87.3020 O.2   161  GLU161     -0.2730
     81  CB        28.9050  130.7660   88.4160 C.3   161  GLU161      0.0428
     82  CG        28.2300  131.5860   89.5070 C.3   161  GLU161      0.1163
     83  CD        26.7650  131.8650   89.2090 C.2   161  GLU161      0.3649
     84  OE1       26.0340  130.9110   88.8620 O.co2 161  GLU161     -0.2457
     85  OE2       26.3480  133.0390   89.3090 O.co2 161  GLU161     -0.2457
     86  N         28.1630  133.6080   86.3330 N.am  162  PRO162     -0.2727
     87  CA        28.5520  134.9960   86.0520 C.3   162  PRO162      0.1402
     88  C         28.8450  135.8230   87.3010 C.2   162  PRO162      0.2269
     89  O         29.5090  136.8540   87.2010 O.2   162  PRO162     -0.2865
     90  CB        27.3370  135.5570   85.3080 C.3   162  PRO162      0.0296
     91  CG        26.1960  134.7290   85.7630 C.3   162  PRO162      0.0237
     92  CD        26.7520  133.3540   85.9830 C.3   162  PRO162      0.0939
     93  N         21.6520  135.2440   84.8890 N.3   185  THR185     -0.1203
     94  CA        21.1720  133.9880   85.4550 C.3   185  THR185      0.1994
     95  C         22.2620  133.3650   86.3290 C.2   185  THR185      0.2619
     96  O         23.3920  133.1770   85.8750 O.2   185  THR185     -0.2717
     97  CB        20.7380  133.0000   84.3450 C.3   185  THR185      0.1784
     98  OG1       19.7990  133.6420   83.4730 O.3   185  THR185     -0.2211
     99  CG2       20.0940  131.7690   84.9490 C.3   185  THR185      0.0376
    100  N         21.9140  133.0390   87.5750 N.am  186  THR186     -0.1938
    101  CA        22.9030  132.6510   88.5850 C.3   186  THR186      0.2028
    102  C         22.4160  131.5390   89.5190 C.2   186  THR186      0.2642
    103  O         21.2200  131.4180   89.7830 O.2   186  THR186     -0.2714
    104  CB        23.3000  133.8660   89.4530 C.3   186  THR186      0.1808
    105  OG1       24.1750  133.4480   90.5090 O.3   186  THR186     -0.2208
    106  CG2       22.0620  134.5230   90.0590 C.3   186  THR186      0.0379
    107  N         23.3530  130.7380   90.0250 N.am  187  ASN187     -0.1971
    108  CA        23.0310  129.7060   91.0090 C.3   187  ASN187      0.1688
    109  C         22.9140  130.3040   92.4110 C.2   187  ASN187      0.2292
    110  O         22.5280  129.6190   93.3590 O.2   187  ASN187     -0.2864
    111  CB        24.0780  128.5790   90.9860 C.3   187  ASN187      0.1181
    112  CG        25.4960  129.0680   91.2610 C.2   187  ASN187      0.2629
    113  OD1       25.7160  129.9880   92.0460 O.2   187  ASN187     -0.2716
    114  ND2       26.4680  128.4390   90.6110 N.am  187  ASN187     -0.0877
    115  N         18.6480  130.0300   89.2840 N.3   210  SER210     -0.1217
    116  CA        18.5740  128.6340   88.8680 C.3   210  SER210      0.1889
    117  C         18.2600  127.7470   90.0640 C.2   210  SER210      0.2288
    118  O         19.0940  127.5480   90.9470 O.2   210  SER210     -0.2866
    119  CB        19.8790  128.1950   88.2060 C.3   210  SER210      0.2089
    120  OG        20.0100  128.7800   86.9230 O.3   210  SER210     -0.2183
    121  N         22.1060  119.7280   91.3520 N.3   223  MET223     -0.1245
    122  CA        23.0020  120.8840   91.2860 C.3   223  MET223      0.1570
    123  C         24.2390  120.7350   92.1690 C.2   223  MET223      0.2261
    124  O         25.2440  121.4100   91.9500 O.2   223  MET223     -0.2867
    125  CB        22.2500  122.1560   91.6840 C.3   223  MET223      0.0387
    126  CG        21.1290  122.5360   90.7290 C.3   223  MET223      0.0595
    127  SD        20.3410  124.0980   91.1690 S.3   223  MET223     -0.1393
    128  CE        21.6650  125.2690   90.8660 C.3   223  MET223      0.0692
@<TRIPOS>BOND
     1     9     7   ar
     2     9    11   ar
     3     7     6   ar
     4    12    11    1
     5    11    10   ar
     6    45    44    2
     7     1     2    1
     8     6     5    1
     9     6     8   ar
    10    46    47    1
    11    46    43    1
    12    10     8   ar
    13    48    47   ar
    14    48    50   ar
    15     5     2    1
    16    47    49   ar
    17    50    52   ar
    18    44    43    1
    19    44    53   am
    20    60    58    1
    21     4     3    2
    22     2     3    1
    23    49    51   ar
    24    52    51   ar
    25    43    42    1
    26    67    66    1
    27    54    55    1
    28    54    53    1
    29    54    57    1
    30    55    56    2
    31    58    57    1
    32    58    59    1
    33    66    65    1
    34    66    68    1
    35    42    38   am
    36    65    62    1
    37    39    38    2
    38    72    71    2
    39    61    62    1
    40    38    37    1
    41    62    63    1
    42    69    63   am
    43    69    70    1
    44    28    27    2
    45    63    64    2
    46    70    71    1
    47    71    73   am
    48    37    36    1
    49    37    40    1
    50    27    36   am
    51    27    26    1
    52    73    74    1
    53    41    40    1
    54    26    29    1
    55    26    25    1
    56    98    97    1
    57    74    75    1
    58    29    30    1
    59    31    30   ar
    60    31    33   ar
    61    97    99    1
    62    97    94    1
    63    76    75    2
    64    30    32   ar
    65    75    77   am
    66    93    94    1
    67    33    35   ar
    68    90    91    1
    69    90    87    1
    70    94    95    1
    71    22    21    2
    72    91    92    1
    73    96    95    2
    74    92    86    1
    75    77    78    1
    76    87    86    1
    77    87    88    1
    78    32    34   ar
    79    95   100   am
    80    86    79   am
    81    35    34   ar
    82    13    14    1
    83    21    20    1
    84    17    14    1
    85    17    18    1
    86    79    78    1
    87    79    80    2
    88   120   119    1
    89    78    81    1
    90    23    20    1
    91    23    24    1
    92    89    88    2
    93    14    15    1
    94   100   101    1
    95    20    19    1
    96   119   116    1
    97    81    82    1
    98   101   104    1
    99   101   102    1
   100    16    15    2
   101    84    83   ar
   102   116   115    1
   103   116   117    1
   104    83    85   ar
   105    83    82    1
   106   104   106    1
   107   104   105    1
   108   102   103    2
   109   102   107   am
   110   107   108    1
   111   117   118    2
   112   114   112   am
   113   126   127    1
   114   126   125    1
   115   128   127    1
   116   111   108    1
   117   111   112    1
   118   108   109    1
   119   112   113    2
   120   122   121    1
   121   122   125    1
   122   122   123    1
   123   124   123    2
   124   109   110    2
