@<TRIPOS>MOLECULE
tmp/5v1xD00.pdb
 84 81 0 0 0
SMALL
GASTEIGER

@<TRIPOS>ATOM
      1  N         58.6810   20.8070  109.0610 N.3    25  GLY25      -0.1210
      2  CA        57.5220   19.9430  108.9300 C.3    25  GLY25       0.1956
      3  C         57.5720   18.9990  107.7460 C.2    25  GLY25       0.2613
      4  O         56.9070   17.9590  107.7700 O.2    25  GLY25      -0.2717
      5  N         58.3460   19.3300  106.7120 N.am   26  SER26      -0.1938
      6  CA        58.4030   18.4960  105.5170 C.3    26  SER26       0.2055
      7  C         59.1230   17.1810  105.7840 C.2    26  SER26       0.2643
      8  O         58.4890   16.1230  105.8670 O.2    26  SER26      -0.2714
      9  CB        59.0870   19.2390  104.3680 C.3    26  SER26       0.2130
     10  OG        58.2360   20.2280  103.8140 O.3    26  SER26      -0.2179
     11  N         60.4480   17.2330  105.9150 N.am   27  PHE27      -0.1973
     12  CA        61.2510   16.0320  106.0710 C.3    27  PHE27       0.1639
     13  C         61.8680   15.8820  107.4530 C.2    27  PHE27       0.2290
     14  O         62.4030   14.8110  107.7570 O.2    27  PHE27      -0.2864
     15  CB        62.3680   16.0030  105.0180 C.3    27  PHE27       0.0560
     16  CG        61.8700   16.0610  103.6020 C.ar   27  PHE27      -0.0200
     17  CD1       61.4610   14.9090  102.9500 C.ar   27  PHE27      -0.0042
     18  CD2       61.8220   17.2640  102.9190 C.ar   27  PHE27      -0.0042
     19  CE1       61.0080   14.9580  101.6450 C.ar   27  PHE27      -0.0003
     20  CE2       61.3700   17.3200  101.6140 C.ar   27  PHE27      -0.0003
     21  CZ        60.9620   16.1650  100.9770 C.ar   27  PHE27      -0.0000
     22  N         46.2580   15.3210  102.1890 N.3   113  PHE113     -0.1241
     23  CA        47.5920   15.2240  101.6140 C.3   113  PHE113      0.1605
     24  C         47.5100   14.5430  100.2560 C.2   113  PHE113      0.2264
     25  O         46.8200   13.5310  100.1010 O.2   113  PHE113     -0.2867
     26  CB        48.5150   14.4450  102.5480 C.3   113  PHE113      0.0534
     27  CG        49.9560   14.4490  102.1170 C.ar  113  PHE113     -0.0203
     28  CD1       50.7860   15.5100  102.4400 C.ar  113  PHE113     -0.0042
     29  CD2       50.4810   13.3900  101.3930 C.ar  113  PHE113     -0.0042
     30  CE1       52.1100   15.5180  102.0480 C.ar  113  PHE113     -0.0003
     31  CE2       51.8060   13.3930  100.9980 C.ar  113  PHE113     -0.0003
     32  CZ        52.6220   14.4590  101.3260 C.ar  113  PHE113     -0.0000
     33  N         48.4740   19.1240  106.0010 N.3   175  SER175     -0.1202
     34  CA        49.7450   19.4320  105.3440 C.3   175  SER175      0.2020
     35  C         49.7560   20.8690  104.8300 C.2   175  SER175      0.2618
     36  O         50.4460   21.7330  105.3800 O.2   175  SER175     -0.2717
     37  CB        50.0020   18.4380  104.2060 C.3   175  SER175      0.2103
     38  OG        51.1740   18.7750  103.4850 O.3   175  SER175     -0.2182
     39  N         48.9930   21.1340  103.7740 N.am  176  MET176     -0.1979
     40  CA        48.8990   22.4660  103.1830 C.3   176  MET176      0.1605
     41  C         47.4550   22.9690  103.1840 C.2   176  MET176      0.2287
     42  O         46.6260   22.4780  102.4170 O.2   176  MET176     -0.2864
     43  CB        49.4430   22.4560  101.7510 C.3   176  MET176      0.0413
     44  CG        50.9180   22.1000  101.6220 C.3   176  MET176      0.0598
     45  SD        52.0170   23.5250  101.7870 S.3   176  MET176     -0.1393
     46  CE        52.2090   23.6010  103.5560 C.3   176  MET176      0.0692
     47  N         51.5930   14.6640  110.6630 N.3   203  GLN203     -0.1245
     48  CA        51.9770   15.8230  111.4690 C.3   203  GLN203      0.1566
     49  C         51.4090   15.6540  112.8790 C.2   203  GLN203      0.2260
     50  O         50.4970   16.3580  113.3140 O.2   203  GLN203     -0.2867
     51  CB        51.4870   17.1120  110.8200 C.3   203  GLN203      0.0367
     52  CG        52.0130   17.3650  109.4150 C.3   203  GLN203      0.0905
     53  CD        53.4680   17.8050  109.3930 C.2   203  GLN203      0.2608
     54  OE1       54.1070   17.9440  110.4380 O.2   203  GLN203     -0.2717
     55  NE2       53.9970   18.0320  108.1950 N.am  203  GLN203     -0.0878
     56  N         63.9300   27.6080  102.7310 N.3   392  PHE392     -0.1241
     57  CA        62.8200   27.0570  101.9650 C.3   392  PHE392      0.1605
     58  C         61.5360   27.3030  102.7400 C.2   392  PHE392      0.2264
     59  O         61.4750   27.0230  103.9410 O.2   392  PHE392     -0.2867
     60  CB        63.0100   25.5590  101.6990 C.3   392  PHE392      0.0534
     61  CG        62.0000   24.9810  100.7470 C.ar  392  PHE392     -0.0203
     62  CD1       60.7840   24.4960  101.2100 C.ar  392  PHE392     -0.0042
     63  CD2       62.2650   24.9210   99.3880 C.ar  392  PHE392     -0.0042
     64  CE1       59.8530   23.9660  100.3370 C.ar  392  PHE392     -0.0003
     65  CE2       61.3390   24.3910   98.5090 C.ar  392  PHE392     -0.0003
     66  CZ        60.1290   23.9120   98.9850 C.ar  392  PHE392     -0.0000
     67  N         57.3850   26.5740  102.1860 N.3   394  PRO394     -0.2116
     68  CA        56.2690   26.0990  101.3630 C.3   394  PRO394      0.1372
     69  C         55.0910   27.0570  101.4440 C.2   394  PRO394      0.2244
     70  O         54.8270   27.6630  102.4850 O.2   394  PRO394     -0.2868
     71  CB        55.9320   24.7370  101.9770 C.3   394  PRO394      0.0268
     72  CG        56.3160   24.8880  103.4080 C.3   394  PRO394      0.0207
     73  CD        57.5230   25.7960  103.4290 C.3   394  PRO394      0.0892
     74  N         53.9560   28.6500  104.7970 N.3   405  ARG405     -0.1245
     75  CA        53.8930   27.8100  105.9890 C.3   405  ARG405      0.1563
     76  C         55.2720   27.7380  106.6320 C.2   405  ARG405      0.2260
     77  O         56.2130   27.2040  106.0360 O.2   405  ARG405     -0.2867
     78  CB        53.3870   26.4080  105.6490 C.3   405  ARG405      0.0307
     79  CG        52.9210   25.6140  106.8630 C.3   405  ARG405      0.0489
     80  CD        53.8640   24.4730  107.1870 C.3   405  ARG405      0.2205
     81  NE        53.9870   23.5580  106.0580 N.pl3 405  ARG405     -0.0865
     82  CZ        54.4810   22.3270  106.1230 C.cat 405  ARG405      0.5346
     83  NH1       54.9100   21.8380  107.2770 N.pl3 405  ARG405      0.1354
     84  NH2       54.5420   21.5840  105.0280 N.pl3 405  ARG405      0.1354
@<TRIPOS>BOND
     1    65    66   ar
     2    65    63   ar
     3    66    64   ar
     4    63    61   ar
     5    25    24    2
     6    24    23    1
     7    64    62   ar
     8    61    62   ar
     9    61    60    1
    10    21    20   ar
    11    21    19   ar
    12    31    32   ar
    13    31    29   ar
    14    32    30   ar
    15    68    69    1
    16    68    71    1
    17    68    67    1
    18    29    27   ar
    19    69    70    2
    20    20    18   ar
    21    23    22    1
    22    23    26    1
    23    44    43    1
    24    44    45    1
    25    19    17   ar
    26    60    57    1
    27    43    40    1
    28    45    46    1
    29    57    56    1
    30    57    58    1
    31    71    72    1
    32    30    28   ar
    33    27    28   ar
    34    27    26    1
    35    67    73    1
    36    42    41    2
    37    58    59    2
    38    18    16   ar
    39    17    16   ar
    40    40    41    1
    41    40    39    1
    42    72    73    1
    43    38    37    1
    44    16    15    1
    45    39    35   am
    46    10     9    1
    47    37    34    1
    48     9     6    1
    49    74    75    1
    50    35    34    1
    51    35    36    2
    52    15    12    1
    53    84    82    1
    54    34    33    1
    55     6     7    1
    56     6     5    1
    57    78    75    1
    58    78    79    1
    59     7     8    2
    60     7    11   am
    61    11    12    1
    62    75    76    1
    63    77    76    2
    64    81    82    2
    65    81    80    1
    66    12    13    1
    67    82    83    1
    68     5     3   am
    69    79    80    1
    70    13    14    2
    71     3     4    2
    72     3     2    1
    73    55    53   am
    74     2     1    1
    75    53    52    1
    76    53    54    2
    77    52    51    1
    78    47    48    1
    79    51    48    1
    80    48    49    1
    81    49    50    2
