@<TRIPOS>MOLECULE
tmp/5v2cV31.pdb
 199 194 0 0 0
SMALL
GASTEIGER

@<TRIPOS>ATOM
      1  N         16.0430   10.2450  104.2050 N.3   136  TRP136     -0.1241
      2  CA        16.2030    9.8870  105.6440 C.3   136  TRP136      0.1605
      3  C         16.9670    8.5550  105.8320 C.2   136  TRP136      0.2264
      4  O         17.7470    8.3800  106.7720 O.2   136  TRP136     -0.2867
      5  CB        14.8490    9.7430  106.3310 C.3   136  TRP136      0.0550
      6  CG        14.0420   10.9800  106.4070 C.ar  136  TRP136      0.0003
      7  CD1       12.8420   11.2080  105.7950 C.ar  136  TRP136      0.0946
      8  CD2       14.3110   12.1320  107.1900 C.ar  136  TRP136      0.0152
      9  NE1       12.3670   12.4530  106.1340 N.ar  136  TRP136     -0.2442
     10  CE2       13.2380   13.0280  107.0040 C.ar  136  TRP136      0.0810
     11  CE3       15.3490   12.5020  108.0380 C.ar  136  TRP136      0.0012
     12  CZ2       13.1680   14.2580  107.6390 C.ar  136  TRP136      0.0191
     13  CZ3       15.2760   13.7540  108.6700 C.ar  136  TRP136      0.0001
     14  CH2       14.1940   14.6050  108.4620 C.ar  136  TRP136      0.0015
     15  N         22.1310    6.8400  105.3990 N.3   139  LYS139     -0.1245
     16  CA        22.7180    7.0540  106.7170 C.3   139  LYS139      0.1561
     17  C         23.8920    8.0220  106.6240 C.2   139  LYS139      0.2260
     18  O         24.1180    8.8140  107.5310 O.2   139  LYS139     -0.2867
     19  CB        23.1820    5.7570  107.3690 C.3   139  LYS139      0.0271
     20  CG        22.1240    4.6820  107.5070 C.3   139  LYS139      0.0035
     21  CD        22.7040    3.4980  108.2640 C.3   139  LYS139      0.0206
     22  CE        21.6830    2.3730  108.3750 C.3   139  LYS139      0.1093
     23  NZ        21.2830    1.8280  107.0550 N.3   139  LYS139     -0.1314
     24  N         22.5920   11.6520  106.3600 N.3   142  MET142     -0.1230
     25  CA        22.1340   12.0610  107.6290 C.3   142  MET142      0.1702
     26  C         23.2850   12.4680  108.5620 C.2   142  MET142      0.2593
     27  O         23.1970   13.5240  109.2020 O.2   142  MET142     -0.2718
     28  CB        21.3070   10.9580  108.2350 C.3   142  MET142      0.0401
     29  CG        19.9910   10.7520  107.5570 C.3   142  MET142      0.0596
     30  SD        18.8680   12.1460  107.4970 S.3   142  MET142     -0.1393
     31  CE        19.1550   12.7670  105.8790 C.3   142  MET142      0.0692
     32  N         24.3550   11.6780  108.6290 N.am  143  THR143     -0.1953
     33  CA        25.4980   12.0510  109.5150 C.3   143  THR143      0.1897
     34  C         26.2350   13.2920  109.0330 C.2   143  THR143      0.2313
     35  O         26.7650   14.0750  109.8210 O.2   143  THR143     -0.2863
     36  CB        26.5030   10.8980  109.7940 C.3   143  THR143      0.1794
     37  OG1       26.9400   10.2690  108.5840 O.3   143  THR143     -0.2208
     38  CG2       25.8550    9.8630  110.7240 C.3   143  THR143      0.0378
     39  N         24.7360   15.9460  107.5250 N.3   145  ILE145     -0.1231
     40  CA        23.9350   17.1000  107.9180 C.3   145  ILE145      0.1692
     41  C         24.0240   17.3360  109.4430 C.2   145  ILE145      0.2591
     42  O         24.1940   18.4700  109.8970 O.2   145  ILE145     -0.2718
     43  CB        22.4750   16.9680  107.4440 C.3   145  ILE145      0.0266
     44  CG1       22.4490   16.9540  105.9240 C.3   145  ILE145      0.0019
     45  CG2       21.6220   18.1450  107.9550 C.3   145  ILE145      0.0020
     46  CD1       21.1170   16.6280  105.3790 C.3   145  ILE145      0.0001
     47  N         23.9110   16.2560  110.2060 N.am  146  LEU146     -0.1980
     48  CA        24.2290   16.2620  111.6120 C.3   146  LEU146      0.1596
     49  C         25.5490   16.9800  111.8970 C.2   146  LEU146      0.2287
     50  O         25.6230   17.8600  112.7730 O.2   146  LEU146     -0.2864
     51  CB        24.3040   14.8250  112.1410 C.3   146  LEU146      0.0297
     52  CG        24.7610   14.6200  113.5860 C.3   146  LEU146      0.0022
     53  CD1       23.9740   15.4110  114.5970 C.3   146  LEU146      0.0001
     54  CD2       24.7240   13.1580  113.9380 C.3   146  LEU146      0.0001
     55  N         25.5810   20.7660  111.4120 N.3   149  HIS149     -0.1226
     56  CA        24.8940   21.3800  112.5110 C.3   149  HIS149      0.1752
     57  C         25.7450   21.2830  113.8070 C.2   149  HIS149      0.2595
     58  O         25.7690   22.2180  114.5990 O.2   149  HIS149     -0.2718
     59  CB        23.4510   20.8520  112.6270 C.3   149  HIS149      0.0759
     60  CG        22.6040   21.1110  111.4060 C.ar  149  HIS149      0.0818
     61  ND1       21.4670   20.3960  111.1260 N.ar  149  HIS149     -0.2268
     62  CD2       22.7370   22.0110  110.3930 C.ar  149  HIS149      0.1154
     63  CE1       20.9360   20.8440  109.9910 C.ar  149  HIS149      0.1986
     64  NE2       21.6620   21.8560  109.5390 N.ar  149  HIS149     -0.2212
     65  N         26.4910   20.2040  114.0110 N.am  150  LEU150     -0.1980
     66  CA        27.3910   20.1390  115.1740 C.3   150  LEU150      0.1596
     67  C         28.4360   21.2500  115.1260 C.2   150  LEU150      0.2287
     68  O         28.7070   21.9050  116.1330 O.2   150  LEU150     -0.2864
     69  CB        28.0790   18.7880  115.2750 C.3   150  LEU150      0.0297
     70  CG        27.1900   17.7220  115.8810 C.3   150  LEU150      0.0022
     71  CD1       27.8270   16.3580  115.6530 C.3   150  LEU150      0.0001
     72  CD2       26.9530   17.9540  117.3820 C.3   150  LEU150      0.0001
     73  N         26.8170   24.5390  116.1020 N.3   153  LEU153     -0.1245
     74  CA        26.6570   24.6110  117.5560 C.3   153  LEU153      0.1561
     75  C         27.9920   24.8720  118.2900 C.2   153  LEU153      0.2260
     76  O         28.0170   25.6350  119.2650 O.2   153  LEU153     -0.2867
     77  CB        25.9740   23.3420  118.1060 C.3   153  LEU153      0.0270
     78  CG        24.5140   23.1930  117.6970 C.3   153  LEU153      0.0019
     79  CD1       23.9990   21.7770  117.9580 C.3   153  LEU153      0.0001
     80  CD2       23.6730   24.2160  118.4520 C.3   153  LEU153      0.0001
     81  N         33.1140   22.1810  124.9770 N.3   225  ILE225     -0.1245
     82  CA        31.9340   21.8070  124.1980 C.3   225  ILE225      0.1561
     83  C         32.0400   22.3220  122.7600 C.2   225  ILE225      0.2260
     84  O         31.5960   21.6910  121.7870 O.2   225  ILE225     -0.2867
     85  CB        30.6630   22.2760  124.9210 C.3   225  ILE225      0.0252
     86  CG1       30.1510   21.1430  125.7960 C.3   225  ILE225      0.0019
     87  CG2       29.5580   22.7170  123.9540 C.3   225  ILE225      0.0019
     88  CD1       29.7650   19.8390  125.0720 C.3   225  ILE225      0.0001
     89  N         34.6350   19.9860  121.1480 N.3   228  ILE228     -0.1231
     90  CA        33.9870   18.7130  121.0540 C.3   228  ILE228      0.1692
     91  C         33.0050   18.6600  119.8900 C.2   228  ILE228      0.2592
     92  O         33.0560   17.7240  119.0970 O.2   228  ILE228     -0.2718
     93  CB        33.3100   18.3210  122.3710 C.3   228  ILE228      0.0266
     94  CG1       34.3880   17.8290  123.3400 C.3   228  ILE228      0.0019
     95  CG2       32.2880   17.2070  122.1680 C.3   228  ILE228      0.0020
     96  CD1       33.8950   17.8210  124.7720 C.3   228  ILE228      0.0001
     97  N         32.1420   19.6600  119.7900 N.am  229  CYS229     -0.1970
     98  CA        31.1340   19.7190  118.7500 C.3   229  CYS229      0.1712
     99  C         31.7200   19.9020  117.3370 C.2   229  CYS229      0.2296
    100  O         31.2540   19.2560  116.3950 O.2   229  CYS229     -0.2864
    101  CB        30.1440   20.8470  119.0700 C.3   229  CYS229      0.0983
    102  SG        28.9780   20.4350  120.3620 S.3   229  CYS229     -0.0798
    103  N         27.8200    5.5590  109.7620 N.3   241  PRO241     -0.2116
    104  CA        27.6540    4.7790  110.9850 C.3   241  PRO241      0.1372
    105  C         28.1920    3.3300  110.9490 C.2   241  PRO241      0.2244
    106  O         27.9990    2.6030  109.9910 O.2   241  PRO241     -0.2868
    107  CB        26.1400    4.8090  111.1870 C.3   241  PRO241      0.0268
    108  CG        25.7460    6.1290  110.6680 C.3   241  PRO241      0.0207
    109  CD        26.5790    6.2900  109.4370 C.3   241  PRO241      0.0892
    110  N         27.5850   -1.7500  114.4440 N.3   244  TRP244     -0.1241
    111  CA        26.8850   -1.8420  115.7250 C.3   244  TRP244      0.1605
    112  C         25.7960   -0.7680  115.8490 C.2   244  TRP244      0.2264
    113  O         24.6860   -1.0220  116.3810 O.2   244  TRP244     -0.2867
    114  CB        27.8580   -1.8190  116.9020 C.3   244  TRP244      0.0550
    115  CG        28.6650   -0.5810  117.0590 C.ar  244  TRP244      0.0003
    116  CD1       29.9660   -0.3680  116.6290 C.ar  244  TRP244      0.0946
    117  CD2       28.2700    0.6210  117.7390 C.ar  244  TRP244      0.0152
    118  NE1       30.3700    0.9000  116.9790 N.ar  244  TRP244     -0.2442
    119  CE2       29.3620    1.5250  117.6630 C.ar  244  TRP244      0.0810
    120  CE3       27.1020    1.0250  118.4040 C.ar  244  TRP244      0.0012
    121  CZ2       29.3230    2.8110  118.2500 C.ar  244  TRP244      0.0191
    122  CZ3       27.0730    2.3080  118.9860 C.ar  244  TRP244      0.0001
    123  CH2       28.1590    3.1770  118.8770 C.ar  244  TRP244      0.0015
    124  N         19.7810    1.1250  115.9040 N.3   249  PHE249     -0.1241
    125  CA        18.8050    2.1790  115.6870 C.3   249  PHE249      0.1605
    126  C         17.8050    1.9010  114.6050 C.2   249  PHE249      0.2264
    127  O         17.9940    1.0270  113.7640 O.2   249  PHE249     -0.2867
    128  CB        19.5400    3.4890  115.3580 C.3   249  PHE249      0.0534
    129  CG        20.3540    4.0200  116.4800 C.ar  249  PHE249     -0.0203
    130  CD1       19.7500    4.7400  117.5120 C.ar  249  PHE249     -0.0042
    131  CD2       21.7260    3.8180  116.5310 C.ar  249  PHE249     -0.0042
    132  CE1       20.5040    5.2380  118.5870 C.ar  249  PHE249     -0.0003
    133  CE2       22.4890    4.2950  117.6260 C.ar  249  PHE249     -0.0003
    134  CZ        21.8620    5.0160  118.6550 C.ar  249  PHE249     -0.0000
    135  N         16.1390    3.7330  111.3940 N.3   251  TRP251     -0.1241
    136  CA        16.6650    4.7180  110.4490 C.3   251  TRP251      0.1605
    137  C         15.5080    5.2540  109.6130 C.2   251  TRP251      0.2264
    138  O         15.2010    4.7500  108.5500 O.2   251  TRP251     -0.2867
    139  CB        17.7560    4.0800  109.6030 C.3   251  TRP251      0.0550
    140  CG        18.8860    3.5480  110.4560 C.ar  251  TRP251      0.0003
    141  CD1       18.9580    2.3310  111.0220 C.ar  251  TRP251      0.0946
    142  CD2       20.0730    4.2540  110.8560 C.ar  251  TRP251      0.0152
    143  NE1       20.1260    2.2070  111.7620 N.ar  251  TRP251     -0.2442
    144  CE2       20.8290    3.3790  111.6720 C.ar  251  TRP251      0.0810
    145  CE3       20.5840    5.5310  110.5920 C.ar  251  TRP251      0.0012
    146  CZ2       22.0760    3.7400  112.2160 C.ar  251  TRP251      0.0191
    147  CZ3       21.8490    5.8880  111.1250 C.ar  251  TRP251      0.0001
    148  CH2       22.5630    5.0010  111.9390 C.ar  251  TRP251      0.0015
    149  N         14.3400    9.6420  113.8710 N.3   256  TYR256     -0.1241
    150  CA        15.2860   10.7160  114.1890 C.3   256  TYR256      0.1605
    151  C         14.5960   11.7940  115.0000 C.2   256  TYR256      0.2264
    152  O         15.1540   12.2930  115.9710 O.2   256  TYR256     -0.2867
    153  CB        15.9680   11.3300  112.9480 C.3   256  TYR256      0.0534
    154  CG        16.5840   10.3190  112.0260 C.ar  256  TYR256     -0.0201
    155  CD1       17.2310    9.1830  112.5120 C.ar  256  TYR256     -0.0009
    156  CD2       16.5400   10.5240  110.6610 C.ar  256  TYR256     -0.0009
    157  CE1       17.7810    8.2560  111.6590 C.ar  256  TYR256      0.0417
    158  CE2       17.0950    9.6080  109.7630 C.ar  256  TYR256      0.0417
    159  CZ        17.7120    8.4660  110.2520 C.ar  256  TYR256      0.1957
    160  OH        18.2640    7.5640  109.3450 O.3   256  TYR256     -0.2866
    161  N         14.4060   10.7030  118.5770 N.3   259  TYR259     -0.1227
    162  CA        15.6110   10.7720  119.3560 C.3   259  TYR259      0.1736
    163  C         15.7980   12.2180  119.8560 C.2   259  TYR259      0.2596
    164  O         16.1390   12.4210  121.0220 O.2   259  TYR259     -0.2718
    165  CB        16.8880   10.2880  118.6230 C.3   259  TYR259      0.0548
    166  CG        16.7540    8.9570  117.9130 C.ar  259  TYR259     -0.0200
    167  CD1       16.0070    7.9140  118.4550 C.ar  259  TYR259     -0.0009
    168  CD2       17.3010    8.7840  116.6500 C.ar  259  TYR259     -0.0009
    169  CE1       15.8620    6.7190  117.7840 C.ar  259  TYR259      0.0417
    170  CE2       17.1800    7.5750  115.9720 C.ar  259  TYR259      0.0417
    171  CZ        16.4720    6.5310  116.5500 C.ar  259  TYR259      0.1957
    172  OH        16.3310    5.3660  115.8560 O.3   259  TYR259     -0.2866
    173  N         15.5600   13.1980  118.9770 N.am  260  SER260     -0.1952
    174  CA        15.7100   14.5710  119.3290 C.3   260  SER260      0.1924
    175  C         14.7110   15.0210  120.4060 C.2   260  SER260      0.2314
    176  O         15.0510   15.8680  121.2720 O.2   260  SER260     -0.2863
    177  CB        15.6680   15.4750  118.0800 C.3   260  SER260      0.2116
    178  OG        16.8180   15.2520  117.2340 O.3   260  SER260     -0.2180
    179  N         16.0510   13.8930  123.7180 N.3   263  ALA263     -0.1231
    180  CA        17.1810   14.7860  124.0850 C.3   263  ALA263      0.1694
    181  C         16.6560   16.1520  124.5570 C.2   263  ALA263      0.2591
    182  O         17.1220   16.6750  125.6010 O.2   263  ALA263     -0.2718
    183  CB        18.1240   14.9850  122.9050 C.3   263  ALA263      0.0304
    184  N         15.6690   16.7140  123.8390 N.am  264  LEU264     -0.1980
    185  CA        15.1270   18.0110  124.2570 C.3   264  LEU264      0.1596
    186  C         14.3880   17.9290  125.5860 C.2   264  LEU264      0.2287
    187  O         14.4790   18.8390  126.3970 O.2   264  LEU264     -0.2864
    188  CB        14.2600   18.6300  123.1880 C.3   264  LEU264      0.0297
    189  CG        15.0020   19.7400  122.3780 C.3   264  LEU264      0.0022
    190  CD1       16.2710   19.2740  121.7410 C.3   264  LEU264      0.0001
    191  CD2       14.0800   20.3300  121.3600 C.3   264  LEU264      0.0001
    192  N         16.9570   17.9760  128.2830 N.3   267  MET267     -0.1245
    193  CA        17.5190   19.2920  128.3920 C.3   267  MET267      0.1570
    194  C         16.5260   20.2080  129.1180 C.2   267  MET267      0.2261
    195  O         16.9130   20.9620  129.9960 O.2   267  MET267     -0.2867
    196  CB        17.8760   19.8080  127.0020 C.3   267  MET267      0.0387
    197  CG        19.1420   19.1940  126.3960 C.3   267  MET267      0.0595
    198  SD        19.6080   19.8490  124.7730 S.3   267  MET267     -0.1393
    199  CE        19.4890   18.5120  123.7140 C.3   267  MET267      0.0692
@<TRIPOS>BOND
     1     1     2    1
     2    46    44    1
     3    15    16    1
     4     2     3    1
     5     2     5    1
     6     7     9   ar
     7     7     6   ar
     8     3     4    2
     9    31    30    1
    10    44    43    1
    11     9    10   ar
    12     5     6    1
    13    24    25    1
    14     6     8   ar
    15    17    16    1
    16    17    18    2
    17    16    19    1
    18    10     8   ar
    19    10    12   ar
    20    23    22    1
    21     8    11   ar
    22    19    20    1
    23    43    40    1
    24    43    45    1
    25    30    29    1
    26    20    21    1
    27    39    40    1
    28    29    28    1
    29    25    28    1
    30    25    26    1
    31    12    14   ar
    32    40    41    1
    33    11    13   ar
    34    21    22    1
    35    14    13   ar
    36   138   137    2
    37    26    32   am
    38    26    27    2
    39    37    36    1
    40    32    33    1
    41    34    33    1
    42    34    35    2
    43   160   159    1
    44   109   103    1
    45   109   108    1
    46    41    42    2
    47    41    47   am
    48    33    36    1
    49    64    63   ar
    50    64    62   ar
    51   139   136    1
    52   139   140    1
    53   137   136    1
    54   103   104    1
    55   158   159   ar
    56   158   156   ar
    57    36    38    1
    58    63    61   ar
    59   106   105    2
    60    47    48    1
    61   159   157   ar
    62    62    60   ar
    63   136   135    1
    64   140   142   ar
    65   140   141   ar
    66   145   142   ar
    67   145   147   ar
    68   156   154   ar
    69   108   107    1
    70   142   144   ar
    71   105   104    1
    72   104   107    1
    73   141   143   ar
    74   147   148   ar
    75    61    60   ar
    76    60    59    1
    77    55    56    1
    78    48    49    1
    79    48    51    1
    80   157   155   ar
    81   144   143   ar
    82   144   146   ar
    83    49    50    2
    84   148   146   ar
    85   154   155   ar
    86   154   153    1
    87    51    52    1
    88    56    59    1
    89    56    57    1
    90   153   150    1
    91    52    54    1
    92    52    53    1
    93   127   126    2
    94    57    65   am
    95    57    58    2
    96   149   150    1
    97    65    66    1
    98   150   151    1
    99   110   111    1
   100   126   125    1
   101   151   152    2
   102    67    66    1
   103    67    68    2
   104    66    69    1
   105    69    70    1
   106   128   125    1
   107   128   129    1
   108    71    70    1
   109   125   124    1
   110   111   112    1
   111   111   114    1
   112   112   113    2
   113   172   171    1
   114    70    72    1
   115   170   171   ar
   116   170   168   ar
   117    73    74    1
   118   100    99    2
   119   129   131   ar
   120   129   130   ar
   121   131   133   ar
   122   171   169   ar
   123   116   118   ar
   124   116   115   ar
   125   168   166   ar
   126   114   115    1
   127   118   119   ar
   128   115   117   ar
   129   178   177    1
   130    99    98    1
   131   130   132   ar
   132    74    77    1
   133    74    75    1
   134   133   134   ar
   135   119   117   ar
   136   119   121   ar
   137    78    79    1
   138    78    77    1
   139    78    80    1
   140   117   120   ar
   141   169   167   ar
   142   166   167   ar
   143   166   165    1
   144   177   174    1
   145   121   123   ar
   146    75    76    2
   147   120   122   ar
   148   161   162    1
   149   132   134   ar
   150   165   162    1
   151    98   101    1
   152    98    97    1
   153   123   122   ar
   154   173   174    1
   155   173   163   am
   156   101   102    1
   157    92    91    2
   158   174   175    1
   159   162   163    1
   160    97    91   am
   161   163   164    2
   162    91    90    1
   163   175   176    2
   164    90    89    1
   165    90    93    1
   166   191   189    1
   167   190   189    1
   168    84    83    2
   169    95    93    1
   170    93    94    1
   171   189   188    1
   172    83    82    1
   173   183   180    1
   174   188   185    1
   175    94    96    1
   176   199   198    1
   177   179   180    1
   178   184   185    1
   179   184   181   am
   180    87    85    1
   181   180   181    1
   182    82    85    1
   183    82    81    1
   184   185   186    1
   185   181   182    2
   186   198   197    1
   187    85    86    1
   188    88    86    1
   189   186   187    2
   190   197   196    1
   191   196   193    1
   192   192   193    1
   193   193   194    1
   194   194   195    2
