@<TRIPOS>MOLECULE
tmp/5v2cV01.pdb
 172 164 0 0 0
SMALL
GASTEIGER

@<TRIPOS>ATOM
      1  N         -1.7550   17.0190   96.2160 N.3    10  ASN10      -0.1225
      2  CA        -1.3210   15.9830   97.1740 C.3    10  ASN10       0.1785
      3  C         -1.5680   16.3100   98.6740 C.2    10  ASN10       0.2597
      4  O         -1.2410   15.4910   99.5370 O.2    10  ASN10      -0.2718
      5  CB         0.1290   15.5970   96.9440 C.3    10  ASN10       0.1169
      6  CG         1.0860   16.7110   97.2300 C.2    10  ASN10       0.2627
      7  OD1        0.6920   17.8000   97.6050 O.2    10  ASN10      -0.2716
      8  ND2        2.3710   16.4320   97.0770 N.am   10  ASN10      -0.0877
      9  N         -2.1740   17.4720   98.9520 N.am   11  ARG11      -0.1979
     10  CA        -2.4020   18.0130  100.3070 C.3    11  ARG11       0.1597
     11  C         -3.7770   17.6160  100.8620 C.2    11  ARG11       0.2287
     12  O         -4.6010   18.4620  101.1890 O.2    11  ARG11      -0.2864
     13  CB        -2.1910   19.5540  100.2970 C.3    11  ARG11       0.0334
     14  CG        -0.7810   19.8990   99.8440 C.3    11  ARG11       0.0492
     15  CD        -0.4460   21.3560   99.9680 C.3    11  ARG11       0.2205
     16  NE        -1.4040   22.2040   99.2320 N.pl3  11  ARG11      -0.0865
     17  CZ        -1.2510   22.6210   97.9820 C.cat  11  ARG11       0.5346
     18  NH1       -0.1780   22.2790   97.2720 N.pl3  11  ARG11       0.1354
     19  NH2       -2.1720   23.4020   97.4250 N.pl3  11  ARG11       0.1354
     20  N         -5.9300   15.6930  108.3900 N.3    20  TRP20      -0.1227
     21  CA        -5.5210   17.0940  108.5740 C.3    20  TRP20       0.1737
     22  C         -4.8340   17.3290  109.9000 C.2    20  TRP20       0.2595
     23  O         -3.8840   18.1150  109.9730 O.2    20  TRP20      -0.2718
     24  CB        -6.7460   18.0320  108.4590 C.3    20  TRP20       0.0564
     25  CG        -7.7300   17.9130  109.5690 C.ar   20  TRP20       0.0003
     26  CD1       -8.8280   17.1000  109.6250 C.ar   20  TRP20       0.0946
     27  CD2       -7.6750   18.5980  110.8220 C.ar   20  TRP20       0.0152
     28  NE1       -9.4740   17.2520  110.8360 N.ar   20  TRP20      -0.2442
     29  CE2       -8.7740   18.1590  111.5900 C.ar   20  TRP20       0.0810
     30  CE3       -6.8070   19.5290  111.3700 C.ar   20  TRP20       0.0012
     31  CZ2       -9.0270   18.6480  112.8680 C.ar   20  TRP20       0.0191
     32  CZ3       -7.0660   20.0090  112.6380 C.ar   20  TRP20       0.0001
     33  CH2       -8.1770   19.5740  113.3610 C.ar   20  TRP20       0.0015
     34  N         -5.3150   16.6530  110.9460 N.am   21  TRP21      -0.1976
     35  CA        -4.7980   16.8510  112.3040 C.3    21  TRP21       0.1640
     36  C         -3.4170   16.2170  112.4800 C.2    21  TRP21       0.2290
     37  O         -2.7330   16.4910  113.4610 O.2    21  TRP21      -0.2864
     38  CB        -5.7760   16.3440  113.3550 C.3    21  TRP21       0.0576
     39  CG        -6.3070   14.9560  113.0840 C.ar   21  TRP21       0.0006
     40  CD1       -7.5140   14.6400  112.5900 C.ar   21  TRP21       0.0946
     41  CD2       -5.6380   13.7160  113.3290 C.ar   21  TRP21       0.0152
     42  NE1       -7.6720   13.2770  112.4960 N.ar   21  TRP21      -0.2442
     43  CE2       -6.5220   12.6830  112.9440 C.ar   21  TRP21       0.0810
     44  CE3       -4.3830   13.3740  113.8130 C.ar   21  TRP21       0.0012
     45  CZ2       -6.1870   11.3390  113.0270 C.ar   21  TRP21       0.0191
     46  CZ3       -4.0610   12.0060  113.9220 C.ar   21  TRP21       0.0001
     47  CH2       -4.9510   11.0240  113.4940 C.ar   21  TRP21       0.0015
     48  N         -1.4420   16.6190  109.6630 N.3    23  GLY23      -0.1210
     49  CA        -1.0640   17.1660  108.4070 C.3    23  GLY23       0.1956
     50  C          0.4290   17.3030  108.1710 C.2    23  GLY23       0.2611
     51  O          0.8840   17.0690  107.0660 O.2    23  GLY23      -0.2717
     52  N          1.1940   17.6830  109.1980 N.am   24  ASN24      -0.1974
     53  CA         2.6360   17.8400  109.0330 C.3    24  ASN24       0.1688
     54  C          3.4110   16.5550  108.7530 C.2    24  ASN24       0.2292
     55  O          4.5580   16.6010  108.2610 O.2    24  ASN24      -0.2864
     56  CB         3.2060   18.6940  110.1830 C.3    24  ASN24       0.1181
     57  CG         2.6260   20.1420  110.1630 C.2    24  ASN24       0.2629
     58  OD1        2.2940   20.6680  109.0920 O.2    24  ASN24      -0.2716
     59  ND2        2.4820   20.7590  111.3310 N.am   24  ASN24      -0.0877
     60  N          2.5720   14.6730  106.3550 N.3    26  ARG26      -0.1231
     61  CA         2.5410   14.6500  104.8710 C.3    26  ARG26       0.1694
     62  C          3.8610   15.1810  104.2750 C.2    26  ARG26       0.2591
     63  O          4.1570   14.9390  103.0780 O.2    26  ARG26      -0.2718
     64  CB         1.3680   15.4740  104.3430 C.3    26  ARG26       0.0321
     65  CG         0.0020   15.0370  104.8400 C.3    26  ARG26       0.0489
     66  CD        -1.1000   15.9710  104.3890 C.3    26  ARG26       0.2205
     67  NE        -2.4450   15.5360  104.8410 N.pl3  26  ARG26      -0.0865
     68  CZ        -3.5870   16.2530  104.7640 C.cat  26  ARG26       0.5346
     69  NH1       -3.6050   17.4950  104.2610 N.pl3  26  ARG26       0.1354
     70  NH2       -4.7480   15.7200  105.2000 N.pl3  26  ARG26       0.1354
     71  N          4.6460   15.8640  105.1260 N.am   27  LEU27      -0.1980
     72  CA         5.9190   16.4480  104.7390 C.3    27  LEU27       0.1596
     73  C          7.1260   15.5660  104.8890 C.2    27  LEU27       0.2287
     74  O          8.2350   15.9920  104.5170 O.2    27  LEU27      -0.2864
     75  CB         6.2090   17.7260  105.5330 C.3    27  LEU27       0.0297
     76  CG         5.1820   18.8730  105.4050 C.3    27  LEU27       0.0022
     77  CD1        5.2260   19.9140  106.5660 C.3    27  LEU27       0.0001
     78  CD2        5.3970   19.5450  104.0720 C.3    27  LEU27       0.0001
     79  N          8.8720   15.2340  101.6830 N.3    30  LEU30      -0.1245
     80  CA         8.7860   16.4130  100.8020 C.3    30  LEU30       0.1561
     81  C          9.7880   17.3930  101.3160 C.2    30  LEU30       0.2260
     82  O          9.4320   18.2990  102.0870 O.2    30  LEU30      -0.2867
     83  CB         7.3640   16.9830  100.7540 C.3    30  LEU30       0.0270
     84  CG         6.3090   16.0040  100.2090 C.3    30  LEU30       0.0019
     85  CD1        4.9560   16.7000  100.3180 C.3    30  LEU30       0.0001
     86  CD2        6.5790   15.5590   98.7610 C.3    30  LEU30       0.0001
     87  N          9.3460   21.5070  100.9400 N.3    33  LYS33      -0.1245
     88  CA         8.3420   22.0560  101.8170 C.3    33  LYS33       0.1561
     89  C          8.7480   21.8690  103.2660 C.2    33  LYS33       0.2260
     90  O          8.4890   22.7550  104.0880 O.2    33  LYS33      -0.2867
     91  CB         6.9200   21.5210  101.5420 C.3    33  LYS33       0.0271
     92  CG         6.2820   22.1300  100.2790 C.3    33  LYS33       0.0035
     93  CD         4.8670   21.6510  100.0990 C.3    33  LYS33       0.0206
     94  CE         3.9430   22.5900   99.3540 C.3    33  LYS33       0.1093
     95  NZ         4.5250   23.0710   98.0710 N.3    33  LYS33      -0.1314
     96  N          8.9760   24.5960  106.2380 N.3    37  ALA37      -0.1245
     97  CA         8.4210   24.5230  107.5830 C.3    37  ALA37       0.1562
     98  C          9.4450   24.8210  108.6520 C.2    37  ALA37       0.2260
     99  O          9.1600   25.5390  109.6010 O.2    37  ALA37      -0.2867
    100  CB         7.8220   23.1300  107.8440 C.3    37  ALA37       0.0290
    101  N         10.6830   28.6860  108.4620 N.3    40  ALA40      -0.1231
    102  CA         9.5660   29.5020  108.9690 C.3    40  ALA40       0.1694
    103  C          9.4390   29.3910  110.4830 C.2    40  ALA40       0.2592
    104  O          9.1990   30.3910  111.1450 O.2    40  ALA40      -0.2718
    105  CB         8.2430   29.0860  108.2950 C.3    40  ALA40       0.0304
    106  N          9.5910   28.1670  111.0050 N.am   41  HIS41      -0.1976
    107  CA         9.4600   27.9360  112.4400 C.3    41  HIS41       0.1656
    108  C         10.5900   28.6320  113.1730 C.2    41  HIS41       0.2291
    109  O         10.3880   29.3050  114.2060 O.2    41  HIS41      -0.2864
    110  CB         9.4100   26.4430  112.8170 C.3    41  HIS41       0.0771
    111  CG         9.1870   26.2100  114.2900 C.ar   41  HIS41       0.0820
    112  ND1       10.2310   26.1140  115.1620 N.ar   41  HIS41      -0.2267
    113  CD2        8.0580   26.0740  115.0460 C.ar   41  HIS41       0.1154
    114  CE1        9.7770   25.9160  116.3960 C.ar   41  HIS41       0.1986
    115  NE2        8.4510   25.9110  116.3710 N.ar   41  HIS41      -0.2212
    116  N          9.7060   32.0630  113.6690 N.3    44  LEU44      -0.1245
    117  CA         8.8210   32.2990  114.8020 C.3    44  LEU44       0.1561
    118  C          9.5720   32.4050  116.0890 C.2    44  LEU44       0.2260
    119  O          9.2250   33.2730  116.9210 O.2    44  LEU44      -0.2867
    120  CB         7.7730   31.2040  114.9710 C.3    44  LEU44       0.0270
    121  CG         6.7210   31.0510  113.8880 C.3    44  LEU44       0.0019
    122  CD1        6.0700   29.6890  114.0650 C.3    44  LEU44       0.0001
    123  CD2        5.7030   32.1870  113.8760 C.3    44  LEU44       0.0001
    124  N         12.2630   38.3480  109.9190 N.3   108  ALA108     -0.1245
    125  CA        11.6500   38.6170  108.6220 C.3   108  ALA108      0.1562
    126  C         12.3790   37.8820  107.5170 C.2   108  ALA108      0.2260
    127  O         11.7430   37.4010  106.5870 O.2   108  ALA108     -0.2867
    128  CB        11.6020   40.1210  108.3330 C.3   108  ALA108      0.0290
    129  N         11.4680   34.1690  108.0050 N.3   111  GLY111     -0.1210
    130  CA        10.0720   34.0640  107.5500 C.3   111  GLY111      0.1956
    131  C          9.9060   34.0550  106.0170 C.2   111  GLY111      0.2611
    132  O          9.1480   33.2610  105.4270 O.2   111  GLY111     -0.2717
    133  N         10.6180   34.9670  105.3740 N.am  112  PHE112     -0.1976
    134  CA        10.6340   35.0720  103.9330 C.3   112  PHE112      0.1639
    135  C         11.0940   33.7340  103.3160 C.2   112  PHE112      0.2290
    136  O         10.3770   33.1290  102.4950 O.2   112  PHE112     -0.2864
    137  CB        11.5750   36.1840  103.5320 C.3   112  PHE112      0.0560
    138  CG        11.4350   36.5940  102.0950 C.ar  112  PHE112     -0.0200
    139  CD1       12.1370   35.9490  101.0980 C.ar  112  PHE112     -0.0042
    140  CD2       10.5770   37.6200  101.7570 C.ar  112  PHE112     -0.0042
    141  CE1       11.9850   36.3390   99.7590 C.ar  112  PHE112     -0.0003
    142  CE2       10.4130   38.0020  100.4300 C.ar  112  PHE112     -0.0003
    143  CZ        11.1190   37.3550   99.4410 C.ar  112  PHE112     -0.0000
    144  N          8.5190   30.8310  104.0310 N.3   115  VAL115     -0.1245
    145  CA         7.3390   30.9570  103.2130 C.3   115  VAL115      0.1561
    146  C          7.7070   30.6010  101.7630 C.2   115  VAL115      0.2260
    147  O          6.9280   29.8890  101.0400 O.2   115  VAL115     -0.2867
    148  CB         6.7250   32.3610  103.3230 C.3   115  VAL115      0.0252
    149  CG1        5.5280   32.5200  102.3740 C.3   115  VAL115      0.0019
    150  CG2        6.2780   32.6140  104.7660 C.3   115  VAL115      0.0019
    151  N          8.2310   26.8750  101.5020 N.3   118  ALA118     -0.1231
    152  CA         6.9940   26.2050  101.8480 C.3   118  ALA118      0.1694
    153  C          5.9460   26.2100  100.7560 C.2   118  ALA118      0.2591
    154  O          5.2230   25.2310  100.5850 O.2   118  ALA118     -0.2718
    155  CB         6.3800   26.7610  103.1550 C.3   118  ALA118      0.0304
    156  N          5.7890   27.3230  100.0570 N.am  119  ILE119     -0.1980
    157  CA         4.6830   27.3860   99.1040 C.3   119  ILE119      0.1595
    158  C          5.1140   27.6180   97.6490 C.2   119  ILE119      0.2287
    159  O          4.3730   27.2690   96.7650 O.2   119  ILE119     -0.2864
    160  CB         3.5310   28.3180   99.5750 C.3   119  ILE119      0.0276
    161  CG1        4.0160   29.7250   99.7590 C.3   119  ILE119      0.0022
    162  CG2        2.9440   27.8430  100.9240 C.3   119  ILE119      0.0022
    163  CD1        2.8790   30.7080   99.9330 C.3   119  ILE119      0.0001
    164  N          9.1340   21.5170   95.7740 N.3   123  GLU123     -0.1245
    165  CA         8.5090   20.7370   96.8350 C.3   123  GLU123      0.1567
    166  C          9.4400   19.6820   97.3980 C.2   123  GLU123      0.2260
    167  O          9.4620   19.4480   98.6100 O.2   123  GLU123     -0.2867
    168  CB         7.2560   20.0920   96.2570 C.3   123  GLU123      0.0388
    169  CG         6.4240   19.3820   97.2700 C.3   123  GLU123      0.1160
    170  CD         4.9950   19.3350   96.8650 C.2   123  GLU123      0.3649
    171  OE1        4.5730   18.2220   96.5230 O.co2 123  GLU123     -0.2457
    172  OE2        4.3260   20.4120   96.8490 O.co2 123  GLU123     -0.2457
@<TRIPOS>BOND
     1   164   165    1
     2     1     2    1
     3   168   165    1
     4   168   169    1
     5   171   170   ar
     6   159   158    2
     7   165   166    1
     8   172   170   ar
     9   170   169    1
    10     5     2    1
    11     5     6    1
    12     8     6   am
    13     2     3    1
    14     6     7    2
    15    18    17    1
    16   166   167    2
    17    19    17    1
    18   158   157    1
    19    17    16    2
    20    95    94    1
    21     3     9   am
    22     3     4    2
    23    86    84    1
    24     9    10    1
    25   157   160    1
    26   157   156    1
    27    16    15    1
    28    94    93    1
    29   143   141   ar
    30   143   142   ar
    31   160   161    1
    32   160   162    1
    33   141   139   ar
    34   161   163    1
    35    14    15    1
    36    14    13    1
    37   156   153   am
    38    93    92    1
    39    84    85    1
    40    84    83    1
    41    92    91    1
    42    13    10    1
    43    10    11    1
    44   142   140   ar
    45   154   153    2
    46    83    80    1
    47   153   152    1
    48    80    81    1
    49    80    79    1
    50    11    12    2
    51    87    88    1
    52   147   146    2
    53   139   138   ar
    54    81    82    2
    55   151   152    1
    56    91    88    1
    57   140   138   ar
    58   146   145    1
    59    88    89    1
    60   152   155    1
    61   138   137    1
    62   149   148    1
    63   136   135    2
    64    63    62    2
    65   145   148    1
    66   145   144    1
    67    89    90    2
    68   135   134    1
    69   148   150    1
    70   137   134    1
    71   134   133    1
    72    78    76    1
    73    69    68    1
    74    62    61    1
    75    62    71   am
    76    64    65    1
    77    64    61    1
    78    66    65    1
    79    66    67    1
    80    74    73    2
    81    72    73    1
    82    72    71    1
    83    72    75    1
    84    68    67    2
    85    68    70    1
    86    61    60    1
    87   133   131   am
    88    76    75    1
    89    76    77    1
    90   132   131    2
    91   131   130    1
    92    96    97    1
    93   127   126    2
    94    51    50    2
    95   126   125    1
    96   130   129    1
    97    97   100    1
    98    97    98    1
    99    50    49    1
   100    50    52   am
   101    55    54    2
   102   105   102    1
   103   128   125    1
   104    20    21    1
   105    49    48    1
   106    24    21    1
   107    24    25    1
   108   101   102    1
   109    21    22    1
   110   125   124    1
   111    98    99    2
   112    54    53    1
   113   102   103    1
   114    53    52    1
   115    53    56    1
   116    58    57    2
   117    25    26   ar
   118    25    27   ar
   119    26    28   ar
   120    22    23    2
   121    22    34   am
   122    57    56    1
   123    57    59   am
   124   103   106   am
   125   103   104    2
   126    27    30   ar
   127    27    29   ar
   128    28    29   ar
   129    34    35    1
   130   106   107    1
   131    30    32   ar
   132    29    31   ar
   133    35    36    1
   134    35    38    1
   135   107   110    1
   136   107   108    1
   137    36    37    2
   138    42    40   ar
   139    42    43   ar
   140    40    39   ar
   141    32    33   ar
   142   110   111    1
   143    31    33   ar
   144    43    45   ar
   145    43    41   ar
   146    45    47   ar
   147    39    41   ar
   148    39    38    1
   149   108   109    2
   150    41    44   ar
   151    47    46   ar
   152   116   117    1
   153    44    46   ar
   154   123   121    1
   155   121   122    1
   156   121   120    1
   157   111   113   ar
   158   111   112   ar
   159   117   120    1
   160   117   118    1
   161   113   115   ar
   162   112   114   ar
   163   118   119    2
   164   115   114   ar
