@<TRIPOS>MOLECULE
tmp/5v2cU02.pdb
 112 107 0 0 0
SMALL
GASTEIGER

@<TRIPOS>ATOM
      1  N        -48.5020   -1.7840  133.1250 N.3   228  LEU228     -0.1245
      2  CA       -47.7860   -2.1620  134.3330 C.3   228  LEU228      0.1561
      3  C        -47.4810   -3.6790  134.4390 C.2   228  LEU228      0.2260
      4  O        -46.9870   -4.1230  135.4740 O.2   228  LEU228     -0.2867
      5  CB       -48.5840   -1.6750  135.5180 C.3   228  LEU228      0.0270
      6  CG       -48.6500   -0.1550  135.6880 C.3   228  LEU228      0.0019
      7  CD1      -49.5080    0.2390  136.8820 C.3   228  LEU228      0.0001
      8  CD2      -47.2400    0.3430  135.8640 C.3   228  LEU228      0.0001
      9  N        -43.6130   -7.0300  138.7790 N.3   235  THR235     -0.1218
     10  CA       -44.1680   -5.6710  138.8180 C.3   235  THR235      0.1862
     11  C        -44.5540   -5.2900  140.2080 C.2   235  THR235      0.2287
     12  O        -44.3480   -4.1480  140.6310 O.2   235  THR235     -0.2866
     13  CB       -45.3250   -5.4120  137.8560 C.3   235  THR235      0.1770
     14  OG1      -45.3830   -3.9860  137.5670 O.3   235  THR235     -0.2211
     15  CG2      -46.7160   -5.9090  138.4110 C.3   235  THR235      0.0375
     16  N        -41.3990   -4.4100  142.1440 N.3   238  SER238     -0.1202
     17  CA       -40.9430   -3.0380  141.8320 C.3   238  SER238      0.2020
     18  C        -41.7120   -1.9850  142.5860 C.2   238  SER238      0.2619
     19  O        -41.1320   -1.1630  143.2150 O.2   238  SER238     -0.2717
     20  CB       -41.0700   -2.7010  140.3500 C.3   238  SER238      0.2103
     21  OG       -40.4990   -1.4170  140.1160 O.3   238  SER238     -0.2182
     22  N        -43.0600   -2.0250  142.4960 N.am  239  SER239     -0.1951
     23  CA       -43.8420   -0.9970  143.1230 C.3   239  SER239      0.1924
     24  C        -43.8550   -1.1320  144.6460 C.2   239  SER239      0.2314
     25  O        -43.8900   -0.1200  145.3420 O.2   239  SER239     -0.2863
     26  CB       -45.2550   -0.9660  142.5520 C.3   239  SER239      0.2116
     27  OG       -45.7660   -2.2430  142.3260 O.3   239  SER239     -0.2180
     28  N        -40.7460    0.5130  145.9240 N.3   242  ALA242     -0.1231
     29  CA       -40.9590    1.9890  145.9490 C.3   242  ALA242      0.1694
     30  C        -41.7550    2.4340  147.1570 C.2   242  ALA242      0.2591
     31  O        -41.3720    3.3820  147.8170 O.2   242  ALA242     -0.2718
     32  CB       -41.6330    2.4600  144.6720 C.3   242  ALA242      0.0304
     33  N        -42.8580    1.7510  147.4590 N.am  243  ALA243     -0.1980
     34  CA       -43.6440    2.0990  148.6430 C.3   243  ALA243      0.1597
     35  C        -42.8230    2.0100  149.9060 C.2   243  ALA243      0.2287
     36  O        -42.9500    2.8310  150.7920 O.2   243  ALA243     -0.2864
     37  CB       -44.8840    1.2170  148.7820 C.3   243  ALA243      0.0319
     38  N        -39.4850    2.1580  150.2080 N.3   245  PHE245     -0.1227
     39  CA       -38.4430    3.2070  150.3700 C.3   245  PHE245      0.1736
     40  C        -39.0470    4.5370  150.7510 C.2   245  PHE245      0.2595
     41  O        -38.4710    5.2640  151.5390 O.2   245  PHE245     -0.2718
     42  CB       -37.3260    3.2770  149.2910 C.3   245  PHE245      0.0547
     43  CG       -37.6980    4.0030  148.0070 C.ar  245  PHE245     -0.0202
     44  CD1      -37.9680    5.3790  147.9920 C.ar  245  PHE245     -0.0042
     45  CD2      -37.7320    3.3060  146.8030 C.ar  245  PHE245     -0.0042
     46  CE1      -38.3140    6.0170  146.7820 C.ar  245  PHE245     -0.0003
     47  CE2      -38.0210    3.9240  145.6070 C.ar  245  PHE245     -0.0003
     48  CZ       -38.3180    5.2880  145.5790 C.ar  245  PHE245     -0.0000
     49  N        -40.2540    4.7970  150.2820 N.am  246  PHE246     -0.1976
     50  CA       -40.9820    6.0070  150.7080 C.3   246  PHE246      0.1639
     51  C        -41.2280    5.9660  152.2390 C.2   246  PHE246      0.2290
     52  O        -40.8800    6.9150  152.9440 O.2   246  PHE246     -0.2864
     53  CB       -42.2710    6.1350  149.8920 C.3   246  PHE246      0.0560
     54  CG       -43.2580    7.1810  150.3860 C.ar  246  PHE246     -0.0200
     55  CD1      -42.8260    8.4050  150.8430 C.ar  246  PHE246     -0.0042
     56  CD2      -44.6170    6.9410  150.3630 C.ar  246  PHE246     -0.0042
     57  CE1      -43.7040    9.3740  151.3000 C.ar  246  PHE246     -0.0003
     58  CE2      -45.5220    7.9080  150.8460 C.ar  246  PHE246     -0.0003
     59  CZ       -45.0630    9.1180  151.2960 C.ar  246  PHE246     -0.0000
     60  N        -34.0950    2.3740  146.7400 N.3   462  PHE462     -0.1241
     61  CA       -34.3180    3.0730  145.4690 C.3   462  PHE462      0.1605
     62  C        -33.6840    2.3280  144.3150 C.2   462  PHE462      0.2264
     63  O        -34.3300    2.1510  143.2600 O.2   462  PHE462     -0.2867
     64  CB       -33.8880    4.5520  145.5480 C.3   462  PHE462      0.0534
     65  CG       -33.7700    5.2290  144.2080 C.ar  462  PHE462     -0.0203
     66  CD1      -34.9200    5.5540  143.5070 C.ar  462  PHE462     -0.0042
     67  CD2      -32.5590    5.4690  143.6530 C.ar  462  PHE462     -0.0042
     68  CE1      -34.8460    6.1350  142.2960 C.ar  462  PHE462     -0.0003
     69  CE2      -32.4330    6.0880  142.4090 C.ar  462  PHE462     -0.0003
     70  CZ       -33.5720    6.4090  141.7170 C.ar  462  PHE462     -0.0000
     71  N        -35.7570   -0.6400  143.4480 N.3   465  HIS465     -0.1226
     72  CA       -36.9510   -0.2780  142.7110 C.3   465  HIS465      0.1752
     73  C        -36.6470   -0.1020  141.2150 C.2   465  HIS465      0.2595
     74  O        -37.3210   -0.6790  140.3470 O.2   465  HIS465     -0.2718
     75  CB       -37.5260    1.0570  143.2370 C.3   465  HIS465      0.0759
     76  CG       -38.5120    1.7160  142.3030 C.ar  465  HIS465      0.0818
     77  ND1      -39.6520    1.0780  141.8880 N.ar  465  HIS465     -0.2268
     78  CD2      -38.5460    2.9550  141.7490 C.ar  465  HIS465      0.1154
     79  CE1      -40.3440    1.8920  141.0880 C.ar  465  HIS465      0.1986
     80  NE2      -39.7260    3.0650  141.0270 N.ar  465  HIS465     -0.2212
     81  N        -35.6450    0.6980  140.9210 N.am  466  ILE466     -0.1980
     82  CA       -35.1590    0.9510  139.5540 C.3   466  ILE466      0.1595
     83  C        -34.8280   -0.3810  138.8630 C.2   466  ILE466      0.2287
     84  O        -35.2050   -0.6020  137.6960 O.2   466  ILE466     -0.2864
     85  CB       -33.8780    1.8420  139.6560 C.3   466  ILE466      0.0276
     86  CG1      -34.2310    3.2330  140.0840 C.3   466  ILE466      0.0022
     87  CG2      -33.0860    1.9130  138.4020 C.3   466  ILE466      0.0022
     88  CD1      -35.4610    3.7900  139.4720 C.3   466  ILE466      0.0001
     89  N        -38.0840   -2.5940  138.4830 N.3   469  GLY469     -0.1210
     90  CA       -38.8950   -1.8990  137.4900 C.3   469  GLY469      0.1956
     91  C        -38.3740   -2.0470  136.0710 C.2   469  GLY469      0.2611
     92  O        -39.1560   -2.2960  135.1320 O.2   469  GLY469     -0.2717
     93  N        -37.0610   -1.9440  135.9140 N.am  470  ALA470     -0.1979
     94  CA       -36.4140   -2.1890  134.6570 C.3   470  ALA470      0.1597
     95  C        -36.6430   -3.6170  134.2060 C.2   470  ALA470      0.2287
     96  O        -37.0150   -3.8120  133.0670 O.2   470  ALA470     -0.2864
     97  CB       -34.9130   -1.9270  134.7590 C.3   470  ALA470      0.0319
     98  N        -38.9730   -5.6330  134.9400 N.3   472  THR472     -0.1203
     99  CA       -40.4070   -5.8570  134.5890 C.3   472  THR472      0.1994
    100  C        -40.7130   -5.2960  133.2100 C.2   472  THR472      0.2617
    101  O        -41.3140   -5.9460  132.3710 O.2   472  THR472     -0.2717
    102  CB       -41.2680   -5.1350  135.6290 C.3   472  THR472      0.1784
    103  OG1      -41.0080   -5.6780  136.9340 O.3   472  THR472     -0.2211
    104  CG2      -42.6800   -5.2330  135.3290 C.3   472  THR472      0.0376
    105  N        -40.2900   -4.0580  132.9550 N.am  473  LEU473     -0.1979
    106  CA       -40.6950   -3.3740  131.7370 C.3   473  LEU473      0.1596
    107  C        -39.9110   -3.7750  130.5140 C.2   473  LEU473      0.2287
    108  O        -40.3690   -3.5680  129.3840 O.2   473  LEU473     -0.2864
    109  CB       -40.6340   -1.8550  131.9440 C.3   473  LEU473      0.0297
    110  CG       -41.6350   -1.3630  132.9740 C.3   473  LEU473      0.0022
    111  CD1      -41.3560    0.1070  133.3060 C.3   473  LEU473      0.0001
    112  CD2      -43.0810   -1.5970  132.5310 C.3   473  LEU473      0.0001
@<TRIPOS>BOND
     1   108   107    2
     2   107   106    1
     3   106   109    1
     4   106   105    1
     5   109   110    1
     6   101   100    2
     7   112   110    1
     8   105   100   am
     9   110   111    1
    10    96    95    2
    11     1     2    1
    12   100    99    1
    13    95    94    1
    14     2     3    1
    15     2     5    1
    16     3     4    2
    17    99    98    1
    18    99   102    1
    19    94    97    1
    20    94    93    1
    21    92    91    2
    22   104   102    1
    23     5     6    1
    24   102   103    1
    25     6     8    1
    26     6     7    1
    27    93    91   am
    28    91    90    1
    29    90    89    1
    30    14    13    1
    31    84    83    2
    32    13    15    1
    33    13    10    1
    34    87    85    1
    35     9    10    1
    36    10    11    1
    37    83    82    1
    38    88    86    1
    39    82    85    1
    40    82    81    1
    41    85    86    1
    42    21    20    1
    43    11    12    2
    44    74    73    2
    45    20    17    1
    46    81    73   am
    47    80    79   ar
    48    80    78   ar
    49    79    77   ar
    50    73    72    1
    51    70    68   ar
    52    70    69   ar
    53    78    76   ar
    54    17    16    1
    55    17    18    1
    56    77    76   ar
    57    68    66   ar
    58    76    75    1
    59    27    26    1
    60    69    67   ar
    61    22    18   am
    62    22    23    1
    63    26    23    1
    64    18    19    2
    65    72    75    1
    66    72    71    1
    67    23    24    1
    68    63    62    2
    69    66    65   ar
    70    67    65   ar
    71    65    64    1
    72    62    61    1
    73    24    25    2
    74    32    29    1
    75    61    64    1
    76    61    60    1
    77    48    47   ar
    78    48    46   ar
    79    47    45   ar
    80    28    29    1
    81    29    30    1
    82    46    44   ar
    83    45    43   ar
    84    30    33   am
    85    30    31    2
    86    33    34    1
    87    44    43   ar
    88    43    42    1
    89    34    37    1
    90    34    35    1
    91    42    39    1
    92    53    54    1
    93    53    50    1
    94    35    36    2
    95    38    39    1
    96    49    50    1
    97    49    40   am
    98    56    54   ar
    99    56    58   ar
   100    39    40    1
   101    54    55   ar
   102    50    51    1
   103    40    41    2
   104    55    57   ar
   105    58    59   ar
   106    59    57   ar
   107    51    52    2
