@<TRIPOS>MOLECULE
tmp/5v2cV12.pdb
 77 73 0 0 0
SMALL
GASTEIGER

@<TRIPOS>ATOM
      1  N         31.5790   28.7920  121.2010 N.3   158  LEU158     -0.1245
      2  CA        32.7780   29.6590  121.1540 C.3   158  LEU158      0.1561
      3  C         32.3870   31.1270  121.0990 C.2   158  LEU158      0.2260
      4  O         33.1960   31.9760  121.4290 O.2   158  LEU158     -0.2867
      5  CB        33.7020   29.2640  119.9990 C.3   158  LEU158      0.0270
      6  CG        34.2660   27.8400  120.1870 C.3   158  LEU158      0.0019
      7  CD1       35.1500   27.3830  119.0820 C.3   158  LEU158      0.0001
      8  CD2       35.0540   27.6700  121.4370 C.3   158  LEU158      0.0001
      9  N         32.3010   32.0650  124.6300 N.3   161  VAL161     -0.1231
     10  CA        33.6770   32.1990  125.1100 C.3   161  VAL161      0.1692
     11  C         34.2340   33.5600  124.6630 C.2   161  VAL161      0.2591
     12  O         34.8230   34.2930  125.4460 O.2   161  VAL161     -0.2718
     13  CB        34.5890   31.0520  124.6080 C.3   161  VAL161      0.0266
     14  CG1       36.0420   31.2470  125.0680 C.3   161  VAL161      0.0020
     15  CG2       34.0590   29.6500  125.0560 C.3   161  VAL161      0.0020
     16  N         34.0180   33.8930  123.4050 N.am  162  ALA162     -0.1980
     17  CA        34.4810   35.1640  122.8340 C.3   162  ALA162      0.1597
     18  C         33.9430   36.3860  123.6130 C.2   162  ALA162      0.2287
     19  O         34.6980   37.2970  123.9910 O.2   162  ALA162     -0.2864
     20  CB        34.0900   35.2410  121.3500 C.3   162  ALA162      0.0319
     21  N         35.7470   36.4610  127.0980 N.3   165  MET165     -0.1230
     22  CA        37.1960   36.6510  127.0980 C.3   165  MET165      0.1702
     23  C         37.7170   37.8840  126.3990 C.2   165  MET165      0.2592
     24  O         38.7500   38.4120  126.8200 O.2   165  MET165     -0.2718
     25  CB        37.8850   35.4490  126.4710 C.3   165  MET165      0.0401
     26  CG        37.6380   34.1670  127.2630 C.3   165  MET165      0.0596
     27  SD        38.7450   32.8120  126.8900 S.3   165  MET165     -0.1393
     28  CE        40.3600   33.4700  127.2460 C.3   165  MET165      0.0692
     29  N         37.0040   38.2840  125.3370 N.am  166  PHE166     -0.1976
     30  CA        37.4150   39.2930  124.3980 C.3   166  PHE166      0.1639
     31  C         36.4110   40.4160  124.1510 C.2   166  PHE166      0.2290
     32  O         36.8120   41.3920  123.6330 O.2   166  PHE166     -0.2864
     33  CB        37.7630   38.6610  123.0260 C.3   166  PHE166      0.0560
     34  CG        38.6750   37.4630  123.1210 C.ar  166  PHE166     -0.0200
     35  CD1       39.9070   37.5580  123.7270 C.ar  166  PHE166     -0.0042
     36  CD2       38.2930   36.2380  122.6000 C.ar  166  PHE166     -0.0042
     37  CE1       40.7300   36.4480  123.8370 C.ar  166  PHE166     -0.0003
     38  CE2       39.1080   35.1170  122.7280 C.ar  166  PHE166     -0.0003
     39  CZ        40.3370   35.2240  123.3370 C.ar  166  PHE166     -0.0000
     40  N         39.7900   35.7030  132.0600 N.3   185  THR185     -0.1203
     41  CA        41.0930   35.5240  131.4660 C.3   185  THR185      0.1994
     42  C         41.7080   34.1240  131.6420 C.2   185  THR185      0.2618
     43  O         42.5400   33.7580  130.8120 O.2   185  THR185     -0.2717
     44  CB        42.0520   36.5430  132.0550 C.3   185  THR185      0.1784
     45  OG1       42.2050   36.2740  133.4520 O.3   185  THR185     -0.2211
     46  CG2       41.5010   37.9550  131.8590 C.3   185  THR185      0.0376
     47  N         41.3390   33.3690  132.6960 N.am  186  ASN186     -0.1960
     48  CA        41.8710   31.9940  132.9310 C.3   186  ASN186      0.1804
     49  C         40.7150   31.0040  132.9860 C.2   186  ASN186      0.2463
     50  O         40.3720   30.4620  134.0290 O.2   186  ASN186     -0.2730
     51  CB        42.7890   31.8850  134.1570 C.3   186  ASN186      0.1195
     52  CG        43.9450   32.8880  134.0900 C.2   186  ASN186      0.2630
     53  OD1       45.1290   32.5520  133.8270 O.2   186  ASN186     -0.2716
     54  ND2       43.6110   34.1470  134.3030 N.am  186  ASN186     -0.0877
     55  N         40.0950   30.7570  131.8350 N.am  187  PRO187     -0.2727
     56  CA        39.0610   29.7320  131.8000 C.3   187  PRO187      0.1402
     57  C         39.6510   28.4140  132.2480 C.2   187  PRO187      0.2269
     58  O         40.8650   28.1920  132.0580 O.2   187  PRO187     -0.2865
     59  CB        38.6350   29.6930  130.3170 C.3   187  PRO187      0.0296
     60  CG        39.7580   30.2960  129.5650 C.3   187  PRO187      0.0237
     61  CD        40.3530   31.3170  130.4950 C.3   187  PRO187      0.0939
     62  N         40.4990   24.7810  131.9330 N.3   189  LEU189     -0.1245
     63  CA        40.6820   23.8200  130.8650 C.3   189  LEU189      0.1561
     64  C         40.9340   22.4070  131.3880 C.2   189  LEU189      0.2260
     65  O         40.8140   21.4590  130.6380 O.2   189  LEU189     -0.2867
     66  CB        41.9020   24.2580  130.0250 C.3   189  LEU189      0.0270
     67  CG        41.7240   25.6190  129.3510 C.3   189  LEU189      0.0019
     68  CD1       42.9440   25.9090  128.4860 C.3   189  LEU189      0.0001
     69  CD2       40.4340   25.7170  128.5400 C.3   189  LEU189      0.0001
     70  N         34.5720   26.1920  126.0680 N.3   223  ILE223     -0.1245
     71  CA        35.7210   25.8720  125.1850 C.3   223  ILE223      0.1561
     72  C         35.7250   24.3780  124.8380 C.2   223  ILE223      0.2260
     73  O         35.8040   24.0070  123.6620 O.2   223  ILE223     -0.2867
     74  CB        37.0800   26.3170  125.7500 C.3   223  ILE223      0.0252
     75  CG1       37.0670   27.8300  125.8500 C.3   223  ILE223      0.0019
     76  CG2       38.2650   25.7220  124.9280 C.3   223  ILE223      0.0019
     77  CD1       38.2310   28.4110  126.6920 C.3   223  ILE223      0.0001
@<TRIPOS>BOND
     1     7     6    1
     2     5     6    1
     3     5     2    1
     4     6     8    1
     5     3     2    1
     6     3     4    2
     7     2     1    1
     8    20    17    1
     9    36    38   ar
    10    36    34   ar
    11    38    39   ar
    12    17    16    1
    13    17    18    1
    14    33    34    1
    15    33    30    1
    16    34    35   ar
    17    39    37   ar
    18    16    11   am
    19    18    19    2
    20    32    31    2
    21    73    72    2
    22    35    37   ar
    23    31    30    1
    24    30    29    1
    25    13    15    1
    26    13    14    1
    27    13    10    1
    28     9    10    1
    29    11    10    1
    30    11    12    2
    31    72    71    1
    32    76    74    1
    33    71    74    1
    34    71    70    1
    35    29    23   am
    36    74    75    1
    37    75    77    1
    38    23    24    2
    39    23    22    1
    40    25    22    1
    41    25    26    1
    42    27    28    1
    43    27    26    1
    44    21    22    1
    45    68    67    1
    46    69    67    1
    47    67    66    1
    48    60    59    1
    49    60    61    1
    50    66    63    1
    51    59    56    1
    52    61    55    1
    53    65    64    2
    54    43    42    2
    55    63    64    1
    56    63    62    1
    57    41    42    1
    58    41    44    1
    59    41    40    1
    60    42    47   am
    61    56    55    1
    62    56    57    1
    63    55    49   am
    64    46    44    1
    65    44    45    1
    66    58    57    2
    67    47    48    1
    68    48    49    1
    69    48    51    1
    70    49    50    2
    71    53    52    2
    72    52    51    1
    73    52    54   am
