@<TRIPOS>MOLECULE
tmp/5v2cV33.pdb
 216 207 0 0 0
SMALL
GASTEIGER

@<TRIPOS>ATOM
      1  N          1.1940   17.6830  109.1980 N.3    24  ASN24      -0.1225
      2  CA         2.6360   17.8400  109.0330 C.3    24  ASN24       0.1785
      3  C          3.4110   16.5550  108.7530 C.2    24  ASN24       0.2597
      4  O          4.5580   16.6010  108.2610 O.2    24  ASN24      -0.2718
      5  CB         3.2060   18.6940  110.1830 C.3    24  ASN24       0.1169
      6  CG         2.6260   20.1420  110.1630 C.2    24  ASN24       0.2627
      7  OD1        2.2940   20.6680  109.0920 O.2    24  ASN24      -0.2716
      8  ND2        2.4820   20.7590  111.3310 N.am   24  ASN24      -0.0877
      9  N          2.7660   15.4090  108.9930 N.am   25  ALA25      -0.1979
     10  CA         3.3390   14.1100  108.6240 C.3    25  ALA25       0.1597
     11  C          3.3810   13.8910  107.0840 C.2    25  ALA25       0.2287
     12  O          4.1450   13.0580  106.5780 O.2    25  ALA25      -0.2864
     13  CB         2.5600   12.9820  109.2950 C.3    25  ALA25       0.0319
     14  N          4.6460   15.8640  105.1260 N.3    27  LEU27      -0.1231
     15  CA         5.9190   16.4480  104.7390 C.3    27  LEU27       0.1693
     16  C          7.1260   15.5660  104.8890 C.2    27  LEU27       0.2591
     17  O          8.2350   15.9920  104.5170 O.2    27  LEU27      -0.2718
     18  CB         6.2090   17.7260  105.5330 C.3    27  LEU27       0.0284
     19  CG         5.1820   18.8730  105.4050 C.3    27  LEU27       0.0019
     20  CD1        5.2260   19.9140  106.5660 C.3    27  LEU27       0.0001
     21  CD2        5.3970   19.5450  104.0720 C.3    27  LEU27       0.0001
     22  N          6.9560   14.3880  105.4740 N.am   28  ILE28      -0.1980
     23  CA         8.1150   13.5440  105.8270 C.3    28  ILE28       0.1595
     24  C          9.0610   13.4070  104.6660 C.2    28  ILE28       0.2287
     25  O         10.2850   13.5720  104.8430 O.2    28  ILE28      -0.2864
     26  CB         7.6840   12.1490  106.3630 C.3    28  ILE28       0.0276
     27  CG1        7.0170   12.3290  107.7410 C.3    28  ILE28       0.0022
     28  CG2        8.8650   11.1710  106.4610 C.3    28  ILE28       0.0022
     29  CD1        6.1460   11.2070  108.2390 C.3    28  ILE28       0.0001
     30  N          9.3710   20.7410  103.5980 N.3    34  LEU34      -0.1231
     31  CA         9.7830   20.5100  104.9860 C.3    34  LEU34       0.1693
     32  C         10.8960   21.5100  105.3930 C.2    34  LEU34       0.2591
     33  O         10.9320   21.9960  106.5410 O.2    34  LEU34      -0.2718
     34  CB        10.2750   19.0780  105.1660 C.3    34  LEU34       0.0284
     35  CG        10.6280   18.6570  106.6050 C.3    34  LEU34       0.0019
     36  CD1        9.5210   19.0600  107.5820 C.3    34  LEU34       0.0001
     37  CD2       10.9350   17.1770  106.6880 C.3    34  LEU34       0.0001
     38  N         11.8130   21.7810  104.4640 N.am   35  LEU35      -0.1980
     39  CA        12.7870   22.8480  104.6940 C.3    35  LEU35       0.1596
     40  C         12.0330   24.1450  104.9940 C.2    35  LEU35       0.2287
     41  O         12.3290   24.8110  105.9660 O.2    35  LEU35      -0.2864
     42  CB        13.7280   23.0070  103.5050 C.3    35  LEU35       0.0297
     43  CG        14.6570   24.2590  103.5350 C.3    35  LEU35       0.0022
     44  CD1       15.6520   24.1260  104.6890 C.3    35  LEU35       0.0001
     45  CD2       15.4050   24.4400  102.1990 C.3    35  LEU35       0.0001
     46  N          8.9760   24.5960  106.2380 N.3    37  ALA37      -0.1231
     47  CA         8.4210   24.5230  107.5830 C.3    37  ALA37       0.1694
     48  C          9.4450   24.8210  108.6520 C.2    37  ALA37       0.2592
     49  O          9.1600   25.5390  109.6010 O.2    37  ALA37      -0.2718
     50  CB         7.8220   23.1300  107.8440 C.3    37  ALA37       0.0304
     51  N         10.6290   24.2410  108.5030 N.am   38  HIS38      -0.1976
     52  CA        11.6630   24.3760  109.4780 C.3    38  HIS38       0.1656
     53  C         12.2170   25.7900  109.5400 C.2    38  HIS38       0.2291
     54  O         12.4570   26.3260  110.6320 O.2    38  HIS38      -0.2864
     55  CB        12.7480   23.3190  109.2820 C.3    38  HIS38       0.0771
     56  CG        12.3980   21.9560  109.8170 C.ar   38  HIS38       0.0820
     57  ND1       12.3230   20.8290  109.0330 N.ar   38  HIS38      -0.2267
     58  CD2       12.1920   21.5210  111.0760 C.ar   38  HIS38       0.1154
     59  CE1       12.0010   19.7690  109.7840 C.ar   38  HIS38       0.1986
     60  NE2       11.9170   20.1600  111.0320 N.ar   38  HIS38      -0.2212
     61  N          9.5910   28.1670  111.0050 N.3    41  HIS41      -0.1226
     62  CA         9.4600   27.9360  112.4400 C.3    41  HIS41       0.1752
     63  C         10.5900   28.6320  113.1730 C.2    41  HIS41       0.2595
     64  O         10.3880   29.3050  114.2060 O.2    41  HIS41      -0.2718
     65  CB         9.4100   26.4430  112.8170 C.3    41  HIS41       0.0759
     66  CG         9.1870   26.2100  114.2900 C.ar   41  HIS41       0.0818
     67  ND1       10.2310   26.1140  115.1620 N.ar   41  HIS41      -0.2268
     68  CD2        8.0580   26.0740  115.0460 C.ar   41  HIS41       0.1154
     69  CE1        9.7770   25.9160  116.3960 C.ar   41  HIS41       0.1986
     70  NE2        8.4510   25.9110  116.3710 N.ar   41  HIS41      -0.2212
     71  N         11.7730   28.4980  112.6170 N.am   42  ALA42      -0.1980
     72  CA        12.9110   29.1870  113.1810 C.3    42  ALA42       0.1597
     73  C         12.6910   30.6940  113.2050 C.2    42  ALA42       0.2287
     74  O         13.0620   31.3850  114.1560 O.2    42  ALA42      -0.2864
     75  CB        14.1720   28.8480  112.4470 C.3    42  ALA42       0.0319
     76  N         10.5790   31.5290  116.2530 N.3    45  ILE45      -0.1245
     77  CA        11.4220   31.5610  117.4630 C.3    45  ILE45       0.1561
     78  C         12.1340   32.9220  117.5620 C.2    45  ILE45       0.2260
     79  O         12.1290   33.5740  118.5760 O.2    45  ILE45      -0.2867
     80  CB        12.4740   30.4250  117.4740 C.3    45  ILE45       0.0252
     81  CG1       11.7880   29.0310  117.4850 C.3    45  ILE45       0.0019
     82  CG2       13.4410   30.5610  118.6590 C.3    45  ILE45       0.0019
     83  CD1       12.7690   27.8790  117.5270 C.3    45  ILE45       0.0001
     84  N         17.9860   14.9260  100.1920 N.3   134  TYR134     -0.1241
     85  CA        18.3390   13.8840  101.1240 C.3   134  TYR134      0.1605
     86  C         17.2340   12.8580  101.1680 C.2   134  TYR134      0.2264
     87  O         16.0450   13.1180  100.8910 O.2   134  TYR134     -0.2867
     88  CB        18.5900   14.4670  102.5360 C.3   134  TYR134      0.0534
     89  CG        17.3860   15.1320  103.1660 C.ar  134  TYR134     -0.0201
     90  CD1       16.4220   14.3840  103.8490 C.ar  134  TYR134     -0.0009
     91  CD2       17.1930   16.4910  103.0610 C.ar  134  TYR134     -0.0009
     92  CE1       15.2890   14.9930  104.3900 C.ar  134  TYR134      0.0417
     93  CE2       16.0760   17.0980  103.6090 C.ar  134  TYR134      0.0417
     94  CZ        15.1130   16.3390  104.2460 C.ar  134  TYR134      0.1957
     95  OH        14.0250   16.9580  104.7920 O.3   134  TYR134     -0.2866
     96  N         16.0430   10.2450  104.2050 N.3   136  TRP136     -0.1241
     97  CA        16.2030    9.8870  105.6440 C.3   136  TRP136      0.1605
     98  C         16.9670    8.5550  105.8320 C.2   136  TRP136      0.2264
     99  O         17.7470    8.3800  106.7720 O.2   136  TRP136     -0.2867
    100  CB        14.8490    9.7430  106.3310 C.3   136  TRP136      0.0550
    101  CG        14.0420   10.9800  106.4070 C.ar  136  TRP136      0.0003
    102  CD1       12.8420   11.2080  105.7950 C.ar  136  TRP136      0.0946
    103  CD2       14.3110   12.1320  107.1900 C.ar  136  TRP136      0.0152
    104  NE1       12.3670   12.4530  106.1340 N.ar  136  TRP136     -0.2442
    105  CE2       13.2380   13.0280  107.0040 C.ar  136  TRP136      0.0810
    106  CE3       15.3490   12.5020  108.0380 C.ar  136  TRP136      0.0012
    107  CZ2       13.1680   14.2580  107.6390 C.ar  136  TRP136      0.0191
    108  CZ3       15.2760   13.7540  108.6700 C.ar  136  TRP136      0.0001
    109  CH2       14.1940   14.6050  108.4620 C.ar  136  TRP136      0.0015
    110  N         22.5920   11.6520  106.3600 N.3   142  MET142     -0.1245
    111  CA        22.1340   12.0610  107.6290 C.3   142  MET142      0.1570
    112  C         23.2850   12.4680  108.5620 C.2   142  MET142      0.2261
    113  O         23.1970   13.5240  109.2020 O.2   142  MET142     -0.2867
    114  CB        21.3070   10.9580  108.2350 C.3   142  MET142      0.0387
    115  CG        19.9910   10.7520  107.5570 C.3   142  MET142      0.0595
    116  SD        18.8680   12.1460  107.4970 S.3   142  MET142     -0.1393
    117  CE        19.1550   12.7670  105.8790 C.3   142  MET142      0.0692
    118  N         24.7360   15.9460  107.5250 N.3   145  ILE145     -0.1245
    119  CA        23.9350   17.1000  107.9180 C.3   145  ILE145      0.1561
    120  C         24.0240   17.3360  109.4430 C.2   145  ILE145      0.2260
    121  O         24.1940   18.4700  109.8970 O.2   145  ILE145     -0.2867
    122  CB        22.4750   16.9680  107.4440 C.3   145  ILE145      0.0252
    123  CG1       22.4490   16.9540  105.9240 C.3   145  ILE145      0.0019
    124  CG2       21.6220   18.1450  107.9550 C.3   145  ILE145      0.0019
    125  CD1       21.1170   16.6280  105.3790 C.3   145  ILE145      0.0001
    126  N         25.5810   20.7660  111.4120 N.3   149  HIS149     -0.1241
    127  CA        24.8940   21.3800  112.5110 C.3   149  HIS149      0.1621
    128  C         25.7450   21.2830  113.8070 C.2   149  HIS149      0.2264
    129  O         25.7690   22.2180  114.5990 O.2   149  HIS149     -0.2867
    130  CB        23.4510   20.8520  112.6270 C.3   149  HIS149      0.0745
    131  CG        22.6040   21.1110  111.4060 C.ar  149  HIS149      0.0817
    132  ND1       21.4670   20.3960  111.1260 N.ar  149  HIS149     -0.2268
    133  CD2       22.7370   22.0110  110.3930 C.ar  149  HIS149      0.1154
    134  CE1       20.9360   20.8440  109.9910 C.ar  149  HIS149      0.1986
    135  NE2       21.6620   21.8560  109.5390 N.ar  149  HIS149     -0.2212
    136  N         28.1600   24.1230  113.6020 N.3   152  VAL152     -0.1231
    137  CA        27.4530   25.3820  113.8720 C.3   152  VAL152      0.1692
    138  C         27.2560   25.5830  115.4000 C.2   152  VAL152      0.2591
    139  O         27.5310   26.6480  115.9400 O.2   152  VAL152     -0.2718
    140  CB        26.1190   25.4120  113.0710 C.3   152  VAL152      0.0266
    141  CG1       25.2050   26.5460  113.5190 C.3   152  VAL152      0.0020
    142  CG2       26.3890   25.5030  111.5650 C.3   152  VAL152      0.0020
    143  N         26.8170   24.5390  116.1020 N.am  153  LEU153     -0.1980
    144  CA        26.6570   24.6110  117.5560 C.3   153  LEU153      0.1596
    145  C         27.9920   24.8720  118.2900 C.2   153  LEU153      0.2287
    146  O         28.0170   25.6350  119.2650 O.2   153  LEU153     -0.2864
    147  CB        25.9740   23.3420  118.1060 C.3   153  LEU153      0.0297
    148  CG        24.5140   23.1930  117.6970 C.3   153  LEU153      0.0022
    149  CD1       23.9990   21.7770  117.9580 C.3   153  LEU153      0.0001
    150  CD2       23.6730   24.2160  118.4520 C.3   153  LEU153      0.0001
    151  N         12.9420    9.1990  109.2420 N.3   253  GLY253     -0.1210
    152  CA        12.6680   10.5660  109.7040 C.3   253  GLY253      0.1956
    153  C         12.0250   10.6170  111.1040 C.2   253  GLY253      0.2611
    154  O         12.4670   11.3500  111.9920 O.2   253  GLY253     -0.2717
    155  N         11.0070    9.7990  111.3030 N.am  254  GLU254     -0.1979
    156  CA        10.2590    9.8060  112.5530 C.3   254  GLU254      0.1602
    157  C         11.0980    9.2870  113.7210 C.2   254  GLU254      0.2287
    158  O         11.0100    9.8060  114.7990 O.2   254  GLU254     -0.2864
    159  CB         8.9490    9.0600  112.4480 C.3   254  GLU254      0.0415
    160  CG         8.0840    9.1830  113.7300 C.3   254  GLU254      0.1163
    161  CD         6.6770    8.6270  113.5480 C.2   254  GLU254      0.3649
    162  OE1        6.4760    7.6650  112.7400 O.co2 254  GLU254     -0.2457
    163  OE2        5.7900    9.1470  114.2620 O.co2 254  GLU254     -0.2457
    164  N         14.3400    9.6420  113.8710 N.3   256  TYR256     -0.1227
    165  CA        15.2860   10.7160  114.1890 C.3   256  TYR256      0.1736
    166  C         14.5960   11.7940  115.0000 C.2   256  TYR256      0.2595
    167  O         15.1540   12.2930  115.9710 O.2   256  TYR256     -0.2718
    168  CB        15.9680   11.3300  112.9480 C.3   256  TYR256      0.0548
    169  CG        16.5840   10.3190  112.0260 C.ar  256  TYR256     -0.0200
    170  CD1       17.2310    9.1830  112.5120 C.ar  256  TYR256     -0.0009
    171  CD2       16.5400   10.5240  110.6610 C.ar  256  TYR256     -0.0009
    172  CE1       17.7810    8.2560  111.6590 C.ar  256  TYR256      0.0417
    173  CE2       17.0950    9.6080  109.7630 C.ar  256  TYR256      0.0417
    174  CZ        17.7120    8.4660  110.2520 C.ar  256  TYR256      0.1957
    175  OH        18.2640    7.5640  109.3450 O.3   256  TYR256     -0.2866
    176  N         13.3700   12.1430  114.6080 N.am  257  LEU257     -0.1980
    177  CA        12.5910   13.1240  115.3810 C.3   257  LEU257      0.1596
    178  C         12.4420   12.6450  116.8470 C.2   257  LEU257      0.2287
    179  O         12.6460   13.3890  117.7980 O.2   257  LEU257     -0.2864
    180  CB        11.2250   13.3190  114.7640 C.3   257  LEU257      0.0297
    181  CG        10.2650   14.1830  115.5610 C.3   257  LEU257      0.0022
    182  CD1       10.8230   15.5970  115.7860 C.3   257  LEU257      0.0001
    183  CD2        8.8580   14.1980  114.9150 C.3   257  LEU257      0.0001
    184  N         15.5600   13.1980  118.9770 N.3   260  SER260     -0.1202
    185  CA        15.7100   14.5710  119.3290 C.3   260  SER260      0.2020
    186  C         14.7110   15.0210  120.4060 C.2   260  SER260      0.2618
    187  O         15.0510   15.8680  121.2720 O.2   260  SER260     -0.2717
    188  CB        15.6680   15.4750  118.0800 C.3   260  SER260      0.2103
    189  OG        16.8180   15.2520  117.2340 O.3   260  SER260     -0.2182
    190  N         13.4930   14.4580  120.3610 N.am  261  LEU261     -0.1979
    191  CA        12.4960   14.7390  121.3800 C.3   261  LEU261      0.1596
    192  C         12.9370   14.2940  122.7420 C.2   261  LEU261      0.2287
    193  O         12.7150   15.0020  123.7310 O.2   261  LEU261     -0.2864
    194  CB        11.1450   14.1260  121.0320 C.3   261  LEU261      0.0297
    195  CG        10.4650   14.7810  119.8360 C.3   261  LEU261      0.0022
    196  CD1        9.2720   13.9530  119.3880 C.3   261  LEU261      0.0001
    197  CD2        9.9860   16.1980  120.1310 C.3   261  LEU261      0.0001
    198  N         15.6690   16.7140  123.8390 N.3   264  LEU264     -0.1245
    199  CA        15.1270   18.0110  124.2570 C.3   264  LEU264      0.1561
    200  C         14.3880   17.9290  125.5860 C.2   264  LEU264      0.2260
    201  O         14.4790   18.8390  126.3970 O.2   264  LEU264     -0.2867
    202  CB        14.2600   18.6300  123.1880 C.3   264  LEU264      0.0270
    203  CG        15.0020   19.7400  122.3780 C.3   264  LEU264      0.0019
    204  CD1       16.2710   19.2740  121.7410 C.3   264  LEU264      0.0001
    205  CD2       14.0800   20.3300  121.3600 C.3   264  LEU264      0.0001
    206  N          7.4460   16.7240  125.8990 N.3   422  PHE422     -0.1241
    207  CA         8.4480   16.2720  124.9910 C.3   422  PHE422      0.1605
    208  C          8.8620   14.8170  125.2560 C.2   422  PHE422      0.2264
    209  O          9.1770   14.0960  124.2830 O.2   422  PHE422     -0.2867
    210  CB         9.6030   17.2910  124.9170 C.3   422  PHE422      0.0534
    211  CG         9.3600   18.3560  123.8780 C.ar  422  PHE422     -0.0203
    212  CD1        8.2380   19.2230  123.9570 C.ar  422  PHE422     -0.0042
    213  CD2       10.1830   18.4640  122.7820 C.ar  422  PHE422     -0.0042
    214  CE1        7.9790   20.1320  122.9600 C.ar  422  PHE422     -0.0003
    215  CE2        9.9180   19.4380  121.7850 C.ar  422  PHE422     -0.0003
    216  CZ         8.8190   20.2250  121.8640 C.ar  422  PHE422     -0.0000
@<TRIPOS>BOND
     1    84    85    1
     2    87    86    2
     3    85    86    1
     4    85    88    1
     5    45    43    1
     6    88    89    1
     7    91    89   ar
     8    91    93   ar
     9    89    90   ar
    10    42    43    1
    11    42    39    1
    12    43    44    1
    13    30    31    1
    14    93    94   ar
    15    90    92   ar
    16    21    19    1
    17    96    97    1
    18    94    92   ar
    19    94    95    1
    20    38    39    1
    21    38    32   am
    22    17    16    2
    23    24    25    2
    24    24    23    1
    25    39    40    1
    26    15    16    1
    27    15    14    1
    28    15    18    1
    29    16    22   am
    30    31    34    1
    31    31    32    1
    32    40    41    2
    33    34    35    1
    34   125   123    1
    35    32    33    2
    36    19    18    1
    37    19    20    1
    38    22    23    1
    39    97    98    1
    40    97   100    1
    41   102   104   ar
    42   102   101   ar
    43    23    26    1
    44    98    99    2
    45   117   116    1
    46   123   122    1
    47   104   105   ar
    48    46    47    1
    49   100   101    1
    50   110   111    1
    51    26    28    1
    52    26    27    1
    53   101   103   ar
    54    12    11    2
    55    35    37    1
    56    35    36    1
    57   105   103   ar
    58   105   107   ar
    59    11    10    1
    60   103   106   ar
    61   122   119    1
    62   122   124    1
    63   116   115    1
    64   118   119    1
    65   115   114    1
    66    47    50    1
    67    47    48    1
    68   111   114    1
    69   111   112    1
    70   107   109   ar
    71    27    29    1
    72   119   120    1
    73   106   108   ar
    74     4     3    2
    75   109   108   ar
    76    51    48   am
    77    51    52    1
    78   112   113    2
    79    10     9    1
    80    10    13    1
    81    48    49    2
    82     3     9   am
    83     3     2    1
    84     2     1    1
    85     2     5    1
    86    57    59   ar
    87    57    56   ar
    88     7     6    2
    89   151   152    1
    90    55    52    1
    91    55    56    1
    92   175   174    1
    93   120   121    2
    94    52    53    1
    95   135   134   ar
    96   135   133   ar
    97    53    54    2
    98   152   153    1
    99   173   174   ar
   100   173   171   ar
   101    59    60   ar
   102    56    58   ar
   103   134   132   ar
   104     6     5    1
   105     6     8   am
   106   174   172   ar
   107   133   131   ar
   108   171   169   ar
   109    61    62    1
   110    60    58   ar
   111   153   155   am
   112   153   154    2
   113   132   131   ar
   114   155   156    1
   115   131   130    1
   116   126   127    1
   117   142   140    1
   118   172   170   ar
   119   169   170   ar
   120   169   168    1
   121    62    65    1
   122    62    63    1
   123    75    72    1
   124   159   156    1
   125   159   160    1
   126   127   130    1
   127   127   128    1
   128   156   157    1
   129    71    63   am
   130    71    72    1
   131   162   161   ar
   132    65    66    1
   133   168   165    1
   134   140   141    1
   135   140   137    1
   136    63    64    2
   137    72    73    1
   138    73    74    2
   139   161   160    1
   140   161   163   ar
   141   136   137    1
   142   157   158    2
   143   128   129    2
   144   164   165    1
   145   137   138    1
   146   165   166    1
   147    66    68   ar
   148    66    67   ar
   149   176   166   am
   150   176   177    1
   151   180   177    1
   152   180   181    1
   153   183   181    1
   154   166   167    2
   155    68    70   ar
   156    67    69   ar
   157   177   178    1
   158   138   139    2
   159   138   143   am
   160   181   182    1
   161   143   144    1
   162    76    77    1
   163    70    69   ar
   164   178   179    2
   165   189   188    1
   166    77    80    1
   167    77    78    1
   168    80    81    1
   169    80    82    1
   170    81    83    1
   171   144   147    1
   172   144   145    1
   173    78    79    2
   174   148   149    1
   175   148   147    1
   176   148   150    1
   177   188   185    1
   178   145   146    2
   179   184   185    1
   180   185   186    1
   181   196   195    1
   182   195   197    1
   183   195   194    1
   184   190   186   am
   185   190   191    1
   186   186   187    2
   187   194   191    1
   188   205   203    1
   189   191   192    1
   190   204   203    1
   191   215   216   ar
   192   215   213   ar
   193   216   214   ar
   194   203   202    1
   195   192   193    2
   196   213   211   ar
   197   214   212   ar
   198   202   199    1
   199   198   199    1
   200   211   212   ar
   201   211   210    1
   202   199   200    1
   203   209   208    2
   204   210   207    1
   205   207   208    1
   206   207   206    1
   207   200   201    2
