@<TRIPOS>MOLECULE
tmp/5v2cV29.pdb
 121 115 0 0 0
SMALL
GASTEIGER

@<TRIPOS>ATOM
      1  N         21.5760   -1.1030  115.9180 N.3   248  ALA248     -0.1231
      2  CA        20.9560   -0.5800  117.1660 C.3   248  ALA248      0.1694
      3  C         19.7590    0.3580  116.9820 C.2   248  ALA248      0.2592
      4  O         18.8430    0.4060  117.8170 O.2   248  ALA248     -0.2718
      5  CB        22.0240    0.1000  117.9940 C.3   248  ALA248      0.0304
      6  N         19.7810    1.1250  115.9040 N.am  249  PHE249     -0.1962
      7  CA        18.8050    2.1790  115.6870 C.3   249  PHE249      0.1771
      8  C         17.8050    1.9010  114.6050 C.2   249  PHE249      0.2619
      9  O         17.9940    1.0270  113.7640 O.2   249  PHE249     -0.2715
     10  CB        19.5400    3.4890  115.3580 C.3   249  PHE249      0.0574
     11  CG        20.3540    4.0200  116.4800 C.ar  249  PHE249     -0.0200
     12  CD1       19.7500    4.7400  117.5120 C.ar  249  PHE249     -0.0042
     13  CD2       21.7260    3.8180  116.5310 C.ar  249  PHE249     -0.0042
     14  CE1       20.5040    5.2380  118.5870 C.ar  249  PHE249     -0.0003
     15  CE2       22.4890    4.2950  117.6260 C.ar  249  PHE249     -0.0003
     16  CZ        21.8620    5.0160  118.6550 C.ar  249  PHE249     -0.0000
     17  N         16.7030    2.6410  114.6650 N.am  250  ILE250     -0.1977
     18  CA        15.7700    2.7440  113.5750 C.3   250  ILE250      0.1596
     19  C         16.1960    3.9310  112.7140 C.2   250  ILE250      0.2287
     20  O         16.5560    5.0140  113.2310 O.2   250  ILE250     -0.2864
     21  CB        14.3220    2.9080  114.0800 C.3   250  ILE250      0.0276
     22  CG1       13.9420    1.7400  115.0440 C.3   250  ILE250      0.0022
     23  CG2       13.3410    3.0070  112.9050 C.3   250  ILE250      0.0022
     24  CD1       14.0000    0.3350  114.4260 C.3   250  ILE250      0.0001
     25  N         11.9280    8.2860  113.4820 N.3   255  ALA255     -0.1245
     26  CA        12.8560    7.8170  114.5200 C.3   255  ALA255      0.1562
     27  C         13.8160    8.9490  114.8810 C.2   255  ALA255      0.2260
     28  O         14.0480    9.2220  116.0550 O.2   255  ALA255     -0.2867
     29  CB        13.6250    6.5700  114.0680 C.3   255  ALA255      0.0290
     30  N         12.1000   11.3890  117.0170 N.3   258  SER258     -0.1202
     31  CA        11.9430   10.8280  118.3540 C.3   258  SER258      0.2020
     32  C         13.2460   10.9360  119.1810 C.2   258  SER258      0.2618
     33  O         13.1970   11.2900  120.3700 O.2   258  SER258     -0.2717
     34  CB        11.4120    9.3760  118.2900 C.3   258  SER258      0.2103
     35  OG        12.4860    8.4520  118.1320 O.3   258  SER258     -0.2182
     36  N         14.4060   10.7030  118.5770 N.am  259  TYR259     -0.1975
     37  CA        15.6110   10.7720  119.3560 C.3   259  TYR259      0.1639
     38  C         15.7980   12.2180  119.8560 C.2   259  TYR259      0.2290
     39  O         16.1390   12.4210  121.0220 O.2   259  TYR259     -0.2864
     40  CB        16.8880   10.2880  118.6230 C.3   259  TYR259      0.0560
     41  CG        16.7540    8.9570  117.9130 C.ar  259  TYR259     -0.0198
     42  CD1       16.0070    7.9140  118.4550 C.ar  259  TYR259     -0.0009
     43  CD2       17.3010    8.7840  116.6500 C.ar  259  TYR259     -0.0009
     44  CE1       15.8620    6.7190  117.7840 C.ar  259  TYR259      0.0417
     45  CE2       17.1800    7.5750  115.9720 C.ar  259  TYR259      0.0417
     46  CZ        16.4720    6.5310  116.5500 C.ar  259  TYR259      0.1957
     47  OH        16.3310    5.3660  115.8560 O.3   259  TYR259     -0.2866
     48  N         13.5330   13.1090  122.8020 N.3   262  GLY262     -0.1210
     49  CA        14.0410   12.5940  124.0660 C.3   262  GLY262      0.1956
     50  C         15.1580   13.4720  124.6210 C.2   262  GLY262      0.2611
     51  O         15.2060   13.7570  125.8270 O.2   262  GLY262     -0.2717
     52  N         16.0510   13.8930  123.7180 N.am  263  ALA263     -0.1979
     53  CA        17.1810   14.7860  124.0850 C.3   263  ALA263      0.1597
     54  C         16.6560   16.1520  124.5570 C.2   263  ALA263      0.2287
     55  O         17.1220   16.6750  125.6010 O.2   263  ALA263     -0.2864
     56  CB        18.1240   14.9850  122.9050 C.3   263  ALA263      0.0319
     57  N         13.7090   16.8210  125.8270 N.3   265  SER265     -0.1202
     58  CA        13.0030   16.5800  127.1040 C.3   265  SER265      0.2020
     59  C         14.0090   16.6050  128.2380 C.2   265  SER265      0.2618
     60  O         13.8300   17.3100  129.2130 O.2   265  SER265     -0.2717
     61  CB        12.1390   15.2630  127.1010 C.3   265  SER265      0.2103
     62  OG        11.6210   14.9700  128.3930 O.3   265  SER265     -0.2182
     63  N         15.0870   15.8650  128.0820 N.am  266  MET266     -0.1979
     64  CA        16.0970   15.8220  129.0820 C.3   266  MET266      0.1605
     65  C         16.6680   17.2520  129.3500 C.2   266  MET266      0.2287
     66  O         16.7890   17.6840  130.4730 O.2   266  MET266     -0.2864
     67  CB        17.1470   14.7840  128.6440 C.3   266  MET266      0.0413
     68  CG        18.4170   14.7230  129.4350 C.3   266  MET266      0.0598
     69  SD        19.6520   13.5160  128.8040 S.3   266  MET266     -0.1393
     70  CE        18.6830   12.0320  129.0130 C.3   266  MET266      0.0692
     71  N          8.8400   14.3900  126.5240 N.3   423  LEU423     -0.1245
     72  CA         8.9740   12.9820  126.8460 C.3   423  LEU423      0.1561
     73  C          7.8090   12.1820  126.2700 C.2   423  LEU423      0.2260
     74  O          8.0150   11.1390  125.6500 O.2   423  LEU423     -0.2867
     75  CB         9.0780   12.7470  128.3220 C.3   423  LEU423      0.0270
     76  CG         9.3710   11.2980  128.7870 C.3   423  LEU423      0.0019
     77  CD1       10.5950   10.7210  128.1080 C.3   423  LEU423      0.0001
     78  CD2        9.5190   11.1610  130.3090 C.3   423  LEU423      0.0001
     79  N          8.5250   11.9600  122.6770 N.3   426  HIS426     -0.1226
     80  CA         9.5550   10.9060  122.4620 C.3   426  HIS426      0.1752
     81  C          8.9030    9.5150  122.4390 C.2   426  HIS426      0.2595
     82  O          9.1280    8.7450  121.5090 O.2   426  HIS426     -0.2718
     83  CB        10.6540   10.9060  123.5300 C.3   426  HIS426      0.0759
     84  CG        11.5400    9.6990  123.4690 C.ar  426  HIS426      0.0818
     85  ND1       12.3760    9.4450  122.4060 N.ar  426  HIS426     -0.2268
     86  CD2       11.6990    8.6580  124.3290 C.ar  426  HIS426      0.1154
     87  CE1       13.0000    8.2830  122.6020 C.ar  426  HIS426      0.1986
     88  NE2       12.6580    7.8040  123.8000 N.ar  426  HIS426     -0.2212
     89  N          8.0870    9.1930  123.4420 N.am  427  LEU427     -0.1980
     90  CA         7.4790    7.8590  123.5040 C.3   427  LEU427      0.1596
     91  C          6.5400    7.6240  122.3210 C.2   427  LEU427      0.2287
     92  O          6.5570    6.5800  121.6940 O.2   427  LEU427     -0.2864
     93  CB         6.7260    7.6630  124.8220 C.3   427  LEU427      0.0297
     94  CG         7.5810    7.6800  126.0680 C.3   427  LEU427      0.0022
     95  CD1        6.6730    7.6820  127.3330 C.3   427  LEU427      0.0001
     96  CD2        8.5570    6.5060  126.0490 C.3   427  LEU427      0.0001
     97  N          8.7430    7.4550  119.1220 N.3   430  ALA430     -0.1231
     98  CA         9.6870    6.3150  119.1230 C.3   430  ALA430      0.1694
     99  C          8.9330    4.9930  118.8940 C.2   430  ALA430      0.2592
    100  O          9.3390    4.1680  118.0580 O.2   430  ALA430     -0.2718
    101  CB        10.5000    6.2700  120.3960 C.3   430  ALA430      0.0304
    102  N          7.8020    4.8440  119.6260 N.am  431  GLY431     -0.1957
    103  CA         6.9080    3.7200  119.4270 C.3   431  GLY431      0.1869
    104  C          6.4260    3.6510  117.9810 C.2   431  GLY431      0.2309
    105  O          6.3930    2.5660  117.3650 O.2   431  GLY431     -0.2863
    106  N          7.7090    5.0090  115.2310 N.3   433  ALA433     -0.1231
    107  CA         8.7560    4.7620  114.2770 C.3   433  ALA433      0.1694
    108  C          9.1510    3.2560  114.2390 C.2   433  ALA433      0.2591
    109  O          9.4220    2.7170  113.1840 O.2   433  ALA433     -0.2718
    110  CB         9.9640    5.6190  114.6220 C.3   433  ALA433      0.0304
    111  N          9.2010    2.6180  115.4060 N.am  434  ARG434     -0.1980
    112  CA         9.4370    1.2040  115.5180 C.3   434  ARG434      0.1597
    113  C          8.3450    0.4240  114.7900 C.2   434  ARG434      0.2287
    114  O          8.6440   -0.4060  113.9670 O.2   434  ARG434     -0.2864
    115  CB         9.4650    0.7610  117.0080 C.3   434  ARG434      0.0334
    116  CG        10.8070    0.9010  117.6880 C.3   434  ARG434      0.0492
    117  CD        11.6910   -0.2950  117.4060 C.3   434  ARG434      0.2205
    118  NE        12.9730   -0.0480  118.0460 N.pl3 434  ARG434     -0.0865
    119  CZ        13.7360   -0.9490  118.6990 C.cat 434  ARG434      0.5346
    120  NH1       14.8840   -0.5410  119.2450 N.pl3 434  ARG434      0.1354
    121  NH2       13.3890   -2.2420  118.8360 N.pl3 434  ARG434      0.1354
@<TRIPOS>BOND
     1    19    20    2
     2    19    18    1
     3    23    21    1
     4   109   108    2
     5    25    26    1
     6    18    21    1
     7    18    17    1
     8     9     8    2
     9   114   113    2
    10    29    26    1
    11    21    22    1
    12   108   107    1
    13   108   111   am
    14   107   110    1
    15   107   106    1
    16    24    22    1
    17    26    27    1
    18     8    17   am
    19     8     7    1
    20   113   112    1
    21    27    28    2
    22    10     7    1
    23    10    11    1
    24   111   112    1
    25   112   115    1
    26     7     6    1
    27    47    46    1
    28     6     3   am
    29     1     2    1
    30    45    46   ar
    31    45    43   ar
    32    11    13   ar
    33    11    12   ar
    34    13    15   ar
    35    46    44   ar
    36    43    41   ar
    37     3     2    1
    38     3     4    2
    39   115   116    1
    40    30    31    1
    41     2     5    1
    42   105   104    2
    43   117   116    1
    44   117   118    1
    45    12    14   ar
    46    15    16   ar
    47    44    42   ar
    48    41    42   ar
    49    41    40    1
    50   104   103    1
    51   118   119    2
    52   100    99    2
    53    35    34    1
    54    34    31    1
    55    31    32    1
    56    36    32   am
    57    36    37    1
    58    14    16   ar
    59    40    37    1
    60   119   121    1
    61   119   120    1
    62    99    98    1
    63    99   102   am
    64    97    98    1
    65    98   101    1
    66    32    33    2
    67    37    38    1
    68   103   102    1
    69    38    39    2
    70    82    81    2
    71    92    91    2
    72    91    90    1
    73    85    87   ar
    74    85    84   ar
    75    81    80    1
    76    81    89   am
    77    80    79    1
    78    80    83    1
    79    87    88   ar
    80    48    49    1
    81    56    53    1
    82    89    90    1
    83    84    83    1
    84    84    86   ar
    85    90    93    1
    86    52    53    1
    87    52    50   am
    88    88    86   ar
    89    49    50    1
    90    53    54    1
    91    54    55    2
    92    50    51    2
    93    93    94    1
    94    74    73    2
    95    57    58    1
    96    96    94    1
    97    94    95    1
    98    73    72    1
    99    71    72    1
   100    72    75    1
   101    61    58    1
   102    61    62    1
   103    58    59    1
   104    63    59   am
   105    63    64    1
   106    77    76    1
   107    59    60    2
   108    75    76    1
   109    67    64    1
   110    67    68    1
   111    76    78    1
   112    69    70    1
   113    69    68    1
   114    64    65    1
   115    65    66    2
