@<TRIPOS>MOLECULE
tmp/5v2cV05.pdb
 185 181 0 0 0
SMALL
GASTEIGER

@<TRIPOS>ATOM
      1  N         36.4400   19.9600  134.5290 N.3   194  ILE194     -0.1231
      2  CA        35.3270   20.0920  133.5770 C.3   194  ILE194      0.1692
      3  C         34.4430   18.8390  133.5400 C.2   194  ILE194      0.2592
      4  O         33.2200   18.9280  133.7290 O.2   194  ILE194     -0.2718
      5  CB        35.8310   20.4010  132.1620 C.3   194  ILE194      0.0266
      6  CG1       36.5270   21.7660  132.1550 C.3   194  ILE194      0.0019
      7  CG2       34.6840   20.4050  131.1400 C.3   194  ILE194      0.0020
      8  CD1       35.6570   22.9600  132.5520 C.3   194  ILE194      0.0001
      9  N         35.0430   17.6820  133.2820 N.am  195  PHE195     -0.1976
     10  CA        34.2640   16.4670  133.2530 C.3   195  PHE195      0.1639
     11  C         33.9170   15.9350  134.6510 C.2   195  PHE195      0.2290
     12  O         33.0420   15.0770  134.7890 O.2   195  PHE195     -0.2864
     13  CB        34.9670   15.4170  132.3760 C.3   195  PHE195      0.0560
     14  CG        35.1100   15.8620  130.9980 C.ar  195  PHE195     -0.0200
     15  CD1       34.0170   15.8380  130.1540 C.ar  195  PHE195     -0.0042
     16  CD2       36.3050   16.3990  130.5490 C.ar  195  PHE195     -0.0042
     17  CE1       34.1080   16.3120  128.8620 C.ar  195  PHE195     -0.0003
     18  CE2       36.4130   16.8740  129.2550 C.ar  195  PHE195     -0.0003
     19  CZ        35.3130   16.8430  128.4210 C.ar  195  PHE195     -0.0000
     20  N         32.3280   17.7190  136.8250 N.3   197  TYR197     -0.1227
     21  CA        30.9210   18.1010  136.9570 C.3   197  TYR197      0.1736
     22  C         29.9580   17.0490  136.3960 C.2   197  TYR197      0.2595
     23  O         28.8890   16.8090  136.9710 O.2   197  TYR197     -0.2718
     24  CB        30.6300   19.4280  136.2520 C.3   197  TYR197      0.0548
     25  CG        31.0460   20.6440  136.9990 C.ar  197  TYR197     -0.0200
     26  CD1       30.2530   21.1640  138.0330 C.ar  197  TYR197     -0.0009
     27  CD2       32.2550   21.2980  136.6770 C.ar  197  TYR197     -0.0009
     28  CE1       30.6220   22.2880  138.7230 C.ar  197  TYR197      0.0417
     29  CE2       32.6290   22.4170  137.3690 C.ar  197  TYR197      0.0417
     30  CZ        31.8210   22.8950  138.3870 C.ar  197  TYR197      0.1957
     31  OH        32.2530   24.0010  138.9710 O.3   197  TYR197     -0.2866
     32  N         30.3060   16.4680  135.2510 N.am  198  LEU198     -0.1980
     33  CA        29.4200   15.5020  134.5970 C.3   198  LEU198      0.1596
     34  C         29.3200   14.2010  135.3340 C.2   198  LEU198      0.2287
     35  O         28.3770   13.4720  135.1230 O.2   198  LEU198     -0.2864
     36  CB        29.9190   15.1830  133.2130 C.3   198  LEU198      0.0297
     37  CG        29.7600   16.1710  132.0930 C.3   198  LEU198      0.0022
     38  CD1       30.4140   15.5140  130.8670 C.3   198  LEU198      0.0001
     39  CD2       28.3030   16.4520  131.8230 C.3   198  LEU198      0.0001
     40  N         25.7900   19.1020  137.0870 N.3   209  ILE209     -0.1245
     41  CA        26.2750   20.2960  136.4000 C.3   209  ILE209      0.1561
     42  C         25.6230   21.5670  136.8920 C.2   209  ILE209      0.2260
     43  O         26.1620   22.6570  136.6840 O.2   209  ILE209     -0.2867
     44  CB        26.1980   20.1900  134.8360 C.3   209  ILE209      0.0252
     45  CG1       24.8000   20.1580  134.3030 C.3   209  ILE209      0.0019
     46  CG2       27.0010   18.9670  134.3410 C.3   209  ILE209      0.0019
     47  CD1       24.7250   20.1590  132.8000 C.3   209  ILE209      0.0001
     48  N         27.6100   24.2850  138.9490 N.3   212  VAL212     -0.1245
     49  CA        28.6490   25.1480  138.4630 C.3   212  VAL212      0.1561
     50  C         28.5190   26.5400  139.0740 C.2   212  VAL212      0.2260
     51  O         27.4550   27.1840  139.0020 O.2   212  VAL212     -0.2867
     52  CB        28.7370   25.1950  136.9130 C.3   212  VAL212      0.0252
     53  CG1       27.4990   25.7950  136.2930 C.3   212  VAL212      0.0019
     54  CG2       29.9860   25.9290  136.4670 C.3   212  VAL212      0.0019
     55  N         34.8300   28.1360  135.2350 N.3   217  ASP217     -0.1225
     56  CA        34.3730   26.8080  134.8740 C.3   217  ASP217      0.1805
     57  C         33.3450   26.8680  133.7380 C.2   217  ASP217      0.2597
     58  O         33.4150   26.0650  132.8170 O.2   217  ASP217     -0.2718
     59  CB        33.8200   26.0240  136.0860 C.3   217  ASP217      0.1424
     60  CG        34.9060   25.6120  137.1150 C.2   217  ASP217      0.3668
     61  OD1       36.1470   25.7730  136.9040 O.co2 217  ASP217     -0.2456
     62  OD2       34.4550   25.1250  138.1730 O.co2 217  ASP217     -0.2456
     63  N         32.4490   27.8530  133.7770 N.am  218  VAL218     -0.1980
     64  CA        31.4560   28.0140  132.7150 C.3   218  VAL218      0.1595
     65  C         32.1670   28.2140  131.3810 C.2   218  VAL218      0.2287
     66  O         31.9260   27.4820  130.3990 O.2   218  VAL218     -0.2864
     67  CB        30.4970   29.1750  133.0090 C.3   218  VAL218      0.0276
     68  CG1       29.6000   29.5000  131.7930 C.3   218  VAL218      0.0022
     69  CG2       29.6520   28.8610  134.2730 C.3   218  VAL218      0.0022
     70  N         34.1870   25.2270  130.2850 N.3   221  GLY221     -0.1210
     71  CA        33.2790   24.2260  129.7800 C.3   221  GLY221      0.1956
     72  C         32.8430   24.5080  128.3490 C.2   221  GLY221      0.2611
     73  O         32.7360   23.5750  127.5410 O.2   221  GLY221     -0.2717
     74  N         32.6030   25.7720  128.0050 N.am  222  HIS222     -0.1975
     75  CA        32.1680   26.0920  126.6410 C.3   222  HIS222      0.1656
     76  C         33.3240   25.9940  125.6340 C.2   222  HIS222      0.2291
     77  O         33.0890   25.7200  124.4560 O.2   222  HIS222     -0.2864
     78  CB        31.4300   27.4450  126.5940 C.3   222  HIS222      0.0771
     79  CG        30.0130   27.3620  127.0740 C.ar  222  HIS222      0.0820
     80  ND1       29.6730   27.4990  128.3980 N.ar  222  HIS222     -0.2267
     81  CD2       28.8620   27.0880  126.4050 C.ar  222  HIS222      0.1154
     82  CE1       28.3550   27.3490  128.5140 C.ar  222  HIS222      0.1986
     83  NE2       27.8270   27.1070  127.3140 N.ar  222  HIS222     -0.2212
     84  N         35.6120   23.5280  125.8520 N.3   224  TRP224     -0.1227
     85  CA        35.4960   22.1030  125.6000 C.3   224  TRP224      0.1737
     86  C         34.3190   21.6980  124.6890 C.2   224  TRP224      0.2595
     87  O         34.4980   20.9410  123.7410 O.2   224  TRP224     -0.2718
     88  CB        35.4150   21.3650  126.9060 C.3   224  TRP224      0.0564
     89  CG        36.8200   21.0590  127.4780 C.ar  224  TRP224      0.0003
     90  CD1       37.4980   21.7630  128.4330 C.ar  224  TRP224      0.0946
     91  CD2       37.6430   19.9650  127.1370 C.ar  224  TRP224      0.0152
     92  NE1       38.7110   21.1670  128.7130 N.ar  224  TRP224     -0.2442
     93  CE2       38.8230   20.0570  127.9260 C.ar  224  TRP224      0.0810
     94  CE3       37.5240   18.9090  126.2400 C.ar  224  TRP224      0.0012
     95  CZ2       39.8470   19.1440  127.8260 C.ar  224  TRP224      0.0191
     96  CZ3       38.5640   18.0050  126.1540 C.ar  224  TRP224      0.0001
     97  CH2       39.6960   18.1240  126.9330 C.ar  224  TRP224      0.0015
     98  N         33.1140   22.1810  124.9770 N.am  225  ILE225     -0.1980
     99  CA        31.9340   21.8070  124.1980 C.3   225  ILE225      0.1595
    100  C         32.0400   22.3220  122.7600 C.2   225  ILE225      0.2287
    101  O         31.5960   21.6910  121.7870 O.2   225  ILE225     -0.2864
    102  CB        30.6630   22.2760  124.9210 C.3   225  ILE225      0.0276
    103  CG1       30.1510   21.1430  125.7960 C.3   225  ILE225      0.0022
    104  CG2       29.5580   22.7170  123.9540 C.3   225  ILE225      0.0022
    105  CD1       29.7650   19.8390  125.0720 C.3   225  ILE225      0.0001
    106  N         34.6350   19.9860  121.1480 N.3   228  ILE228     -0.1245
    107  CA        33.9870   18.7130  121.0540 C.3   228  ILE228      0.1561
    108  C         33.0050   18.6600  119.8900 C.2   228  ILE228      0.2260
    109  O         33.0560   17.7240  119.0970 O.2   228  ILE228     -0.2867
    110  CB        33.3100   18.3210  122.3710 C.3   228  ILE228      0.0252
    111  CG1       34.3880   17.8290  123.3400 C.3   228  ILE228      0.0019
    112  CG2       32.2880   17.2070  122.1680 C.3   228  ILE228      0.0019
    113  CD1       33.8950   17.8210  124.7720 C.3   228  ILE228      0.0001
    114  N         27.5850   -1.7500  114.4440 N.3   244  TRP244     -0.1241
    115  CA        26.8850   -1.8420  115.7250 C.3   244  TRP244      0.1605
    116  C         25.7960   -0.7680  115.8490 C.2   244  TRP244      0.2264
    117  O         24.6860   -1.0220  116.3810 O.2   244  TRP244     -0.2867
    118  CB        27.8580   -1.8190  116.9020 C.3   244  TRP244      0.0550
    119  CG        28.6650   -0.5810  117.0590 C.ar  244  TRP244      0.0003
    120  CD1       29.9660   -0.3680  116.6290 C.ar  244  TRP244      0.0946
    121  CD2       28.2700    0.6210  117.7390 C.ar  244  TRP244      0.0152
    122  NE1       30.3700    0.9000  116.9790 N.ar  244  TRP244     -0.2442
    123  CE2       29.3620    1.5250  117.6630 C.ar  244  TRP244      0.0810
    124  CE3       27.1020    1.0250  118.4040 C.ar  244  TRP244      0.0012
    125  CZ2       29.3230    2.8110  118.2500 C.ar  244  TRP244      0.0191
    126  CZ3       27.0730    2.3080  118.9860 C.ar  244  TRP244      0.0001
    127  CH2       28.1590    3.1770  118.8770 C.ar  244  TRP244      0.0015
    128  N         21.5760   -1.1030  115.9180 N.3   248  ALA248     -0.1231
    129  CA        20.9560   -0.5800  117.1660 C.3   248  ALA248      0.1694
    130  C         19.7590    0.3580  116.9820 C.2   248  ALA248      0.2592
    131  O         18.8430    0.4060  117.8170 O.2   248  ALA248     -0.2718
    132  CB        22.0240    0.1000  117.9940 C.3   248  ALA248      0.0304
    133  N         19.7810    1.1250  115.9040 N.am  249  PHE249     -0.1976
    134  CA        18.8050    2.1790  115.6870 C.3   249  PHE249      0.1639
    135  C         17.8050    1.9010  114.6050 C.2   249  PHE249      0.2290
    136  O         17.9940    1.0270  113.7640 O.2   249  PHE249     -0.2864
    137  CB        19.5400    3.4890  115.3580 C.3   249  PHE249      0.0560
    138  CG        20.3540    4.0200  116.4800 C.ar  249  PHE249     -0.0200
    139  CD1       19.7500    4.7400  117.5120 C.ar  249  PHE249     -0.0042
    140  CD2       21.7260    3.8180  116.5310 C.ar  249  PHE249     -0.0042
    141  CE1       20.5040    5.2380  118.5870 C.ar  249  PHE249     -0.0003
    142  CE2       22.4890    4.2950  117.6260 C.ar  249  PHE249     -0.0003
    143  CZ        21.8620    5.0160  118.6550 C.ar  249  PHE249     -0.0000
    144  N         14.4060   10.7030  118.5770 N.3   259  TYR259     -0.1241
    145  CA        15.6110   10.7720  119.3560 C.3   259  TYR259      0.1605
    146  C         15.7980   12.2180  119.8560 C.2   259  TYR259      0.2264
    147  O         16.1390   12.4210  121.0220 O.2   259  TYR259     -0.2867
    148  CB        16.8880   10.2880  118.6230 C.3   259  TYR259      0.0534
    149  CG        16.7540    8.9570  117.9130 C.ar  259  TYR259     -0.0201
    150  CD1       16.0070    7.9140  118.4550 C.ar  259  TYR259     -0.0009
    151  CD2       17.3010    8.7840  116.6500 C.ar  259  TYR259     -0.0009
    152  CE1       15.8620    6.7190  117.7840 C.ar  259  TYR259      0.0417
    153  CE2       17.1800    7.5750  115.9720 C.ar  259  TYR259      0.0417
    154  CZ        16.4720    6.5310  116.5500 C.ar  259  TYR259      0.1957
    155  OH        16.3310    5.3660  115.8560 O.3   259  TYR259     -0.2866
    156  N         15.0870   15.8650  128.0820 N.3   266  MET266     -0.1245
    157  CA        16.0970   15.8220  129.0820 C.3   266  MET266      0.1570
    158  C         16.6680   17.2520  129.3500 C.2   266  MET266      0.2261
    159  O         16.7890   17.6840  130.4730 O.2   266  MET266     -0.2867
    160  CB        17.1470   14.7840  128.6440 C.3   266  MET266      0.0387
    161  CG        18.4170   14.7230  129.4350 C.3   266  MET266      0.0595
    162  SD        19.6520   13.5160  128.8040 S.3   266  MET266     -0.1393
    163  CE        18.6830   12.0320  129.0130 C.3   266  MET266      0.0692
    164  N         18.3620   23.9750  136.6100 N.3   274  PHE274     -0.1241
    165  CA        19.3560   25.0670  136.5130 C.3   274  PHE274      0.1605
    166  C         18.7550   26.4000  137.0430 C.2   274  PHE274      0.2264
    167  O         19.3590   27.0640  137.9050 O.2   274  PHE274     -0.2867
    168  CB        19.8890   25.2550  135.0860 C.3   274  PHE274      0.0534
    169  CG        21.3320   24.9070  134.9120 C.ar  274  PHE274     -0.0203
    170  CD1       22.3070   25.7310  135.4250 C.ar  274  PHE274     -0.0042
    171  CD2       21.7240   23.7710  134.1770 C.ar  274  PHE274     -0.0042
    172  CE1       23.6770   25.4600  135.2340 C.ar  274  PHE274     -0.0003
    173  CE2       23.0800   23.4780  133.9840 C.ar  274  PHE274     -0.0003
    174  CZ        24.0670   24.3200  134.5270 C.ar  274  PHE274     -0.0000
    175  N          9.2010    2.6180  115.4060 N.3   434  ARG434     -0.1245
    176  CA         9.4370    1.2040  115.5180 C.3   434  ARG434      0.1563
    177  C          8.3450    0.4240  114.7900 C.2   434  ARG434      0.2260
    178  O          8.6440   -0.4060  113.9670 O.2   434  ARG434     -0.2867
    179  CB         9.4650    0.7610  117.0080 C.3   434  ARG434      0.0307
    180  CG        10.8070    0.9010  117.6880 C.3   434  ARG434      0.0489
    181  CD        11.6910   -0.2950  117.4060 C.3   434  ARG434      0.2205
    182  NE        12.9730   -0.0480  118.0460 N.pl3 434  ARG434     -0.0865
    183  CZ        13.7360   -0.9490  118.6990 C.cat 434  ARG434      0.5346
    184  NH1       14.8840   -0.5410  119.2450 N.pl3 434  ARG434      0.1354
    185  NH2       13.3890   -2.2420  118.8360 N.pl3 434  ARG434      0.1354
@<TRIPOS>BOND
     1   136   135    2
     2   178   177    2
     3   114   115    1
     4   135   134    1
     5   177   176    1
     6   137   134    1
     7   137   138    1
     8   175   176    1
     9   176   179    1
    10   134   133    1
    11   115   116    1
    12   115   118    1
    13   116   117    2
    14   155   154    1
    15   133   130   am
    16   128   129    1
    17   153   154   ar
    18   153   151   ar
    19   138   140   ar
    20   138   139   ar
    21   140   142   ar
    22   154   152   ar
    23   120   122   ar
    24   120   119   ar
    25   151   149   ar
    26   118   119    1
    27   122   123   ar
    28   130   129    1
    29   130   131    2
    30   179   180    1
    31   119   121   ar
    32   129   132    1
    33   181   180    1
    34   181   182    1
    35   139   141   ar
    36   142   143   ar
    37   123   121   ar
    38   123   125   ar
    39   121   124   ar
    40   152   150   ar
    41   149   150   ar
    42   149   148    1
    43   182   183    2
    44   125   127   ar
    45   124   126   ar
    46   144   145    1
    47   141   143   ar
    48   148   145    1
    49   183   185    1
    50   183   184    1
    51   127   126   ar
    52   109   108    2
    53   145   146    1
    54   146   147    2
    55   108   107    1
    56   107   106    1
    57   107   110    1
    58   101   100    2
    59   112   110    1
    60   110   111    1
    61   100    99    1
    62   111   113    1
    63    87    86    2
    64   104   102    1
    65    99   102    1
    66    99    98    1
    67    77    76    2
    68    86    98   am
    69    86    85    1
    70   102   103    1
    71   105   103    1
    72    85    84    1
    73    85    88    1
    74    76    75    1
    75    96    94   ar
    76    96    97   ar
    77    94    91   ar
    78    81    79   ar
    79    81    83   ar
    80    78    75    1
    81    78    79    1
    82    75    74    1
    83    88    89    1
    84    97    95   ar
    85    79    80   ar
    86    91    89   ar
    87    91    93   ar
    88    83    82   ar
    89    89    90   ar
    90    73    72    2
    91    95    93   ar
    92    93    92   ar
    93    74    72   am
    94   156   157    1
    95    72    71    1
    96    80    82   ar
    97    19    17   ar
    98    19    18   ar
    99    90    92   ar
   100   160   157    1
   101   160   161    1
   102   162   163    1
   103   162   161    1
   104    17    15   ar
   105   157   158    1
   106    18    16   ar
   107   158   159    2
   108    71    70    1
   109    15    14   ar
   110    66    65    2
   111    16    14   ar
   112    38    37    1
   113    14    13    1
   114     7     5    1
   115    65    64    1
   116    68    67    1
   117    39    37    1
   118    37    36    1
   119     6     5    1
   120     6     8    1
   121     5     2    1
   122    13    10    1
   123    64    67    1
   124    64    63    1
   125    47    45    1
   126    58    57    2
   127    67    69    1
   128    36    33    1
   129    10     9    1
   130    10    11    1
   131     9     3   am
   132     3     2    1
   133     3     4    2
   134     2     1    1
   135    57    63   am
   136    57    56    1
   137   173   171   ar
   138   173   174   ar
   139   171   169   ar
   140    45    44    1
   141    46    44    1
   142   174   172   ar
   143    33    32    1
   144    33    34    1
   145    11    12    2
   146    44    41    1
   147    56    55    1
   148    56    59    1
   149   169   168    1
   150   169   170   ar
   151   168   165    1
   152    35    34    2
   153   172   170   ar
   154    32    22   am
   155    59    60    1
   156    24    21    1
   157    24    25    1
   158    53    52    1
   159    22    21    1
   160    22    23    2
   161    41    42    1
   162    41    40    1
   163    54    52    1
   164   165   164    1
   165   165   166    1
   166    27    25   ar
   167    27    29   ar
   168    43    42    2
   169    20    21    1
   170    61    60   ar
   171    52    49    1
   172    25    26   ar
   173   166   167    2
   174    60    62   ar
   175    29    30   ar
   176    26    28   ar
   177    30    28   ar
   178    30    31    1
   179    49    48    1
   180    49    50    1
   181    51    50    2
