@<TRIPOS>MOLECULE
tmp/5v2cV21.pdb
 91 90 0 0 0
SMALL
GASTEIGER

@<TRIPOS>ATOM
      1  N         -2.4300    9.7740  103.0390 N.3    17  GLY17      -0.1210
      2  CA        -2.7920    8.8330  104.0850 C.3    17  GLY17       0.1956
      3  C         -2.8040    9.3720  105.4900 C.2    17  GLY17       0.2612
      4  O         -2.9360    8.5810  106.4360 O.2    17  GLY17      -0.2717
      5  N         -2.6860   10.6930  105.6500 N.am   18  PHE18      -0.1962
      6  CA        -2.6820   11.3420  106.9720 C.3    18  PHE18       0.1771
      7  C         -3.8220   12.3170  106.9900 C.2    18  PHE18       0.2619
      8  O         -3.9980   13.0410  106.0330 O.2    18  PHE18      -0.2715
      9  CB        -1.3750   12.0790  107.2020 C.3    18  PHE18       0.0574
     10  CG        -0.2320   11.1580  107.5330 C.ar   18  PHE18      -0.0200
     11  CD1       -0.1670   10.5380  108.7740 C.ar   18  PHE18      -0.0042
     12  CD2        0.7810   10.9270  106.5910 C.ar   18  PHE18      -0.0042
     13  CE1        0.9040    9.7280  109.0680 C.ar   18  PHE18      -0.0003
     14  CE2        1.8270   10.0720  106.8570 C.ar   18  PHE18      -0.0003
     15  CZ         1.8950    9.4750  108.1050 C.ar   18  PHE18      -0.0000
     16  N         -4.6150   12.3060  108.0490 N.am   19  ALA19      -0.1977
     17  CA        -5.6630   13.2920  108.2510 C.3    19  ALA19       0.1597
     18  C         -5.0680   14.6880  108.5100 C.2    19  ALA19       0.2287
     19  O         -3.8700   14.8560  108.8020 O.2    19  ALA19      -0.2864
     20  CB        -6.5940   12.8510  109.3970 C.3    19  ALA19       0.0319
     21  N         -5.3150   16.6530  110.9460 N.3    21  TRP21      -0.1227
     22  CA        -4.7980   16.8510  112.3040 C.3    21  TRP21       0.1737
     23  C         -3.4170   16.2170  112.4800 C.2    21  TRP21       0.2595
     24  O         -2.7330   16.4910  113.4610 O.2    21  TRP21      -0.2718
     25  CB        -5.7760   16.3440  113.3550 C.3    21  TRP21       0.0564
     26  CG        -6.3070   14.9560  113.0840 C.ar   21  TRP21       0.0003
     27  CD1       -7.5140   14.6400  112.5900 C.ar   21  TRP21       0.0946
     28  CD2       -5.6380   13.7160  113.3290 C.ar   21  TRP21       0.0152
     29  NE1       -7.6720   13.2770  112.4960 N.ar   21  TRP21      -0.2442
     30  CE2       -6.5220   12.6830  112.9440 C.ar   21  TRP21       0.0810
     31  CE3       -4.3830   13.3740  113.8130 C.ar   21  TRP21       0.0012
     32  CZ2       -6.1870   11.3390  113.0270 C.ar   21  TRP21       0.0191
     33  CZ3       -4.0610   12.0060  113.9220 C.ar   21  TRP21       0.0001
     34  CH2       -4.9510   11.0240  113.4940 C.ar   21  TRP21       0.0015
     35  N         -3.0000   15.3860  111.5090 N.am   22  ALA22      -0.1980
     36  CA        -1.6180   14.9440  111.3860 C.3    22  ALA22       0.1597
     37  C         -0.9850   15.4550  110.0840 C.2    22  ALA22       0.2287
     38  O         -0.0620   14.8540  109.4950 O.2    22  ALA22      -0.2864
     39  CB        -1.5440   13.4410  111.5070 C.3    22  ALA22       0.0319
     40  N          5.9450   17.0790  128.1690 N.3   421  PHE421     -0.1241
     41  CA         5.2590   16.7560  126.9140 C.3   421  PHE421      0.1605
     42  C          6.2110   16.2580  125.8460 C.2   421  PHE421      0.2264
     43  O          5.8380   15.4380  125.0170 O.2   421  PHE421     -0.2867
     44  CB         4.4150   17.9080  126.3920 C.3   421  PHE421      0.0534
     45  CG         3.0570   18.0130  127.1040 C.ar  421  PHE421     -0.0203
     46  CD1        2.1970   16.9120  127.1530 C.ar  421  PHE421     -0.0042
     47  CD2        2.6780   19.1700  127.8030 C.ar  421  PHE421     -0.0042
     48  CE1        0.9560   16.9790  127.8200 C.ar  421  PHE421     -0.0003
     49  CE2        1.4400   19.2550  128.4310 C.ar  421  PHE421     -0.0003
     50  CZ         0.5790   18.1700  128.4540 C.ar  421  PHE421     -0.0000
     51  N          6.5990   12.6970  126.4360 N.3   424  VAL424     -0.1245
     52  CA         5.4570   12.0420  125.8350 C.3   424  VAL424      0.1561
     53  C          5.6130   11.9020  124.3140 C.2   424  VAL424      0.2260
     54  O          5.3770   10.8400  123.7210 O.2   424  VAL424     -0.2867
     55  CB         4.1640   12.7600  126.1980 C.3   424  VAL424      0.0252
     56  CG1        2.9930   12.1710  125.4060 C.3   424  VAL424      0.0019
     57  CG2        3.9540   12.6890  127.7150 C.3   424  VAL424      0.0019
     58  N          5.7610    8.6300  121.9770 N.3   428  TRP428     -0.1241
     59  CA         4.8070    8.5030  120.9040 C.3   428  TRP428      0.1605
     60  C          5.5490    8.2240  119.6020 C.2   428  TRP428      0.2264
     61  O          5.2280    7.2940  118.8810 O.2   428  TRP428     -0.2867
     62  CB         4.0310    9.8190  120.7640 C.3   428  TRP428      0.0550
     63  CG         2.9710    9.7730  119.6900 C.ar  428  TRP428      0.0003
     64  CD1        3.1450   10.0410  118.3480 C.ar  428  TRP428      0.0946
     65  CD2        1.6270    9.3280  119.8290 C.ar  428  TRP428      0.0152
     66  NE1        1.9910    9.8300  117.6800 N.ar  428  TRP428     -0.2442
     67  CE2        1.0280    9.4070  118.5550 C.ar  428  TRP428      0.0810
     68  CE3        0.8460    8.9580  120.9070 C.ar  428  TRP428      0.0012
     69  CZ2       -0.3070    9.0660  118.3340 C.ar  428  TRP428      0.0191
     70  CZ3       -0.4800    8.6120  120.6890 C.ar  428  TRP428      0.0001
     71  CH2       -1.0450    8.6730  119.4290 C.ar  428  TRP428      0.0015
     72  N          5.9880    4.7960  117.4600 N.3   432  ARG432     -0.1245
     73  CA         5.4490    4.8100  116.1170 C.3   432  ARG432      0.1563
     74  C          6.5270    4.4450  115.0700 C.2   432  ARG432      0.2260
     75  O          6.2740    3.6820  114.0980 O.2   432  ARG432     -0.2867
     76  CB         4.8120    6.1640  115.7620 C.3   432  ARG432      0.0307
     77  CG         3.8300    6.0120  114.5860 C.3   432  ARG432      0.0489
     78  CD         3.1830    7.2860  114.1160 C.3   432  ARG432      0.2205
     79  NE         2.2760    6.9800  113.0150 N.pl3 432  ARG432     -0.0865
     80  CZ         2.6980    6.7650  111.7560 C.cat 432  ARG432      0.5346
     81  NH1        3.9990    6.9430  111.4120 N.pl3 432  ARG432      0.1354
     82  NH2        1.8120    6.4320  110.8150 N.pl3 432  ARG432      0.1354
     83  N          2.1950   -0.3550  111.9940 N.3   441  GLU441     -0.1245
     84  CA         1.7360    0.8970  112.5960 C.3   441  GLU441      0.1567
     85  C          0.2790    1.1850  112.2620 C.2   441  GLU441      0.2260
     86  O         -0.3670    2.0110  112.9530 O.2   441  GLU441     -0.2867
     87  CB         2.6640    2.0790  112.1990 C.3   441  GLU441      0.0388
     88  CG         2.4440    2.7200  110.8380 C.3   441  GLU441      0.1160
     89  CD         2.8910    1.9060  109.5940 C.2   441  GLU441      0.3649
     90  OE1        3.2620    0.7040  109.6680 O.co2 441  GLU441     -0.2457
     91  OE2        2.8850    2.5230  108.5290 O.co2 441  GLU441     -0.2457
@<TRIPOS>BOND
     1     1     2    1
     2     2     3    1
     3     3     5   am
     4     3     4    2
     5     5     6    1
     6     8     7    2
     7    12    14   ar
     8    12    10   ar
     9    14    15   ar
    10     6     7    1
    11     6     9    1
    12     7    16   am
    13     9    10    1
    14    10    11   ar
    15    16    17    1
    16    15    13   ar
    17    17    18    1
    18    17    20    1
    19    18    19    2
    20    91    89   ar
    21    11    13   ar
    22    38    37    2
    23    89    90   ar
    24    89    88    1
    25    37    36    1
    26    82    80    1
    27    88    87    1
    28    21    22    1
    29    36    39    1
    30    36    35    1
    31    81    80    1
    32    35    23   am
    33    80    79    2
    34    83    84    1
    35    87    84    1
    36    85    84    1
    37    85    86    2
    38    22    23    1
    39    22    25    1
    40    23    24    2
    41    29    27   ar
    42    29    30   ar
    43    27    26   ar
    44    30    32   ar
    45    30    28   ar
    46    79    78    1
    47    32    34   ar
    48    26    28   ar
    49    26    25    1
    50    28    31   ar
    51    34    33   ar
    52    31    33   ar
    53    75    74    2
    54    78    77    1
    55    77    76    1
    56    74    73    1
    57    76    73    1
    58    73    72    1
    59    66    64   ar
    60    66    67   ar
    61    69    67   ar
    62    69    71   ar
    63    64    63   ar
    64    67    65   ar
    65    61    60    2
    66    71    70   ar
    67    60    59    1
    68    63    65   ar
    69    63    62    1
    70    65    68   ar
    71    70    68   ar
    72    62    59    1
    73    59    58    1
    74    54    53    2
    75    53    52    1
    76    43    42    2
    77    56    55    1
    78    52    55    1
    79    52    51    1
    80    42    41    1
    81    55    57    1
    82    44    41    1
    83    44    45    1
    84    41    40    1
    85    45    46   ar
    86    45    47   ar
    87    46    48   ar
    88    47    49   ar
    89    48    50   ar
    90    49    50   ar
