@<TRIPOS>MOLECULE
tmp/5v2cU38.pdb
 201 193 0 0 0
SMALL
GASTEIGER

@<TRIPOS>ATOM
      1  N        -37.3610  -12.8130  160.8440 N.3    29  VAL29      -0.1245
      2  CA       -37.5860  -11.4600  161.3610 C.3    29  VAL29       0.1561
      3  C        -38.2050  -11.4830  162.7520 C.2    29  VAL29       0.2260
      4  O        -37.7700  -10.7620  163.6450 O.2    29  VAL29      -0.2867
      5  CB       -38.3970  -10.6000  160.3830 C.3    29  VAL29       0.0252
      6  CG1      -38.6570   -9.2110  160.9620 C.3    29  VAL29       0.0019
      7  CG2      -37.6430  -10.4380  159.0740 C.3    29  VAL29       0.0019
      8  N        -35.5780  -12.5950  165.1560 N.3    32  TRP32      -0.1241
      9  CA       -34.7320  -11.4830  165.4480 C.3    32  TRP32       0.1605
     10  C        -35.3750  -10.6020  166.5440 C.2    32  TRP32       0.2264
     11  O        -34.7150  -10.2600  167.5190 O.2    32  TRP32      -0.2867
     12  CB       -34.4140  -10.6400  164.1810 C.3    32  TRP32       0.0550
     13  CG       -33.6180   -9.4740  164.5550 C.ar   32  TRP32       0.0003
     14  CD1      -32.2320   -9.4380  164.7210 C.ar   32  TRP32       0.0946
     15  CD2      -34.1050   -8.1860  164.9720 C.ar   32  TRP32       0.0152
     16  NE1      -31.8680   -8.1690  165.1890 N.ar   32  TRP32      -0.2442
     17  CE2      -32.9740   -7.3920  165.3160 C.ar   32  TRP32       0.0810
     18  CE3      -35.3700   -7.5830  164.9920 C.ar   32  TRP32       0.0012
     19  CZ2      -33.0960   -6.0550  165.7340 C.ar   32  TRP32       0.0191
     20  CZ3      -35.4680   -6.2590  165.4410 C.ar   32  TRP32       0.0001
     21  CH2      -34.3690   -5.5420  165.8140 C.ar   32  TRP32       0.0015
     22  N        -32.8590   -0.5840  171.5280 N.3    60  PHE60      -0.1227
     23  CA       -33.3740   -0.3370  170.2190 C.3    60  PHE60       0.1736
     24  C        -34.8020   -0.8170  170.0890 C.2    60  PHE60       0.2592
     25  O        -35.6490   -0.0950  169.5450 O.2    60  PHE60      -0.2718
     26  CB       -32.4940   -1.0310  169.2000 C.3    60  PHE60       0.0547
     27  CG       -32.8560   -0.7380  167.7590 C.ar   60  PHE60      -0.0202
     28  CD1      -32.9770    0.5490  167.3040 C.ar   60  PHE60      -0.0042
     29  CD2      -33.0660   -1.7830  166.8560 C.ar   60  PHE60      -0.0042
     30  CE1      -33.2910    0.8090  165.9620 C.ar   60  PHE60      -0.0003
     31  CE2      -33.3840   -1.5490  165.5400 C.ar   60  PHE60      -0.0003
     32  CZ       -33.4820   -0.2370  165.0860 C.ar   60  PHE60      -0.0000
     33  N        -35.0840   -2.0310  170.5650 N.am   61  VAL61      -0.2033
     34  CA       -36.4630   -2.5320  170.5860 C.3    61  VAL61       0.1282
     35  C        -37.2990   -2.2130  171.7950 C.3    61  VAL61       0.2035
     36  O        -38.5960   -2.0990  171.6640 O.3    61  VAL61      -0.2185
     37  CB       -36.5770   -4.0470  170.2310 C.3    61  VAL61       0.0226
     38  CG1      -36.0680   -4.2560  168.8030 C.3    61  VAL61       0.0018
     39  CG2      -35.8810   -4.9810  171.2390 C.3    61  VAL61       0.0018
     40  N        -39.7820    0.5320  171.2170 N.3    64  PHE64      -0.1241
     41  CA       -40.9390    0.1900  170.3730 C.3    64  PHE64       0.1605
     42  C        -41.9800   -0.5980  171.1200 C.2    64  PHE64       0.2264
     43  O        -43.1840   -0.4280  170.8510 O.2    64  PHE64      -0.2867
     44  CB       -40.4710   -0.5710  169.1090 C.3    64  PHE64       0.0534
     45  CG       -39.7600    0.2930  168.1320 C.ar   64  PHE64      -0.0203
     46  CD1      -40.4600    1.0120  167.2430 C.ar   64  PHE64      -0.0042
     47  CD2      -38.3790    0.4330  168.1690 C.ar   64  PHE64      -0.0042
     48  CE1      -39.8330    1.8590  166.3820 C.ar   64  PHE64      -0.0003
     49  CE2      -37.7470    1.2650  167.3550 C.ar   64  PHE64      -0.0003
     50  CZ       -38.4560    2.0080  166.4170 C.ar   64  PHE64      -0.0000
     51  N        -43.6080    2.1960  173.2780 N.3    67  ARG67      -0.1245
     52  CA       -44.4440    3.1560  172.5110 C.3    67  ARG67       0.1563
     53  C        -45.8740    2.6790  172.3980 C.2    67  ARG67       0.2260
     54  O        -46.8230    3.4990  172.3880 O.2    67  ARG67      -0.2867
     55  CB       -43.8920    3.2870  171.1200 C.3    67  ARG67       0.0307
     56  CG       -44.6280    4.2220  170.1980 C.3    67  ARG67       0.0489
     57  CD       -43.7860    4.5540  168.9950 C.3    67  ARG67       0.2205
     58  NE       -43.8080    3.4890  168.0130 N.pl3  67  ARG67      -0.0865
     59  CZ       -43.3240    3.5730  166.7740 C.cat  67  ARG67       0.5346
     60  NH1      -42.7270    4.6910  166.3450 N.pl3  67  ARG67       0.1354
     61  NH2      -43.4210    2.5310  165.9240 N.pl3  67  ARG67       0.1354
     62  N        -42.9320  -13.7340  170.1820 N.3    99  HIS99      -0.1241
     63  CA       -42.2600  -13.5860  168.9120 C.3    99  HIS99       0.1621
     64  C        -41.4110  -14.8280  168.5980 C.2    99  HIS99       0.2264
     65  O        -41.3240  -15.2580  167.4520 O.2    99  HIS99      -0.2867
     66  CB       -41.4240  -12.2630  168.8680 C.3    99  HIS99       0.0745
     67  CG       -42.2210  -11.0280  168.5300 C.ar   99  HIS99       0.0817
     68  ND1      -42.8800  -10.2800  169.4740 N.ar   99  HIS99      -0.2268
     69  CD2      -42.4240  -10.3820  167.3390 C.ar   99  HIS99       0.1154
     70  CE1      -43.4760   -9.2420  168.8730 C.ar   99  HIS99       0.1986
     71  NE2      -43.2060   -9.2690  167.5780 N.ar   99  HIS99      -0.2212
     72  N        -57.7360   -6.5100  154.1880 N.3   144  LEU144     -0.1231
     73  CA       -57.2050   -6.9870  155.4760 C.3   144  LEU144      0.1693
     74  C        -56.3490   -5.8960  156.1290 C.2   144  LEU144      0.2591
     75  O        -56.4150   -5.6820  157.3170 O.2   144  LEU144     -0.2718
     76  CB       -56.3470   -8.2330  155.2770 C.3   144  LEU144      0.0284
     77  CG       -57.1750   -9.4140  154.7720 C.3   144  LEU144      0.0019
     78  CD1      -56.2840  -10.5270  154.2510 C.3   144  LEU144      0.0001
     79  CD2      -58.0720   -9.9810  155.8410 C.3   144  LEU144      0.0001
     80  N        -55.5130   -5.2420  155.3400 N.am  145  ALA145     -0.1980
     81  CA       -54.6570   -4.2030  155.8930 C.3   145  ALA145      0.1597
     82  C        -55.4950   -3.0400  156.4810 C.2   145  ALA145      0.2287
     83  O        -55.2080   -2.5370  157.5880 O.2   145  ALA145     -0.2864
     84  CB       -53.6250   -3.7170  154.8710 C.3   145  ALA145      0.0319
     85  N        -58.6900   -3.3530  157.6260 N.3   147  LEU147     -0.1231
     86  CA       -59.3480   -3.8270  158.8380 C.3   147  LEU147      0.1693
     87  C        -58.4000   -3.7180  160.0070 C.2   147  LEU147      0.2591
     88  O        -58.7620   -3.2100  161.0840 O.2   147  LEU147     -0.2718
     89  CB       -59.8170   -5.2670  158.7110 C.3   147  LEU147      0.0284
     90  CG       -60.9350   -5.5370  157.7150 C.3   147  LEU147      0.0019
     91  CD1      -61.0240   -7.0370  157.5720 C.3   147  LEU147      0.0001
     92  CD2      -62.2480   -4.9580  158.1790 C.3   147  LEU147      0.0001
     93  N        -57.1820   -4.1740  159.7910 N.am  148  LEU148     -0.1980
     94  CA       -56.1760   -4.1320  160.8850 C.3   148  LEU148      0.1596
     95  C        -55.7970   -2.7150  161.3030 C.2   148  LEU148      0.2287
     96  O        -55.7480   -2.4050  162.5010 O.2   148  LEU148     -0.2864
     97  CB       -54.9570   -4.9280  160.4920 C.3   148  LEU148      0.0297
     98  CG       -53.8930   -5.1150  161.5520 C.3   148  LEU148      0.0022
     99  CD1      -54.4960   -5.6960  162.8370 C.3   148  LEU148      0.0001
    100  CD2      -52.8910   -6.0780  160.9610 C.3   148  LEU148      0.0001
    101  N        -42.0410    0.9550  150.0110 N.3   244  VAL244     -0.1245
    102  CA       -41.2260    0.7070  151.1750 C.3   244  VAL244      0.1561
    103  C        -40.1150    1.7380  151.3130 C.2   244  VAL244      0.2260
    104  O        -39.8490    2.1720  152.4410 O.2   244  VAL244     -0.2867
    105  CB       -40.7060   -0.7640  151.1070 C.3   244  VAL244      0.0252
    106  CG1      -39.5470   -0.9920  152.0210 C.3   244  VAL244      0.0019
    107  CG2      -41.8800   -1.7350  151.3870 C.3   244  VAL244      0.0019
    108  N        -41.8020    4.8650  152.7240 N.3   247  ALA247     -0.1231
    109  CA       -42.0100    4.6630  154.1130 C.3   247  ALA247      0.1694
    110  C        -40.7280    4.7660  154.9410 C.2   247  ALA247      0.2591
    111  O        -40.7380    5.3610  156.0620 O.2   247  ALA247     -0.2718
    112  CB       -42.6950    3.3070  154.3320 C.3   247  ALA247      0.0304
    113  N        -39.6430    4.2200  154.3960 N.am  248  ALA248     -0.1980
    114  CA       -38.3850    4.2280  155.1270 C.3   248  ALA248      0.1597
    115  C        -37.8550    5.6360  155.2970 C.2   248  ALA248      0.2287
    116  O        -37.3460    6.0010  156.3910 O.2   248  ALA248     -0.2864
    117  CB       -37.3370    3.3390  154.4940 C.3   248  ALA248      0.0319
    118  N        -40.0190    7.3860  158.0580 N.3   251  VAL251     -0.1245
    119  CA       -39.6830    7.0880  159.4170 C.3   251  VAL251      0.1561
    120  C        -38.2630    7.6070  159.7720 C.2   251  VAL251      0.2260
    121  O        -38.0010    7.9510  160.9230 O.2   251  VAL251     -0.2867
    122  CB       -39.8480    5.5880  159.7620 C.3   251  VAL251      0.0252
    123  CG1      -41.2950    5.1800  159.6090 C.3   251  VAL251      0.0019
    124  CG2      -38.8910    4.6790  158.9670 C.3   251  VAL251      0.0019
    125  N        -39.1370   11.4530  160.6120 N.3   254  THR254     -0.1203
    126  CA       -39.8550   11.6170  161.8910 C.3   254  THR254      0.1994
    127  C        -38.9900   11.2790  163.1000 C.2   254  THR254      0.2617
    128  O        -39.1270   11.8570  164.1730 O.2   254  THR254     -0.2717
    129  CB       -41.2460   10.9230  161.9250 C.3   254  THR254      0.1784
    130  OG1      -41.1140    9.4920  161.7920 O.3   254  THR254     -0.2211
    131  CG2      -42.2020   11.5240  160.7910 C.3   254  THR254      0.0376
    132  N        -38.0910   10.3420  162.9140 N.am  255  MET255     -0.1979
    133  CA       -37.1650    9.9820  163.9570 C.3   255  MET255      0.1605
    134  C        -36.1750   11.1560  164.1820 C.2   255  MET255      0.2287
    135  O        -35.8770   11.4650  165.3250 O.2   255  MET255     -0.2864
    136  CB       -36.4080    8.6330  163.6800 C.3   255  MET255      0.0413
    137  CG       -35.5150    8.2150  164.8880 C.3   255  MET255      0.0598
    138  SD       -36.4410    7.8080  166.3470 S.3   255  MET255     -0.1393
    139  CE       -37.3390    6.3350  165.8940 C.3   255  MET255      0.0692
    140  N        -44.7630    9.9860  167.5730 N.3   261  THR261     -0.1203
    141  CA       -44.4030    8.5940  167.5720 C.3   261  THR261      0.1994
    142  C        -42.9210    8.3470  167.7820 C.2   261  THR261      0.2618
    143  O        -42.5310    7.1910  167.8170 O.2   261  THR261     -0.2717
    144  CB       -44.8480    7.8900  166.2440 C.3   261  THR261      0.1784
    145  OG1      -43.9990    8.2890  165.1710 O.3   261  THR261     -0.2211
    146  CG2      -46.3670    8.1130  165.9590 C.3   261  THR261      0.0376
    147  N        -42.1250    9.3940  168.0040 N.am  262  THR262     -0.1952
    148  CA       -40.7400    9.2160  168.3570 C.3   262  THR262      0.1897
    149  C        -40.4180   10.0350  169.6280 C.2   262  THR262      0.2313
    150  O        -39.5730   10.9280  169.6140 O.2   262  THR262     -0.2863
    151  CB       -39.8050    9.5550  167.1840 C.3   262  THR262      0.1794
    152  OG1      -39.8900   10.9390  166.8010 O.3   262  THR262     -0.2208
    153  CG2      -40.1550    8.7150  165.9790 C.3   262  THR262      0.0378
    154  N        -31.2740    4.6310  164.5470 N.3   450  PHE450     -0.1241
    155  CA       -32.4510    4.3000  163.7680 C.3   450  PHE450      0.1605
    156  C        -32.4570    5.1270  162.4930 C.2   450  PHE450      0.2264
    157  O        -32.7140    4.6200  161.3850 O.2   450  PHE450     -0.2867
    158  CB       -33.7600    4.5620  164.5280 C.3   450  PHE450      0.0534
    159  CG       -34.9840    4.2410  163.6970 C.ar  450  PHE450     -0.0203
    160  CD1      -35.4570    5.1560  162.7370 C.ar  450  PHE450     -0.0042
    161  CD2      -35.6290    2.9820  163.7910 C.ar  450  PHE450     -0.0042
    162  CE1      -36.5450    4.8330  161.9430 C.ar  450  PHE450     -0.0003
    163  CE2      -36.7600    2.6800  163.0310 C.ar  450  PHE450     -0.0003
    164  CZ       -37.1920    3.5760  162.0700 C.ar  450  PHE450     -0.0000
    165  N        -32.1560    3.6020  158.5180 N.3   454  HIS454     -0.1241
    166  CA       -33.3450    3.6880  157.6800 C.3   454  HIS454      0.1621
    167  C        -33.1500    4.6420  156.4870 C.2   454  HIS454      0.2264
    168  O        -33.6420    4.3550  155.4230 O.2   454  HIS454     -0.2867
    169  CB       -34.6130    3.9460  158.5220 C.3   454  HIS454      0.0745
    170  CG       -35.0200    2.7520  159.3170 C.ar  454  HIS454      0.0817
    171  ND1      -34.4210    2.3860  160.5040 N.ar  454  HIS454     -0.2268
    172  CD2      -35.8930    1.7560  158.9970 C.ar  454  HIS454      0.1154
    173  CE1      -34.9370    1.2130  160.8820 C.ar  454  HIS454      0.1986
    174  NE2      -35.8110    0.7820  159.9610 N.ar  454  HIS454     -0.2212
    175  N        -30.9540    2.3600  154.1760 N.3   457  PHE457     -0.1227
    176  CA       -31.7180    1.2970  153.5680 C.3   457  PHE457      0.1736
    177  C        -32.7190    1.8820  152.5370 C.2   457  PHE457      0.2595
    178  O        -32.9020    1.3340  151.4470 O.2   457  PHE457     -0.2718
    179  CB       -32.4310    0.4690  154.6240 C.3   457  PHE457      0.0547
    180  CG       -31.5330   -0.4370  155.4630 C.ar  457  PHE457     -0.0202
    181  CD1      -30.3450   -0.9310  155.0100 C.ar  457  PHE457     -0.0042
    182  CD2      -31.9380   -0.8070  156.7250 C.ar  457  PHE457     -0.0042
    183  CE1      -29.5580   -1.7790  155.8180 C.ar  457  PHE457     -0.0003
    184  CE2      -31.1760   -1.6420  157.5300 C.ar  457  PHE457     -0.0003
    185  CZ       -29.9760   -2.1290  157.0710 C.ar  457  PHE457     -0.0000
    186  N        -33.2790    3.0370  152.8440 N.am  458  ALA458     -0.1980
    187  CA       -34.2090    3.6400  151.9250 C.3   458  ALA458      0.1597
    188  C        -33.5270    3.9800  150.6080 C.2   458  ALA458      0.2287
    189  O        -34.0590    3.7280  149.5400 O.2   458  ALA458     -0.2864
    190  CB       -34.8000    4.9080  152.5630 C.3   458  ALA458      0.0319
    191  N        -32.8200    0.8890  148.6680 N.3   461  PHE461     -0.1241
    192  CA       -34.1040    0.4090  148.1350 C.3   461  PHE461      0.1605
    193  C        -34.5420    1.1320  146.8930 C.2   461  PHE461      0.2264
    194  O        -35.2680    0.5490  146.0530 O.2   461  PHE461     -0.2867
    195  CB       -35.1640    0.3040  149.2120 C.3   461  PHE461      0.0534
    196  CG       -35.1910   -1.0500  149.8680 C.ar  461  PHE461     -0.0203
    197  CD1      -34.1050   -1.5120  150.5540 C.ar  461  PHE461     -0.0042
    198  CD2      -36.3140   -1.8420  149.8250 C.ar  461  PHE461     -0.0042
    199  CE1      -34.1030   -2.7600  151.1560 C.ar  461  PHE461     -0.0003
    200  CE2      -36.2950   -3.1210  150.4380 C.ar  461  PHE461     -0.0003
    201  CZ       -35.1910   -3.5910  151.0700 C.ar  461  PHE461     -0.0000
@<TRIPOS>BOND
     1   194   193    2
     2   193   192    1
     3   192   191    1
     4   192   195    1
     5   195   196    1
     6   189   188    2
     7   198   196   ar
     8   198   200   ar
     9   196   197   ar
    10   101   102    1
    11   200   201   ar
    12   197   199   ar
    13   188   187    1
    14   201   199   ar
    15   105   102    1
    16   105   107    1
    17   105   106    1
    18   102   103    1
    19   103   104    2
    20   178   177    2
    21   187   190    1
    22   187   186    1
    23   177   186   am
    24   177   176    1
    25   108   109    1
    26   176   175    1
    27   176   179    1
    28   109   112    1
    29   109   110    1
    30    72    73    1
    31    78    77    1
    32   113   110   am
    33   113   114    1
    34   117   114    1
    35   179   180    1
    36    77    76    1
    37    77    79    1
    38    84    81    1
    39   110   111    2
    40   181   180   ar
    41   181   183   ar
    42   114   115    1
    43    76    73    1
    44   115   116    2
    45    80    81    1
    46    80    74   am
    47   168   167    2
    48   180   182   ar
    49    73    74    1
    50   183   185   ar
    51    81    82    1
    52    74    75    2
    53    82    83    2
    54   167   166    1
    55   182   184   ar
    56   185   184   ar
    57    91    90    1
    58    85    86    1
    59   166   165    1
    60   166   169    1
    61    90    92    1
    62    90    89    1
    63   118   119    1
    64   169   170    1
    65    89    86    1
    66    86    87    1
    67   124   122    1
    68   172   170   ar
    69   172   174   ar
    70     7     5    1
    71   170   171   ar
    72   119   122    1
    73   119   120    1
    74   123   122    1
    75   120   121    2
    76    93    87   am
    77    93    94    1
    78   174   173   ar
    79    87    88    2
    80     5     6    1
    81     5     2    1
    82    97    94    1
    83    97    98    1
    84   171   173   ar
    85   125   126    1
    86   131   129    1
    87     1     2    1
    88    94    95    1
    89   100    98    1
    90    95    96    2
    91     2     3    1
    92   157   156    2
    93    98    99    1
    94   130   129    1
    95   126   129    1
    96   126   127    1
    97   162   164   ar
    98   162   160   ar
    99   164   163   ar
   100   156   155    1
   101   160   159   ar
   102     3     4    2
   103   132   127   am
   104   132   133    1
   105   163   161   ar
   106   127   128    2
   107   136   133    1
   108   136   137    1
   109   159   161   ar
   110   159   158    1
   111   155   158    1
   112   155   154    1
   113   133   134    1
   114    12    13    1
   115    12     9    1
   116   134   135    2
   117    13    14   ar
   118    13    15   ar
   119    14    16   ar
   120   137   138    1
   121    15    18   ar
   122    15    17   ar
   123    18    20   ar
   124    32    31   ar
   125    32    30   ar
   126     8     9    1
   127   145   144    1
   128    16    17   ar
   129    17    19   ar
   130    20    21   ar
   131     9    10    1
   132    31    29   ar
   133    19    21   ar
   134   139   138    1
   135    61    59    1
   136   146   144    1
   137    30    28   ar
   138   153   151    1
   139   144   141    1
   140    60    59    1
   141    48    50   ar
   142    48    46   ar
   143    50    49   ar
   144    10    11    2
   145    59    58    2
   146   152   151    1
   147    29    27   ar
   148   151   148    1
   149    46    45   ar
   150    28    27   ar
   151    69    71   ar
   152    69    67   ar
   153    49    47   ar
   154    65    64    2
   155   141   140    1
   156   141   142    1
   157    71    70   ar
   158    27    26    1
   159   142   143    2
   160   142   147   am
   161   147   148    1
   162    58    57    1
   163    45    47   ar
   164    45    44    1
   165   148   149    1
   166    67    66    1
   167    67    68   ar
   168    64    63    1
   169    38    37    1
   170    66    63    1
   171    70    68   ar
   172    63    62    1
   173    57    56    1
   174    44    41    1
   175    26    23    1
   176    25    24    2
   177   150   149    2
   178    24    23    1
   179    24    33   am
   180    56    55    1
   181    23    22    1
   182    37    34    1
   183    37    39    1
   184    41    42    1
   185    41    40    1
   186    33    34    1
   187    34    35    1
   188    43    42    2
   189    55    52    1
   190    36    35    1
   191    54    53    2
   192    53    52    1
   193    52    51    1
