@<TRIPOS>MOLECULE
tmp/5v2cU05.pdb
 194 194 0 0 0
SMALL
GASTEIGER

@<TRIPOS>ATOM
      1  N        -24.7960  -16.8930  140.9450 N.3     4  TRP4       -0.1227
      2  CA       -25.0550  -16.8080  142.3820 C.3     4  TRP4        0.1737
      3  C        -26.1060  -15.7640  142.7220 C.2     4  TRP4        0.2595
      4  O        -26.9440  -15.9750  143.5880 O.2     4  TRP4       -0.2718
      5  CB       -23.7660  -16.5390  143.1230 C.3     4  TRP4        0.0564
      6  CG       -23.1760  -15.1880  143.0100 C.ar    4  TRP4        0.0003
      7  CD1      -22.2050  -14.8110  142.1750 C.ar    4  TRP4        0.0946
      8  CD2      -23.5410  -14.0200  143.7620 C.ar    4  TRP4        0.0152
      9  NE1      -21.9030  -13.4720  142.3410 N.ar    4  TRP4       -0.2442
     10  CE2      -22.7420  -12.9520  143.2850 C.ar    4  TRP4        0.0810
     11  CE3      -24.4740  -13.7620  144.7840 C.ar    4  TRP4        0.0012
     12  CZ2      -22.8410  -11.6480  143.8050 C.ar    4  TRP4        0.0191
     13  CZ3      -24.5790  -12.4710  145.2860 C.ar    4  TRP4        0.0001
     14  CH2      -23.7600  -11.4360  144.8020 C.ar    4  TRP4        0.0015
     15  N        -26.1060  -14.6760  141.9610 N.am    5  TYR5       -0.1962
     16  CA       -27.0230  -13.5410  142.2400 C.3     5  TYR5        0.1771
     17  C        -28.4550  -13.7420  141.7310 C.2     5  TYR5        0.2619
     18  O        -29.2840  -12.8800  141.9170 O.2     5  TYR5       -0.2715
     19  CB       -26.4110  -12.1770  141.8000 C.3     5  TYR5        0.0574
     20  CG       -26.0110  -12.1810  140.3770 C.ar    5  TYR5       -0.0198
     21  CD1      -26.9040  -11.8920  139.3680 C.ar    5  TYR5       -0.0009
     22  CD2      -24.6860  -12.5200  140.0130 C.ar    5  TYR5       -0.0009
     23  CE1      -26.5090  -11.9840  138.0330 C.ar    5  TYR5        0.0417
     24  CE2      -24.3310  -12.6230  138.6740 C.ar    5  TYR5        0.0417
     25  CZ       -25.2540  -12.3820  137.6840 C.ar    5  TYR5        0.1957
     26  OH       -24.8800  -12.4920  136.3310 O.3     5  TYR5       -0.2866
     27  N        -28.7170  -14.8710  141.0660 N.am    6  ARG6       -0.1963
     28  CA       -30.0540  -15.2200  140.5940 C.3     6  ARG6        0.1729
     29  C        -30.6580  -16.4650  141.1830 C.2     6  ARG6        0.2616
     30  O        -31.7120  -16.9000  140.7010 O.2     6  ARG6       -0.2715
     31  CB       -30.0490  -15.3690  139.0740 C.3     6  ARG6        0.0348
     32  CG       -29.6080  -14.1340  138.3320 C.3     6  ARG6        0.0492
     33  CD       -29.8460  -14.3650  136.8470 C.3     6  ARG6        0.2205
     34  NE       -29.2480  -13.2950  136.1390 N.pl3   6  ARG6       -0.0865
     35  CZ       -28.8480  -13.3670  134.8740 C.cat   6  ARG6        0.5346
     36  NH1      -29.0340  -14.4860  134.1550 N.pl3   6  ARG6        0.1354
     37  NH2      -28.2710  -12.3080  134.3210 N.pl3   6  ARG6        0.1354
     38  N        -30.0440  -17.0140  142.2360 N.am    7  VAL7       -0.1963
     39  CA       -30.4920  -18.3010  142.7840 C.3     7  VAL7        0.1727
     40  C        -31.9660  -18.2510  143.1810 C.2     7  VAL7        0.2616
     41  O        -32.6780  -19.2070  142.9220 O.2     7  VAL7       -0.2715
     42  CB       -29.6320  -18.8370  143.9540 C.3     7  VAL7        0.0290
     43  CG1      -28.2460  -19.2940  143.4510 C.3     7  VAL7        0.0023
     44  CG2      -29.5040  -17.8310  145.1050 C.3     7  VAL7        0.0023
     45  N        -32.4580  -17.1260  143.7090 N.am    8  HIS8       -0.1959
     46  CA       -33.8260  -17.0930  144.1950 C.3     8  HIS8        0.1787
     47  C        -34.8620  -16.9440  143.1080 C.2     8  HIS8        0.2620
     48  O        -36.0990  -17.0570  143.3560 O.2     8  HIS8       -0.2715
     49  CB       -33.9270  -16.0570  145.2930 C.3     8  HIS8        0.0785
     50  CG       -33.0900  -16.3950  146.5250 C.ar    8  HIS8        0.0821
     51  ND1      -32.6860  -15.4390  147.4270 N.ar    8  HIS8       -0.2267
     52  CD2      -32.5900  -17.5830  147.0040 C.ar    8  HIS8        0.1154
     53  CE1      -31.9820  -16.0110  148.4080 C.ar    8  HIS8        0.1986
     54  NE2      -31.9470  -17.3240  148.2100 N.ar    8  HIS8       -0.2212
     55  N        -34.4090  -16.7320  141.8800 N.am    9  THR9       -0.1951
     56  CA       -35.3370  -16.6330  140.7470 C.3     9  THR9        0.1897
     57  C        -36.1190  -17.9500  140.4750 C.2     9  THR9        0.2313
     58  O        -37.1410  -17.9330  139.7760 O.2     9  THR9       -0.2863
     59  CB       -34.6770  -16.1790  139.4400 C.3     9  THR9        0.1794
     60  OG1      -33.7180  -17.1320  139.0080 O.3     9  THR9       -0.2208
     61  CG2      -33.9990  -14.8330  139.5640 C.3     9  THR9        0.0378
     62  N        -39.9890  -17.7050  141.0190 N.3    12  ILE12      -0.1245
     63  CA       -40.8590  -16.7630  140.2680 C.3    12  ILE12       0.1561
     64  C        -42.1570  -17.3980  139.7980 C.2    12  ILE12       0.2260
     65  O        -43.2110  -16.7600  139.8520 O.2    12  ILE12      -0.2867
     66  CB       -40.1180  -16.1550  139.0640 C.3    12  ILE12       0.0252
     67  CG1      -39.0710  -15.1930  139.6200 C.3    12  ILE12       0.0019
     68  CG2      -41.0680  -15.3280  138.2100 C.3    12  ILE12       0.0019
     69  CD1      -37.9910  -14.8210  138.6840 C.3    12  ILE12       0.0001
     70  N        -41.1620  -16.7210  151.8320 N.3    22  HIS22      -0.1241
     71  CA       -41.7280  -15.6270  152.5730 C.3    22  HIS22       0.1621
     72  C        -41.9730  -15.9890  154.0580 C.2    22  HIS22       0.2264
     73  O        -41.7030  -15.1780  154.9330 O.2    22  HIS22      -0.2867
     74  CB       -42.9680  -15.0000  151.8740 C.3    22  HIS22       0.0745
     75  CG       -42.5930  -14.2120  150.6440 C.ar   22  HIS22       0.0817
     76  ND1      -43.5110  -13.7640  149.7410 N.ar   22  HIS22      -0.2268
     77  CD2      -41.3780  -13.7900  150.1740 C.ar   22  HIS22       0.1154
     78  CE1      -42.8910  -13.0880  148.7680 C.ar   22  HIS22       0.1986
     79  NE2      -41.5920  -13.0600  149.0090 N.ar   22  HIS22      -0.2212
     80  N        -38.5870  -15.9800  155.7840 N.3    25  HIS25      -0.1241
     81  CA       -38.1580  -14.6060  156.0430 C.3    25  HIS25       0.1621
     82  C        -38.9150  -14.0770  157.2630 C.2    25  HIS25       0.2264
     83  O        -38.2990  -13.4680  158.1430 O.2    25  HIS25      -0.2867
     84  CB       -38.3180  -13.6750  154.7980 C.3    25  HIS25       0.0745
     85  CG       -37.7810  -12.2730  154.9990 C.ar   25  HIS25       0.0817
     86  ND1      -38.5930  -11.2210  155.4000 N.ar   25  HIS25      -0.2268
     87  CD2      -36.5140  -11.7640  154.8930 C.ar   25  HIS25       0.1154
     88  CE1      -37.8480  -10.1120  155.5040 C.ar   25  HIS25       0.1986
     89  NE2      -36.5650  -10.4070  155.2320 N.ar   25  HIS25      -0.2212
     90  N        -43.0500   -9.6170  139.1580 N.3   234  GLU234     -0.1245
     91  CA       -41.9450   -8.7310  139.4440 C.3   234  GLU234      0.1567
     92  C        -42.4400   -7.2740  139.3720 C.2   234  GLU234      0.2260
     93  O        -41.7700   -6.3870  139.8940 O.2   234  GLU234     -0.2867
     94  CB       -40.8180   -8.9350  138.4790 C.3   234  GLU234      0.0388
     95  CG       -39.5010   -8.3040  138.9410 C.3   234  GLU234      0.1160
     96  CD       -38.2880   -8.8960  138.2690 C.2   234  GLU234      0.3649
     97  OE1      -37.1610   -8.4710  138.6530 O.co2 234  GLU234     -0.2457
     98  OE2      -38.4570   -9.6900  137.3170 O.co2 234  GLU234     -0.2457
     99  N        -43.1570   -6.5230  142.8420 N.3   237  LEU237     -0.1245
    100  CA       -41.9440   -6.3050  143.5770 C.3   237  LEU237      0.1561
    101  C        -41.4080   -4.8740  143.3840 C.2   237  LEU237      0.2260
    102  O        -40.9680   -4.2450  144.3200 O.2   237  LEU237     -0.2867
    103  CB       -40.8930   -7.3450  143.2230 C.3   237  LEU237      0.0270
    104  CG       -39.5710   -7.2540  143.9880 C.3   237  LEU237      0.0019
    105  CD1      -39.6950   -7.2480  145.5100 C.3   237  LEU237      0.0001
    106  CD2      -38.6250   -8.3990  143.5160 C.3   237  LEU237      0.0001
    107  N        -41.3610   -2.2230  146.4610 N.3   241  ILE241     -0.1245
    108  CA       -40.0830   -1.6840  146.8810 C.3   241  ILE241      0.1561
    109  C        -40.1250   -0.1170  146.9270 C.2   241  ILE241      0.2260
    110  O        -39.6090    0.4870  147.8710 O.2   241  ILE241     -0.2867
    111  CB       -38.9150   -2.1660  146.0220 C.3   241  ILE241      0.0252
    112  CG1      -38.5460   -3.6570  146.3260 C.3   241  ILE241      0.0019
    113  CG2      -37.6440   -1.3340  146.2980 C.3   241  ILE241      0.0019
    114  CD1      -37.5290   -4.2200  145.3150 C.3   241  ILE241      0.0001
    115  N        -30.9540    2.3600  154.1760 N.3   457  PHE457     -0.1241
    116  CA       -31.7180    1.2970  153.5680 C.3   457  PHE457      0.1605
    117  C        -32.7190    1.8820  152.5370 C.2   457  PHE457      0.2264
    118  O        -32.9020    1.3340  151.4470 O.2   457  PHE457     -0.2867
    119  CB       -32.4310    0.4690  154.6240 C.3   457  PHE457      0.0534
    120  CG       -31.5330   -0.4370  155.4630 C.ar  457  PHE457     -0.0203
    121  CD1      -30.3450   -0.9310  155.0100 C.ar  457  PHE457     -0.0042
    122  CD2      -31.9380   -0.8070  156.7250 C.ar  457  PHE457     -0.0042
    123  CE1      -29.5580   -1.7790  155.8180 C.ar  457  PHE457     -0.0003
    124  CE2      -31.1760   -1.6420  157.5300 C.ar  457  PHE457     -0.0003
    125  CZ       -29.9760   -2.1290  157.0710 C.ar  457  PHE457     -0.0000
    126  N        -30.7220    2.5880  149.3140 N.3   460  LEU460     -0.1231
    127  CA       -30.4520    1.3330  148.6420 C.3   460  LEU460      0.1693
    128  C        -31.6930    0.7430  148.0060 C.2   460  LEU460      0.2592
    129  O        -31.6280    0.1870  146.9120 O.2   460  LEU460     -0.2718
    130  CB       -29.8750    0.3230  149.6170 C.3   460  LEU460      0.0284
    131  CG       -28.4920    0.7110  150.1150 C.3   460  LEU460      0.0019
    132  CD1      -28.0600   -0.2380  151.2060 C.3   460  LEU460      0.0001
    133  CD2      -27.4880    0.7290  148.9690 C.3   460  LEU460      0.0001
    134  N        -32.8200    0.8890  148.6680 N.am  461  PHE461     -0.1976
    135  CA       -34.1040    0.4090  148.1350 C.3   461  PHE461      0.1639
    136  C        -34.5420    1.1320  146.8930 C.2   461  PHE461      0.2290
    137  O        -35.2680    0.5490  146.0530 O.2   461  PHE461     -0.2864
    138  CB       -35.1640    0.3040  149.2120 C.3   461  PHE461      0.0560
    139  CG       -35.1910   -1.0500  149.8680 C.ar  461  PHE461     -0.0200
    140  CD1      -34.1050   -1.5120  150.5540 C.ar  461  PHE461     -0.0042
    141  CD2      -36.3140   -1.8420  149.8250 C.ar  461  PHE461     -0.0042
    142  CE1      -34.1030   -2.7600  151.1560 C.ar  461  PHE461     -0.0003
    143  CE2      -36.2950   -3.1210  150.4380 C.ar  461  PHE461     -0.0003
    144  CZ       -35.1910   -3.5910  151.0700 C.ar  461  PHE461     -0.0000
    145  N        -32.4320    1.8840  144.4990 N.3   463  PHE463     -0.1227
    146  CA       -31.8040    1.0540  143.4560 C.3   463  PHE463      0.1736
    147  C        -32.6200   -0.2000  143.1840 C.2   463  PHE463      0.2596
    148  O        -32.8440   -0.5530  142.0190 O.2   463  PHE463     -0.2718
    149  CB       -30.3450    0.6790  143.7920 C.3   463  PHE463      0.0547
    150  CG       -29.6860   -0.0380  142.6900 C.ar  463  PHE463     -0.0202
    151  CD1      -28.9820    0.6600  141.7410 C.ar  463  PHE463     -0.0042
    152  CD2      -29.8620   -1.3860  142.5110 C.ar  463  PHE463     -0.0042
    153  CE1      -28.4490    0.0350  140.6610 C.ar  463  PHE463     -0.0003
    154  CE2      -29.2780   -2.0330  141.4410 C.ar  463  PHE463     -0.0003
    155  CZ       -28.5710   -1.3430  140.5240 C.ar  463  PHE463     -0.0000
    156  N        -32.9940   -0.9220  144.2350 N.am  464  GLY464     -0.1957
    157  CA       -33.8710   -2.0600  144.0780 C.3   464  GLY464      0.1869
    158  C        -35.0940   -1.7690  143.2080 C.2   464  GLY464      0.2309
    159  O        -35.4600   -2.5820  142.3330 O.2   464  GLY464     -0.2863
    160  N        -34.0920   -1.2320  139.5730 N.3   467  TRP467     -0.1227
    161  CA       -33.6440   -2.4820  139.0250 C.3   467  TRP467      0.1737
    162  C        -34.8180   -3.3990  138.6420 C.2   467  TRP467      0.2595
    163  O        -34.9270   -3.8850  137.5050 O.2   467  TRP467     -0.2718
    164  CB       -32.7270   -3.2410  140.0180 C.3   467  TRP467      0.0564
    165  CG       -32.3830   -4.6150  139.4850 C.ar  467  TRP467      0.0003
    166  CD1      -32.8900   -5.8010  139.9270 C.ar  467  TRP467      0.0946
    167  CD2      -31.5080   -4.9330  138.3960 C.ar  467  TRP467      0.0152
    168  NE1      -32.3910   -6.8070  139.1980 N.ar  467  TRP467     -0.2442
    169  CE2      -31.5250   -6.3220  138.2620 C.ar  467  TRP467      0.0810
    170  CE3      -30.6860   -4.1750  137.5380 C.ar  467  TRP467      0.0012
    171  CZ2      -30.7740   -6.9950  137.3020 C.ar  467  TRP467      0.0191
    172  CZ3      -29.9430   -4.8480  136.5780 C.ar  467  TRP467      0.0001
    173  CH2      -30.0200   -6.2590  136.4610 C.ar  467  TRP467      0.0015
    174  N        -35.6980   -3.6180  139.5900 N.am  468  HIS468     -0.1975
    175  CA       -36.8560   -4.5400  139.3760 C.3   468  HIS468      0.1656
    176  C        -37.9190   -3.9210  138.4530 C.2   468  HIS468      0.2291
    177  O        -38.5350   -4.6130  137.6880 O.2   468  HIS468     -0.2864
    178  CB       -37.3930   -5.0610  140.7270 C.3   468  HIS468      0.0771
    179  CG       -36.4460   -5.9790  141.4360 C.ar  468  HIS468      0.0820
    180  ND1      -36.1850   -7.2590  140.9840 N.ar  468  HIS468     -0.2267
    181  CD2      -35.7320   -5.8280  142.5930 C.ar  468  HIS468      0.1154
    182  CE1      -35.3270   -7.8500  141.8220 C.ar  468  HIS468      0.1986
    183  NE2      -35.0160   -7.0070  142.8060 N.ar  468  HIS468     -0.2212
    184  N        -36.4030   -4.5930  135.0760 N.3   471  ARG471     -0.1245
    185  CA       -36.5840   -5.9850  134.7470 C.3   471  ARG471      0.1563
    186  C        -38.0140   -6.3010  134.3270 C.2   471  ARG471      0.2260
    187  O        -38.2490   -7.1610  133.4600 O.2   471  ARG471     -0.2867
    188  CB       -36.2550   -6.8990  135.9330 C.3   471  ARG471      0.0307
    189  CG       -34.7780   -6.9990  136.2720 C.3   471  ARG471      0.0489
    190  CD       -34.1540   -8.4010  136.2550 C.3   471  ARG471      0.2205
    191  NE       -35.1640   -9.3570  136.5590 N.pl3 471  ARG471     -0.0865
    192  CZ       -35.2910  -10.5500  135.9580 C.cat 471  ARG471      0.5346
    193  NH1      -36.3690  -11.3110  136.2580 N.pl3 471  ARG471      0.1354
    194  NH2      -34.3080  -10.9930  135.0940 N.pl3 471  ARG471      0.1354
@<TRIPOS>BOND
     1   187   186    2
     2    36    35    1
     3    37    35    1
     4   186   185    1
     5   185   184    1
     6   185   188    1
     7    35    34    2
     8   194   192    1
     9   188   189    1
    10   192   193    1
    11   192   191    2
    12    34    33    1
    13   190   189    1
    14   190   191    1
    15    26    25    1
    16   173   172   ar
    17   173   171   ar
    18   172   170   ar
    19    33    32    1
    20   171   169   ar
    21    98    96   ar
    22   163   162    2
    23   170   167   ar
    24    25    23   ar
    25    25    24   ar
    26   177   176    2
    27    23    21   ar
    28    68    66    1
    29   169   167   ar
    30   169   168   ar
    31    96    97   ar
    32    96    95    1
    33    32    31    1
    34   167   165   ar
    35   176   175    1
    36    94    95    1
    37    94    91    1
    38   162   161    1
    39   162   174   am
    40    24    22   ar
    41    69    67    1
    42    60    59    1
    43   161   160    1
    44   161   164    1
    45    66    67    1
    46    66    63    1
    47    31    28    1
    48    90    91    1
    49   168   166   ar
    50    21    20   ar
    51    92    91    1
    52    92    93    2
    53   175   174    1
    54   175   178    1
    55    59    61    1
    56    59    56    1
    57   165   166   ar
    58   165   164    1
    59    58    57    2
    60    64    65    2
    61    64    63    1
    62    22    20   ar
    63    63    62    1
    64    20    19    1
    65    57    56    1
    66   155   153   ar
    67   155   154   ar
    68    28    27    1
    69    28    29    1
    70   153   151   ar
    71    30    29    2
    72   178   179    1
    73    56    55    1
    74     1     2    1
    75   180   179   ar
    76   180   182   ar
    77    27    17   am
    78    29    38   am
    79   179   181   ar
    80   154   152   ar
    81    17    18    2
    82    17    16    1
    83   151   150   ar
    84    19    16    1
    85   182   183   ar
    86    55    47   am
    87    15    16    1
    88    15     3   am
    89   148   147    2
    90     7     9   ar
    91     7     6   ar
    92    38    39    1
    93   159   158    2
    94     9    10   ar
    95     2     3    1
    96     2     5    1
    97   152   150   ar
    98   181   183   ar
    99   150   149    1
   100     3     4    2
   101    39    40    1
   102    39    42    1
   103    99   100    1
   104    41    40    2
   105     6     5    1
   106     6     8   ar
   107    47    48    2
   108    47    46    1
   109    40    45   am
   110   147   146    1
   111   147   156   am
   112   158   157    1
   113   103   100    1
   114   103   104    1
   115    10     8   ar
   116    10    12   ar
   117   101   100    1
   118   101   102    2
   119    43    42    1
   120   146   149    1
   121   146   145    1
   122   106   104    1
   123    45    46    1
   124     8    11   ar
   125    12    14   ar
   126    42    44    1
   127   104   105    1
   128   157   156    1
   129    46    49    1
   130    11    13   ar
   131    14    13   ar
   132    49    50    1
   133   114   112    1
   134   111   113    1
   135   111   112    1
   136   111   108    1
   137   137   136    2
   138   107   108    1
   139    50    52   ar
   140    50    51   ar
   141   108   109    1
   142   136   135    1
   143   129   128    2
   144   109   110    2
   145    52    54   ar
   146    51    53   ar
   147   128   127    1
   148   128   134   am
   149   135   134    1
   150   135   138    1
   151    54    53   ar
   152   127   126    1
   153   127   130    1
   154    78    79   ar
   155    78    76   ar
   156   133   131    1
   157    79    77   ar
   158   138   139    1
   159   130   131    1
   160    76    75   ar
   161   141   139   ar
   162   141   143   ar
   163   139   140   ar
   164   131   132    1
   165    77    75   ar
   166   143   144   ar
   167   140   142   ar
   168    75    74    1
   169   144   142   ar
   170   118   117    2
   171    70    71    1
   172    74    71    1
   173   117   116    1
   174    71    72    1
   175   116   115    1
   176   116   119    1
   177    72    73    2
   178   119   120    1
   179    84    85    1
   180    84    81    1
   181    87    85   ar
   182    87    89   ar
   183    85    86   ar
   184   121   120   ar
   185   121   123   ar
   186    89    88   ar
   187    86    88   ar
   188   120   122   ar
   189    80    81    1
   190   123   125   ar
   191    81    82    1
   192   122   124   ar
   193   125   124   ar
   194    82    83    2
