@<TRIPOS>MOLECULE
tmp/5v2cU03.pdb
 123 119 0 0 0
SMALL
GASTEIGER

@<TRIPOS>ATOM
      1  N        -54.0140   -8.7140  140.8090 N.3   135  PRO135     -0.2116
      2  CA       -54.9380   -7.6210  141.1220 C.3   135  PRO135      0.1372
      3  C        -55.9510   -7.9670  142.1810 C.2   135  PRO135      0.2244
      4  O        -56.2090   -7.1270  143.0520 O.2   135  PRO135     -0.2868
      5  CB       -55.6260   -7.3230  139.7790 C.3   135  PRO135      0.0268
      6  CG       -54.6360   -7.8040  138.7410 C.3   135  PRO135      0.0207
      7  CD       -53.9330   -8.9900  139.3590 C.3   135  PRO135      0.0892
      8  N        -54.2650   -8.1780  145.6150 N.3   138  PHE138     -0.1241
      9  CA       -54.0220   -6.8340  146.1530 C.3   138  PHE138      0.1605
     10  C        -55.2420   -6.3320  146.9280 C.2   138  PHE138      0.2264
     11  O        -55.1060   -5.7890  148.0210 O.2   138  PHE138     -0.2867
     12  CB       -53.6480   -5.8150  145.0620 C.3   138  PHE138      0.0534
     13  CG       -53.4560   -4.4360  145.6090 C.ar  138  PHE138     -0.0203
     14  CD1      -52.4400   -4.1810  146.5110 C.ar  138  PHE138     -0.0042
     15  CD2      -54.3540   -3.4030  145.2960 C.ar  138  PHE138     -0.0042
     16  CE1      -52.3070   -2.9300  147.0870 C.ar  138  PHE138     -0.0003
     17  CE2      -54.2180   -2.1420  145.8450 C.ar  138  PHE138     -0.0003
     18  CZ       -53.1900   -1.9010  146.7500 C.ar  138  PHE138     -0.0000
     19  N        -55.3650   -5.6540  150.7410 N.3   142  LEU142     -0.1245
     20  CA       -55.6130   -4.2250  151.1070 C.3   142  LEU142      0.1561
     21  C        -56.8010   -4.1330  152.0700 C.2   142  LEU142      0.2260
     22  O        -56.7600   -3.3930  153.0540 O.2   142  LEU142     -0.2867
     23  CB       -55.8600   -3.3560  149.8730 C.3   142  LEU142      0.0270
     24  CG       -56.0880   -1.8510  150.0750 C.3   142  LEU142      0.0019
     25  CD1      -54.9150   -1.1760  150.7810 C.3   142  LEU142      0.0001
     26  CD2      -56.3680   -1.1400  148.7410 C.3   142  LEU142      0.0001
     27  N        -60.5580    3.8780  154.5500 N.3   207  VAL207     -0.1245
     28  CA       -60.2320    4.0630  153.1370 C.3   207  VAL207      0.1561
     29  C        -59.6190    2.7830  152.5610 C.2   207  VAL207      0.2260
     30  O        -59.9840    2.3680  151.4670 O.2   207  VAL207     -0.2867
     31  CB       -59.3590    5.3110  152.9320 C.3   207  VAL207      0.0252
     32  CG1      -58.6590    5.3150  151.5590 C.3   207  VAL207      0.0019
     33  CG2      -60.2280    6.5680  153.1260 C.3   207  VAL207      0.0019
     34  N        -62.4800    0.2880  151.9730 N.3   210  ILE210     -0.1231
     35  CA       -63.2810    0.6300  150.8020 C.3   210  ILE210      0.1692
     36  C        -62.4780    0.3580  149.5310 C.2   210  ILE210      0.2591
     37  O        -62.9730   -0.2210  148.5880 O.2   210  ILE210     -0.2718
     38  CB       -63.7260    2.1150  150.8810 C.3   210  ILE210      0.0266
     39  CG1      -64.6710    2.2870  152.0790 C.3   210  ILE210      0.0019
     40  CG2      -64.3300    2.5880  149.5450 C.3   210  ILE210      0.0020
     41  CD1      -64.9770    3.7340  152.4240 C.3   210  ILE210      0.0001
     42  N        -61.2210    0.7970  149.5190 N.am  211  ALA211     -0.1980
     43  CA       -60.3500    0.6050  148.3540 C.3   211  ALA211      0.1597
     44  C        -60.0490   -0.8950  148.1000 C.2   211  ALA211      0.2287
     45  O        -59.9760   -1.3430  146.9400 O.2   211  ALA211     -0.2864
     46  CB       -59.0540    1.3750  148.5380 C.3   211  ALA211      0.0319
     47  N        -63.0320   -2.2350  146.4240 N.3   214  PHE214     -0.1227
     48  CA       -62.9340   -1.8000  145.0360 C.3   214  PHE214      0.1736
     49  C        -62.0350   -2.7640  144.2730 C.2   214  PHE214      0.2595
     50  O        -62.4000   -3.2560  143.1860 O.2   214  PHE214     -0.2718
     51  CB       -62.3800   -0.3530  144.8860 C.3   214  PHE214      0.0547
     52  CG       -62.0070   -0.0040  143.4540 C.ar  214  PHE214     -0.0202
     53  CD1      -62.9690    0.2500  142.5520 C.ar  214  PHE214     -0.0042
     54  CD2      -60.7140   -0.0310  143.0270 C.ar  214  PHE214     -0.0042
     55  CE1      -62.6690    0.5370  141.2170 C.ar  214  PHE214     -0.0003
     56  CE2      -60.3860    0.2130  141.6970 C.ar  214  PHE214     -0.0003
     57  CZ       -61.3710    0.5070  140.7770 C.ar  214  PHE214     -0.0000
     58  N        -60.8680   -3.0260  144.8650 N.am  215  HIS215     -0.1975
     59  CA       -59.8160   -3.7960  144.2340 C.3   215  HIS215      0.1656
     60  C        -60.1530   -5.3140  144.1560 C.2   215  HIS215      0.2291
     61  O        -59.6570   -6.0670  143.2700 O.2   215  HIS215     -0.2864
     62  CB       -58.4070   -3.4320  144.8580 C.3   215  HIS215      0.0771
     63  CG       -57.7580   -2.1940  144.2590 C.ar  215  HIS215      0.0820
     64  ND1      -57.2570   -2.2000  142.9800 N.ar  215  HIS215     -0.2267
     65  CD2      -57.4670   -0.9580  144.7660 C.ar  215  HIS215      0.1154
     66  CE1      -56.7310   -1.0120  142.7020 C.ar  215  HIS215      0.1986
     67  NE2      -56.8220   -0.2220  143.7690 N.ar  215  HIS215     -0.2212
     68  N        -63.4350   -4.9320  141.2190 N.3   218  VAL218     -0.1231
     69  CA       -63.2490   -4.3130  139.9010 C.3   218  VAL218      0.1692
     70  C        -61.9300   -4.6680  139.2430 C.2   218  VAL218      0.2592
     71  O        -60.7930   -4.3940  139.7870 O.2   218  VAL218     -0.2718
     72  CB       -63.4150   -2.7980  139.9860 C.3   218  VAL218      0.0266
     73  CG1      -63.2940   -2.1670  138.5890 C.3   218  VAL218      0.0020
     74  CG2      -64.7850   -2.4870  140.5790 C.3   218  VAL218      0.0020
     75  N        -62.0630   -5.2200  138.0360 N.am  219  ARG219     -0.1966
     76  CA       -60.8570   -5.6310  137.2800 C.3   219  ARG219      0.1714
     77  C        -60.0190   -4.4360  136.7570 C.2   219  ARG219      0.2458
     78  O        -60.5920   -3.3730  136.4350 O.2   219  ARG219     -0.2730
     79  CB       -61.2480   -6.5270  136.0950 C.3   219  ARG219      0.0347
     80  CG       -61.8670   -7.8710  136.4560 C.3   219  ARG219      0.0492
     81  CD       -61.1370   -8.6770  137.5240 C.3   219  ARG219      0.2205
     82  NE       -59.7410   -8.9840  137.0980 N.pl3 219  ARG219     -0.0865
     83  CZ       -58.9170   -9.7290  137.7510 C.cat 219  ARG219      0.5346
     84  NH1      -59.2310  -10.2220  138.9360 N.pl3 219  ARG219      0.1354
     85  NH2      -57.7260   -9.9690  137.2280 N.pl3 219  ARG219      0.1354
     86  N        -58.6730   -4.6050  136.6700 N.am  220  PRO220     -0.2716
     87  CA       -57.8980   -3.5460  136.0920 C.3   220  PRO220      0.1521
     88  C        -58.2500   -3.2350  134.6430 C.2   220  PRO220      0.2440
     89  O        -58.6090   -4.1450  133.8480 O.2   220  PRO220     -0.2731
     90  CB       -56.4660   -4.0890  136.1190 C.3   220  PRO220      0.0310
     91  CG       -56.4770   -5.1960  137.1230 C.3   220  PRO220      0.0237
     92  CD       -57.8440   -5.7720  137.0340 C.3   220  PRO220      0.0939
     93  N        -58.1490   -1.9550  134.2630 N.am  221  PRO221     -0.2727
     94  CA       -58.2820   -1.6280  132.8520 C.3   221  PRO221      0.1402
     95  C        -57.2150   -2.3410  132.0250 C.2   221  PRO221      0.2269
     96  O        -56.0440   -2.4550  132.4860 O.2   221  PRO221     -0.2865
     97  CB       -58.0410   -0.1340  132.8210 C.3   221  PRO221      0.0296
     98  CG       -58.2230    0.3600  134.1930 C.3   221  PRO221      0.0237
     99  CD       -57.9330   -0.7810  135.1070 C.3   221  PRO221      0.0939
    100  N        -54.0450   -0.4400  131.6900 N.3   224  LEU224     -0.1245
    101  CA       -53.1510   -0.4770  132.8940 C.3   224  LEU224      0.1561
    102  C        -52.5640   -1.8550  133.1340 C.2   224  LEU224      0.2260
    103  O        -51.3650   -1.9690  133.5040 O.2   224  LEU224     -0.2867
    104  CB       -53.8360    0.0750  134.1540 C.3   224  LEU224      0.0270
    105  CG       -54.3290    1.5290  134.1070 C.3   224  LEU224      0.0019
    106  CD1      -54.9320    1.8760  135.4570 C.3   224  LEU224      0.0001
    107  CD2      -53.2030    2.4930  133.7710 C.3   224  LEU224      0.0001
    108  N        -48.5020   -1.7840  133.1250 N.3   228  LEU228     -0.1245
    109  CA       -47.7860   -2.1620  134.3330 C.3   228  LEU228      0.1561
    110  C        -47.4810   -3.6790  134.4390 C.2   228  LEU228      0.2260
    111  O        -46.9870   -4.1230  135.4740 O.2   228  LEU228     -0.2867
    112  CB       -48.5840   -1.6750  135.5180 C.3   228  LEU228      0.0270
    113  CG       -48.6500   -0.1550  135.6880 C.3   228  LEU228      0.0019
    114  CD1      -49.5080    0.2390  136.8820 C.3   228  LEU228      0.0001
    115  CD2      -47.2400    0.3430  135.8640 C.3   228  LEU228      0.0001
    116  N        -49.2450   -6.5530  134.6560 N.3   230  MET230     -0.1245
    117  CA       -49.8640   -7.0260  135.8430 C.3   230  MET230      0.1570
    118  C        -49.9120   -8.5440  135.9770 C.2   230  MET230      0.2261
    119  O        -50.3040   -9.0570  137.0290 O.2   230  MET230     -0.2867
    120  CB       -51.2800   -6.4720  135.9490 C.3   230  MET230      0.0387
    121  CG       -51.2640   -5.0050  136.3190 C.3   230  MET230      0.0595
    122  SD       -52.9010   -4.4220  136.7560 S.3   230  MET230     -0.1393
    123  CE       -52.7060   -2.6650  136.7390 C.3   230  MET230      0.0692
@<TRIPOS>BOND
     1   100   101    1
     2    95    96    2
     3    95    94    1
     4    97    94    1
     5    97    98    1
     6    94    93    1
     7   101   102    1
     8   101   104    1
     9   108   109    1
    10   102   103    2
    11   107   105    1
    12    89    88    2
    13   105   104    1
    14   105   106    1
    15    98    99    1
    16    93    88   am
    17    93    99    1
    18   109   110    1
    19   109   112    1
    20   110   111    2
    21    88    87    1
    22   116   117    1
    23   112   113    1
    24   113   115    1
    25   113   114    1
    26   117   120    1
    27   117   118    1
    28   120   121    1
    29   118   119    2
    30    87    90    1
    31    87    86    1
    32    79    80    1
    33    79    76    1
    34    90    91    1
    35   121   122    1
    36    78    77    2
    37    80    81    1
    38    86    77   am
    39    86    92    1
    40   123   122    1
    41    77    76    1
    42    92    91    1
    43    82    81    1
    44    82    83    2
    45    85    83    1
    46    76    75    1
    47    83    84    1
    48    75    70   am
    49    73    72    1
    50     6     7    1
    51     6     5    1
    52    70    71    2
    53    70    69    1
    54     7     1    1
    55     5     2    1
    56    69    72    1
    57    69    68    1
    58    72    74    1
    59    57    55   ar
    60    57    56   ar
    61     1     2    1
    62     2     3    1
    63    55    53   ar
    64    56    54   ar
    65     3     4    2
    66    53    52   ar
    67    66    64   ar
    68    66    67   ar
    69    64    63   ar
    70    54    52   ar
    71    50    49    2
    72    61    60    2
    73    52    51    1
    74    67    65   ar
    75    60    59    1
    76    59    62    1
    77    59    58    1
    78    63    65   ar
    79    63    62    1
    80    49    58   am
    81    49    48    1
    82    51    48    1
    83    48    47    1
    84    12    13    1
    85    12     9    1
    86    15    13   ar
    87    15    17   ar
    88    13    14   ar
    89     8     9    1
    90    17    18   ar
    91     9    10    1
    92    14    16   ar
    93    18    16   ar
    94    10    11    2
    95    45    44    2
    96    44    43    1
    97    43    46    1
    98    43    42    1
    99    37    36    2
   100    26    24    1
   101    42    36   am
   102    36    35    1
   103    40    38    1
   104    23    24    1
   105    23    20    1
   106    24    25    1
   107    19    20    1
   108    35    38    1
   109    35    34    1
   110    38    39    1
   111    20    21    1
   112    30    29    2
   113    32    31    1
   114    21    22    2
   115    39    41    1
   116    29    28    1
   117    31    33    1
   118    31    28    1
   119    28    27    1
