@<TRIPOS>MOLECULE
tmp/5v2cU36.pdb
 179 175 0 0 0
SMALL
GASTEIGER

@<TRIPOS>ATOM
      1  N        -57.9740   13.1560  166.7780 N.3   183  GLU183     -0.1231
      2  CA       -58.1440   14.5750  166.5010 C.3   183  GLU183      0.1699
      3  C        -58.6200   14.7030  165.0310 C.2   183  GLU183      0.2592
      4  O        -57.9140   14.3140  164.0890 O.2   183  GLU183     -0.2718
      5  CB       -56.8580   15.3090  166.7560 C.3   183  GLU183      0.0402
      6  CG       -56.8610   16.7470  166.2680 C.3   183  GLU183      0.1161
      7  CD       -57.9630   17.5430  166.8690 C.2   183  GLU183      0.3649
      8  OE1      -58.0030   17.5570  168.1000 O.co2 183  GLU183     -0.2457
      9  OE2      -58.7650   18.1180  166.1060 O.co2 183  GLU183     -0.2457
     10  N        -59.8490   15.1880  164.8710 N.am  184  TRP184     -0.1962
     11  CA       -60.5010   15.2550  163.5790 C.3   184  TRP184      0.1771
     12  C        -60.4200   16.6170  162.8910 C.2   184  TRP184      0.2620
     13  O        -60.9160   16.7620  161.7700 O.2   184  TRP184     -0.2715
     14  CB       -61.9780   14.8340  163.7350 C.3   184  TRP184      0.0590
     15  CG       -62.1170   13.3910  164.0780 C.ar  184  TRP184      0.0006
     16  CD1      -62.6920   12.8580  165.1980 C.ar  184  TRP184      0.0946
     17  CD2      -61.7050   12.2940  163.2700 C.ar  184  TRP184      0.0152
     18  NE1      -62.6340   11.4940  165.1520 N.ar  184  TRP184     -0.2442
     19  CE2      -62.0510   11.1120  163.9710 C.ar  184  TRP184      0.0810
     20  CE3      -61.0470   12.1890  162.0420 C.ar  184  TRP184      0.0012
     21  CZ2      -61.7530    9.8390  163.4720 C.ar  184  TRP184      0.0191
     22  CZ3      -60.7800   10.9440  161.5330 C.ar  184  TRP184      0.0001
     23  CH2      -61.1180    9.7800  162.2450 C.ar  184  TRP184      0.0015
     24  N        -59.8440   17.6050  163.5660 N.am  185  GLY185     -0.1954
     25  CA       -59.5500   18.8830  162.9550 C.3   185  GLY185      0.1869
     26  C        -58.1730   18.9670  162.3000 C.2   185  GLY185      0.2309
     27  O        -57.4340   17.9850  162.2620 O.2   185  GLY185     -0.2863
     28  N        -54.8250   17.4630  163.5070 N.3   188  GLY188     -0.1210
     29  CA       -54.5490   16.0280  163.2620 C.3   188  GLY188      0.1956
     30  C        -53.3730   15.7940  162.3460 C.2   188  GLY188      0.2612
     31  O        -52.7470   14.7280  162.4010 O.2   188  GLY188     -0.2717
     32  N        -53.0710   16.7800  161.4930 N.am  189  PHE189     -0.1962
     33  CA       -51.9010   16.7340  160.5880 C.3   189  PHE189      0.1771
     34  C        -50.6240   17.3220  161.1610 C.2   189  PHE189      0.2620
     35  O        -49.5480   17.2580  160.5160 O.2   189  PHE189     -0.2715
     36  CB       -52.3220   17.3430  159.2450 C.3   189  PHE189      0.0574
     37  CG       -53.5440   16.6820  158.7220 C.ar  189  PHE189     -0.0200
     38  CD1      -53.4730   15.3950  158.2010 C.ar  189  PHE189     -0.0042
     39  CD2      -54.7800   17.2780  158.8590 C.ar  189  PHE189     -0.0042
     40  CE1      -54.6110   14.7250  157.7430 C.ar  189  PHE189     -0.0003
     41  CE2      -55.9350   16.6290  158.4330 C.ar  189  PHE189     -0.0003
     42  CZ       -55.8470   15.3530  157.8750 C.ar  189  PHE189     -0.0000
     43  N        -50.6990   17.7800  162.4080 N.am  190  ASN190     -0.1959
     44  CA       -49.5260   18.1560  163.1870 C.3   190  ASN190      0.1804
     45  C        -48.8000   16.9000  163.6020 C.2   190  ASN190      0.2463
     46  O        -49.3400   16.0980  164.3100 O.2   190  ASN190     -0.2730
     47  CB       -49.9970   18.9260  164.4110 C.3   190  ASN190      0.1195
     48  CG       -48.8800   19.4950  165.2250 C.2   190  ASN190      0.2630
     49  OD1      -47.6860   19.1520  165.0860 O.2   190  ASN190     -0.2716
     50  ND2      -49.2580   20.3670  166.1080 N.am  190  ASN190     -0.0877
     51  N        -47.5130   16.7460  163.2000 N.am  191  PRO191     -0.2727
     52  CA       -46.8510   15.5100  163.5750 C.3   191  PRO191      0.1402
     53  C        -46.6970   15.3080  165.1060 C.2   191  PRO191      0.2269
     54  O        -46.6340   14.1740  165.5460 O.2   191  PRO191     -0.2865
     55  CB       -45.4820   15.5970  162.8600 C.3   191  PRO191      0.0296
     56  CG       -45.3370   17.0610  162.5460 C.3   191  PRO191      0.0237
     57  CD       -46.7030   17.6150  162.3760 C.3   191  PRO191      0.0939
     58  N        -53.7270   12.8720  166.1120 N.3   196  GLY196     -0.1210
     59  CA       -53.6250   12.6950  164.6690 C.3   196  GLY196      0.1956
     60  C        -53.2270   11.2830  164.2610 C.2   196  GLY196      0.2611
     61  O        -53.6780   10.7440  163.2130 O.2   196  GLY196     -0.2717
     62  N        -52.3970   10.6610  165.0890 N.am  197  VAL197     -0.1979
     63  CA       -51.9750    9.2980  164.7810 C.3   197  VAL197      0.1595
     64  C        -53.1870    8.3890  164.8780 C.2   197  VAL197      0.2287
     65  O        -53.3620    7.4770  164.0870 O.2   197  VAL197     -0.2864
     66  CB       -50.9130    8.8030  165.7680 C.3   197  VAL197      0.0276
     67  CG1      -50.5480    7.3790  165.4080 C.3   197  VAL197      0.0022
     68  CG2      -49.6810    9.7160  165.7100 C.3   197  VAL197      0.0022
     69  N        -56.4230    9.3400  164.5430 N.3   199  ALA199     -0.1231
     70  CA       -57.3790    9.6290  163.4820 C.3   199  ALA199      0.1694
     71  C        -56.8630    9.0950  162.1310 C.2   199  ALA199      0.2592
     72  O        -57.6030    8.5800  161.3160 O.2   199  ALA199     -0.2718
     73  CB       -57.5870   11.1150  163.4110 C.3   199  ALA199      0.0304
     74  N        -55.5670    9.1920  161.9320 N.am  200  HIS200     -0.1976
     75  CA       -54.9600    8.5800  160.7750 C.3   200  HIS200      0.1656
     76  C        -55.4060    7.1030  160.6090 C.2   200  HIS200      0.2291
     77  O        -55.7770    6.6710  159.5150 O.2   200  HIS200     -0.2864
     78  CB       -53.4090    8.6630  160.7930 C.3   200  HIS200      0.0771
     79  CG       -52.7980    7.8170  159.7170 C.ar  200  HIS200      0.0820
     80  ND1      -52.6360    8.2390  158.3890 N.ar  200  HIS200     -0.2267
     81  CD2      -52.4070    6.5140  159.7710 C.ar  200  HIS200      0.1154
     82  CE1      -52.1970    7.1960  157.6960 C.ar  200  HIS200      0.1986
     83  NE2      -52.0210    6.1610  158.5080 N.ar  200  HIS200     -0.2212
     84  N        -59.1950    6.6500  159.9060 N.3   203  ALA203     -0.1231
     85  CA       -59.6360    7.1170  158.6020 C.3   203  ALA203      0.1694
     86  C        -58.9500    6.3580  157.4580 C.2   203  ALA203      0.2591
     87  O        -59.5970    5.8780  156.4900 O.2   203  ALA203     -0.2718
     88  CB       -59.3330    8.5870  158.4890 C.3   203  ALA203      0.0304
     89  N        -57.6290    6.2640  157.5170 N.am  204  ALA204     -0.1980
     90  CA       -56.9690    5.5420  156.4730 C.3   204  ALA204      0.1597
     91  C        -57.3610    4.0750  156.4600 C.2   204  ALA204      0.2287
     92  O        -57.3390    3.4090  155.4040 O.2   204  ALA204     -0.2864
     93  CB       -55.4630    5.6950  156.5580 C.3   204  ALA204      0.0319
     94  N        -60.5580    3.8780  154.5500 N.3   207  VAL207     -0.1231
     95  CA       -60.2320    4.0630  153.1370 C.3   207  VAL207      0.1692
     96  C        -59.6190    2.7830  152.5610 C.2   207  VAL207      0.2592
     97  O        -59.9840    2.3680  151.4670 O.2   207  VAL207     -0.2718
     98  CB       -59.3590    5.3110  152.9320 C.3   207  VAL207      0.0266
     99  CG1      -58.6590    5.3150  151.5590 C.3   207  VAL207      0.0020
    100  CG2      -60.2280    6.5680  153.1260 C.3   207  VAL207      0.0020
    101  N        -58.7570    2.1300  153.3300 N.am  208  GLY208     -0.1957
    102  CA       -58.2820    0.8110  152.9340 C.3   208  GLY208      0.1869
    103  C        -59.3410   -0.2780  152.7550 C.2   208  GLY208      0.2309
    104  O        -59.3000   -1.0950  151.8140 O.2   208  GLY208     -0.2863
    105  N        -39.4850    2.1580  150.2080 N.3   245  PHE245     -0.1227
    106  CA       -38.4430    3.2070  150.3700 C.3   245  PHE245      0.1736
    107  C        -39.0470    4.5370  150.7510 C.2   245  PHE245      0.2595
    108  O        -38.4710    5.2640  151.5390 O.2   245  PHE245     -0.2718
    109  CB       -37.3260    3.2770  149.2910 C.3   245  PHE245      0.0547
    110  CG       -37.6980    4.0030  148.0070 C.ar  245  PHE245     -0.0202
    111  CD1      -37.9680    5.3790  147.9920 C.ar  245  PHE245     -0.0042
    112  CD2      -37.7320    3.3060  146.8030 C.ar  245  PHE245     -0.0042
    113  CE1      -38.3140    6.0170  146.7820 C.ar  245  PHE245     -0.0003
    114  CE2      -38.0210    3.9240  145.6070 C.ar  245  PHE245     -0.0003
    115  CZ       -38.3180    5.2880  145.5790 C.ar  245  PHE245     -0.0000
    116  N        -40.2540    4.7970  150.2820 N.am  246  PHE246     -0.1976
    117  CA       -40.9820    6.0070  150.7080 C.3   246  PHE246      0.1639
    118  C        -41.2280    5.9660  152.2390 C.2   246  PHE246      0.2290
    119  O        -40.8800    6.9150  152.9440 O.2   246  PHE246     -0.2864
    120  CB       -42.2710    6.1350  149.8920 C.3   246  PHE246      0.0560
    121  CG       -43.2580    7.1810  150.3860 C.ar  246  PHE246     -0.0200
    122  CD1      -42.8260    8.4050  150.8430 C.ar  246  PHE246     -0.0042
    123  CD2      -44.6170    6.9410  150.3630 C.ar  246  PHE246     -0.0042
    124  CE1      -43.7040    9.3740  151.3000 C.ar  246  PHE246     -0.0003
    125  CE2      -45.5220    7.9080  150.8460 C.ar  246  PHE246     -0.0003
    126  CZ       -45.0630    9.1180  151.2960 C.ar  246  PHE246     -0.0000
    127  N        -37.9340    6.4230  154.2100 N.3   249  PHE249     -0.1227
    128  CA       -37.5050    7.8190  154.3250 C.3   249  PHE249      0.1736
    129  C        -38.4110    8.5870  155.3290 C.2   249  PHE249      0.2595
    130  O        -37.9120    9.4240  156.0930 O.2   249  PHE249     -0.2718
    131  CB       -37.5320    8.5280  152.9970 C.3   249  PHE249      0.0547
    132  CG       -36.3390    8.2940  152.1380 C.ar  249  PHE249     -0.0202
    133  CD1      -35.0780    8.6350  152.6040 C.ar  249  PHE249     -0.0042
    134  CD2      -36.4650    7.7990  150.8420 C.ar  249  PHE249     -0.0042
    135  CE1      -33.9540    8.4380  151.8280 C.ar  249  PHE249     -0.0003
    136  CE2      -35.3200    7.5890  150.0500 C.ar  249  PHE249     -0.0003
    137  CZ       -34.0720    7.9340  150.5420 C.ar  249  PHE249     -0.0000
    138  N        -39.7180    8.3290  155.3030 N.am  250  VAL250     -0.1966
    139  CA       -40.5960    8.9910  156.2420 C.3   250  VAL250      0.1727
    140  C        -40.2260    8.6720  157.7120 C.2   250  VAL250      0.2616
    141  O        -40.1180    9.5940  158.5410 O.2   250  VAL250     -0.2715
    142  CB       -42.0670    8.6940  155.9540 C.3   250  VAL250      0.0290
    143  CG1      -42.9470    9.2300  157.0410 C.3   250  VAL250      0.0023
    144  CG2      -42.4640    9.3530  154.6250 C.3   250  VAL250      0.0023
    145  N        -40.0190    7.3860  158.0580 N.am  251  VAL251     -0.1977
    146  CA       -39.6830    7.0880  159.4170 C.3   251  VAL251      0.1596
    147  C        -38.2630    7.6070  159.7720 C.2   251  VAL251      0.2287
    148  O        -38.0010    7.9510  160.9230 O.2   251  VAL251     -0.2864
    149  CB       -39.8480    5.5880  159.7620 C.3   251  VAL251      0.0276
    150  CG1      -41.2950    5.1800  159.6090 C.3   251  VAL251      0.0022
    151  CG2      -38.8910    4.6790  158.9670 C.3   251  VAL251      0.0022
    152  N        -39.1370   11.4530  160.6120 N.3   254  THR254     -0.1218
    153  CA       -39.8550   11.6170  161.8910 C.3   254  THR254      0.1862
    154  C        -38.9900   11.2790  163.1000 C.2   254  THR254      0.2287
    155  O        -39.1270   11.8570  164.1730 O.2   254  THR254     -0.2866
    156  CB       -41.2460   10.9230  161.9250 C.3   254  THR254      0.1770
    157  OG1      -41.1140    9.4920  161.7920 O.3   254  THR254     -0.2211
    158  CG2      -42.2020   11.5240  160.7910 C.3   254  THR254      0.0375
    159  N        -41.5580   13.4570  166.4420 N.3   259  SER259     -0.1217
    160  CA       -42.9950   13.4460  166.2660 C.3   259  SER259      0.1889
    161  C        -43.6150   12.7770  167.5040 C.2   259  SER259      0.2288
    162  O        -42.9100   12.3230  168.4020 O.2   259  SER259     -0.2866
    163  CB       -43.3860   12.6840  165.0250 C.3   259  SER259      0.2089
    164  OG       -43.2730   11.2700  165.2420 O.3   259  SER259     -0.2183
    165  N        -44.7630    9.9860  167.5730 N.3   261  THR261     -0.1218
    166  CA       -44.4030    8.5940  167.5720 C.3   261  THR261      0.1862
    167  C        -42.9210    8.3470  167.7820 C.2   261  THR261      0.2287
    168  O        -42.5310    7.1910  167.8170 O.2   261  THR261     -0.2866
    169  CB       -44.8480    7.8900  166.2440 C.3   261  THR261      0.1770
    170  OG1      -43.9990    8.2890  165.1710 O.3   261  THR261     -0.2211
    171  CG2      -46.3670    8.1130  165.9590 C.3   261  THR261      0.0375
    172  N        -32.3260    4.5760  150.6800 N.3   459  LEU459     -0.1245
    173  CA       -31.5620    4.9080  149.5090 C.3   459  LEU459      0.1561
    174  C        -31.2020    3.6420  148.6540 C.2   459  LEU459      0.2260
    175  O        -31.3880    3.6340  147.4330 O.2   459  LEU459     -0.2867
    176  CB       -30.2890    5.6700  149.9020 C.3   459  LEU459      0.0270
    177  CG       -29.6200    6.4000  148.7440 C.3   459  LEU459      0.0019
    178  CD1      -30.4420    7.5690  148.2650 C.3   459  LEU459      0.0001
    179  CD2      -28.2500    6.8970  149.1860 C.3   459  LEU459      0.0001
@<TRIPOS>BOND
     1   115   114   ar
     2   115   113   ar
     3   114   112   ar
     4   113   111   ar
     5   112   110   ar
     6   175   174    2
     7   111   110   ar
     8   110   109    1
     9   178   177    1
    10   174   173    1
    11   177   179    1
    12   177   176    1
    13   109   106    1
    14   173   176    1
    15   173   172    1
    16   120   121    1
    17   120   117    1
    18   136   137   ar
    19   136   134   ar
    20   105   106    1
    21   116   117    1
    22   116   107   am
    23   123   121   ar
    24   123   125   ar
    25   106   107    1
    26   121   122   ar
    27   137   135   ar
    28   117   118    1
    29   107   108    2
    30   134   132   ar
    31   122   124   ar
    32   125   126   ar
    33   126   124   ar
    34    97    96    2
    35    99    98    1
    36   104   103    2
    37   135   133   ar
    38   132   133   ar
    39   132   131    1
    40   118   119    2
    41    96    95    1
    42    96   101   am
    43   103   102    1
    44    98   100    1
    45    98    95    1
    46   102   101    1
    47   131   128    1
    48    95    94    1
    49   127   128    1
    50   128   129    1
    51   144   142    1
    52   138   129   am
    53   138   139    1
    54   129   130    2
    55    92    91    2
    56   142   139    1
    57   142   143    1
    58   139   140    1
    59    91    90    1
    60    90    93    1
    61    90    89    1
    62    87    86    2
    63    86    89   am
    64    86    85    1
    65    82    80   ar
    66    82    83   ar
    67   140   145   am
    68   140   141    2
    69    40    42   ar
    70    40    38   ar
    71    42    41   ar
    72   145   146    1
    73    38    37   ar
    74    80    79   ar
    75    41    39   ar
    76    88    85    1
    77    83    81   ar
    78    85    84    1
    79    37    39   ar
    80    37    36    1
    81   151   149    1
    82    36    33    1
    83   146   149    1
    84   146   147    1
    85    77    76    2
    86   150   149    1
    87    79    81   ar
    88    79    78    1
    89   147   148    2
    90    35    34    2
    91    33    34    1
    92    33    32    1
    93    76    75    1
    94   152   153    1
    95    75    78    1
    96    75    74    1
    97   158   156    1
    98    34    43   am
    99    72    71    2
   100    32    30   am
   101    22    20   ar
   102    22    23   ar
   103    13    12    2
   104   157   156    1
   105   153   156    1
   106   153   154    1
   107    74    71   am
   108    20    17   ar
   109    71    70    1
   110    23    21   ar
   111    27    26    2
   112    26    25    1
   113    30    31    2
   114    30    29    1
   115    57    56    1
   116    57    51    1
   117    43    44    1
   118    56    55    1
   119    55    52    1
   120    12    24   am
   121    12    11    1
   122    25    24    1
   123   154   155    2
   124    44    45    1
   125    44    47    1
   126    51    52    1
   127    51    45   am
   128    61    60    2
   129    29    28    1
   130    17    19   ar
   131    17    15   ar
   132    73    70    1
   133    21    19   ar
   134    70    69    1
   135    52    53    1
   136    11    14    1
   137    11    10    1
   138    45    46    2
   139    14    15    1
   140    19    18   ar
   141    15    16   ar
   142    65    64    2
   143     4     3    2
   144    60    59    1
   145    60    62   am
   146    47    48    1
   147    59    58    1
   148    63    64    1
   149    63    62    1
   150    63    66    1
   151    10     3   am
   152   163   164    1
   153   163   160    1
   154     3     2    1
   155    49    48    2
   156    53    54    2
   157    18    16   ar
   158   170   169    1
   159    48    50   am
   160    67    66    1
   161    68    66    1
   162   171   169    1
   163     9     7   ar
   164   169   166    1
   165   160   159    1
   166   160   161    1
   167     6     5    1
   168     6     7    1
   169     2     5    1
   170     2     1    1
   171     7     8   ar
   172   161   162    2
   173   166   165    1
   174   166   167    1
   175   167   168    2
