@<TRIPOS>MOLECULE
tmp/5v2cA04.pdb
 93 93 0 0 0
SMALL
GASTEIGER

@<TRIPOS>ATOM
      1  N        -66.3750  -44.2560  159.3550 N.3     1  ALA1       -0.1231
      2  CA       -65.8910  -44.1980  160.7780 C.3     1  ALA1        0.1694
      3  C        -66.2290  -42.8720  161.5160 C.2     1  ALA1        0.2592
      4  O        -66.1520  -41.7770  160.9340 O.2     1  ALA1       -0.2718
      5  CB       -64.3830  -44.4770  160.8390 C.3     1  ALA1        0.0304
      6  N        -66.6060  -42.9840  162.7960 N.am    2  ASN2       -0.1960
      7  CA       -66.7880  -41.8050  163.6590 C.3     2  ASN2        0.1819
      8  C        -65.4670  -41.1900  164.1010 C.2     2  ASN2        0.2621
      9  O        -64.4070  -41.7560  163.9030 O.2     2  ASN2       -0.2715
     10  CB       -67.6760  -42.1120  164.8670 C.3     2  ASN2        0.1195
     11  CG       -67.0110  -43.0070  165.9150 C.2     2  ASN2        0.2630
     12  OD1      -65.9930  -42.7080  166.4670 O.2     2  ASN2       -0.2716
     13  ND2      -67.6460  -44.0920  166.2100 N.am    2  ASN2       -0.0877
     14  N        -65.5620  -40.0230  164.7130 N.am    3  LEU3       -0.1963
     15  CA       -64.4180  -39.2400  165.0980 C.3     3  LEU3        0.1728
     16  C        -63.4400  -39.9600  166.0420 C.2     3  LEU3        0.2616
     17  O        -62.2530  -39.9080  165.8380 O.2     3  LEU3       -0.2715
     18  CB       -64.8950  -37.9600  165.7470 C.3     3  LEU3        0.0311
     19  CG       -63.8040  -37.0260  166.2980 C.3     3  LEU3        0.0022
     20  CD1      -62.7670  -36.6630  165.2480 C.3     3  LEU3        0.0001
     21  CD2      -64.4760  -35.7720  166.8560 C.3     3  LEU3        0.0001
     22  N        -63.9560  -40.6260  167.0600 N.am    4  TRP4       -0.1974
     23  CA       -63.1470  -41.3190  168.0320 C.3     4  TRP4        0.1640
     24  C        -62.3720  -42.4560  167.3480 C.2     4  TRP4        0.2290
     25  O        -61.1990  -42.6390  167.5340 O.2     4  TRP4       -0.2864
     26  CB       -64.0240  -41.8410  169.1880 C.3     4  TRP4        0.0576
     27  CG       -63.2080  -42.6310  170.1460 C.ar    4  TRP4        0.0006
     28  CD1      -63.2800  -43.9540  170.3550 C.ar    4  TRP4        0.0946
     29  CD2      -62.1480  -42.1400  170.9670 C.ar    4  TRP4        0.0152
     30  NE1      -62.3610  -44.3410  171.2920 N.ar    4  TRP4       -0.2442
     31  CE2      -61.6290  -43.2480  171.6790 C.ar    4  TRP4        0.0810
     32  CE3      -61.6120  -40.8770  171.2000 C.ar    4  TRP4        0.0012
     33  CZ2      -60.5820  -43.1430  172.5950 C.ar    4  TRP4        0.0191
     34  CZ3      -60.5190  -40.7640  172.0890 C.ar    4  TRP4        0.0001
     35  CH2      -60.0400  -41.8990  172.8020 C.ar    4  TRP4        0.0015
     36  N        -61.6420  -42.6980  164.0900 N.3     6  ARG6       -0.1231
     37  CA       -60.6370  -42.0650  163.2680 C.3     6  ARG6        0.1694
     38  C        -59.4610  -41.5960  164.0940 C.2     6  ARG6        0.2592
     39  O        -58.3420  -41.8160  163.7240 O.2     6  ARG6       -0.2718
     40  CB       -61.2240  -40.8830  162.4790 C.3     6  ARG6        0.0321
     41  CG       -62.1600  -41.3200  161.3620 C.3     6  ARG6        0.0489
     42  CD       -62.9530  -40.1620  160.7350 C.3     6  ARG6        0.2205
     43  NE       -62.1630  -39.2850  159.8500 N.pl3   6  ARG6       -0.0865
     44  CZ       -61.5460  -38.1420  160.1940 C.cat   6  ARG6        0.5346
     45  NH1      -60.8690  -37.4580  159.2720 N.pl3   6  ARG6        0.1354
     46  NH2      -61.5830  -37.6620  161.4430 N.pl3   6  ARG6        0.1354
     47  N        -59.7360  -40.9790  165.2140 N.am    7  PHE7       -0.1976
     48  CA       -58.6690  -40.4790  166.0770 C.3     7  PHE7        0.1639
     49  C        -57.8120  -41.6580  166.5540 C.2     7  PHE7        0.2290
     50  O        -56.5830  -41.6270  166.4760 O.2     7  PHE7       -0.2864
     51  CB       -59.2450  -39.6570  167.2400 C.3     7  PHE7        0.0560
     52  CG       -58.2130  -39.2320  168.2550 C.ar    7  PHE7       -0.0200
     53  CD1      -57.2520  -38.2750  167.9420 C.ar    7  PHE7       -0.0042
     54  CD2      -58.1930  -39.8010  169.5250 C.ar    7  PHE7       -0.0042
     55  CE1      -56.3010  -37.8570  168.8920 C.ar    7  PHE7       -0.0003
     56  CE2      -57.3050  -39.4000  170.4640 C.ar    7  PHE7       -0.0003
     57  CZ       -56.3270  -38.4290  170.1510 C.ar    7  PHE7       -0.0000
     58  N        -57.3830  -44.5520  165.1550 N.3     9  ASN9       -0.1225
     59  CA       -56.6340  -45.0370  164.0060 C.3     9  ASN9        0.1785
     60  C        -55.4040  -44.2260  163.7120 C.2     9  ASN9        0.2597
     61  O        -54.4030  -44.8020  163.3240 O.2     9  ASN9       -0.2718
     62  CB       -57.5010  -45.1460  162.7630 C.3     9  ASN9        0.1169
     63  CG       -58.4790  -46.2970  162.8560 C.2     9  ASN9        0.2627
     64  OD1      -58.2940  -47.2560  163.6240 O.2     9  ASN9       -0.2716
     65  ND2      -59.5450  -46.2010  162.0970 N.am    9  ASN9       -0.0877
     66  N        -55.4990  -42.9040  163.8920 N.am   10  TRP10      -0.1976
     67  CA       -54.3690  -42.0040  163.7050 C.3    10  TRP10       0.1640
     68  C        -53.3160  -42.1620  164.8090 C.2    10  TRP10       0.2290
     69  O        -52.0880  -42.2750  164.5330 O.2    10  TRP10      -0.2864
     70  CB       -54.8400  -40.5450  163.6110 C.3    10  TRP10       0.0576
     71  CG       -53.6700  -39.6260  163.4960 C.ar   10  TRP10       0.0006
     72  CD1      -52.9590  -39.3850  162.3850 C.ar   10  TRP10       0.0946
     73  CD2      -53.0000  -38.9130  164.5600 C.ar   10  TRP10       0.0152
     74  NE1      -51.9080  -38.5180  162.6550 N.ar   10  TRP10      -0.2442
     75  CE2      -51.9140  -38.2050  163.9770 C.ar   10  TRP10       0.0810
     76  CE3      -53.2510  -38.7540  165.9230 C.ar   10  TRP10       0.0012
     77  CZ2      -51.0470  -37.4190  164.7120 C.ar   10  TRP10       0.0191
     78  CZ3      -52.4120  -37.9630  166.6490 C.ar   10  TRP10       0.0001
     79  CH2      -51.3190  -37.2920  166.0320 C.ar   10  TRP10       0.0015
     80  N        -51.4500  -45.3030  164.3570 N.3    13  SER13      -0.1217
     81  CA       -51.0660  -45.5680  162.9830 C.3    13  SER13       0.1889
     82  C        -49.6090  -45.9850  162.8400 C.2    13  SER13       0.2288
     83  O        -48.6920  -45.3390  163.4010 O.2    13  SER13      -0.2866
     84  CB       -51.2660  -44.3220  162.1220 C.3    13  SER13       0.2089
     85  OG       -50.8480  -44.6090  160.7980 O.3    13  SER13      -0.2183
     86  N        -48.1770  -45.6330  160.1080 N.3    15  ASP15      -0.1239
     87  CA       -47.6380  -44.7940  159.0490 C.3    15  ASP15       0.1674
     88  C        -47.1780  -43.3810  159.4490 C.2    15  ASP15       0.2266
     89  O        -46.6780  -42.6610  158.6120 O.2    15  ASP15      -0.2867
     90  CB       -48.6210  -44.7750  157.9160 C.3    15  ASP15       0.1410
     91  CG       -48.9640  -46.2060  157.4650 C.2    15  ASP15       0.3668
     92  OD1      -48.1800  -47.2400  157.6870 O.co2  15  ASP15      -0.2456
     93  OD2      -50.0760  -46.2850  156.9570 O.co2  15  ASP15      -0.2456
@<TRIPOS>BOND
     1    93    91   ar
     2    91    92   ar
     3    91    90    1
     4    90    87    1
     5    89    88    2
     6    87    88    1
     7    87    86    1
     8    45    44    1
     9     1     2    1
    10    43    44    2
    11    43    42    1
    12    44    46    1
    13    42    41    1
    14     2     5    1
    15     2     3    1
    16    85    84    1
    17     4     3    2
    18    41    40    1
    19     3     6   am
    20    65    63   am
    21    84    81    1
    22    72    74   ar
    23    72    71   ar
    24    40    37    1
    25    74    75   ar
    26    62    63    1
    27    62    59    1
    28     6     7    1
    29    82    81    1
    30    82    83    2
    31    63    64    2
    32    81    80    1
    33    37    36    1
    34    37    38    1
    35    61    60    2
    36    71    70    1
    37    71    73   ar
    38    70    67    1
    39     7     8    1
    40     7    10    1
    41    67    66    1
    42    67    68    1
    43    60    66   am
    44    60    59    1
    45    39    38    2
    46     9     8    2
    47    75    73   ar
    48    75    77   ar
    49    59    58    1
    50    38    47   am
    51     8    14   am
    52    69    68    2
    53    73    76   ar
    54    77    79   ar
    55    14    15    1
    56    10    11    1
    57    15    18    1
    58    15    16    1
    59    47    48    1
    60    20    19    1
    61    18    19    1
    62    17    16    2
    63    11    13   am
    64    11    12    2
    65    76    78   ar
    66    79    78   ar
    67    16    22   am
    68    48    49    1
    69    48    51    1
    70    19    21    1
    71    50    49    2
    72    22    23    1
    73    51    52    1
    74    24    25    2
    75    24    23    1
    76    53    52   ar
    77    53    55   ar
    78    23    26    1
    79    52    54   ar
    80    55    57   ar
    81    26    27    1
    82    54    56   ar
    83    27    28   ar
    84    27    29   ar
    85    57    56   ar
    86    28    30   ar
    87    29    32   ar
    88    29    31   ar
    89    32    34   ar
    90    30    31   ar
    91    31    33   ar
    92    34    35   ar
    93    33    35   ar
