@<TRIPOS>MOLECULE
tmp/5v2cV25.pdb
 227 214 0 0 0
SMALL
GASTEIGER

@<TRIPOS>ATOM
      1  N         18.6400   37.4360  130.6040 N.3    76  HIS76      -0.1241
      2  CA        19.6110   36.6920  129.7640 C.3    76  HIS76       0.1621
      3  C         20.6700   37.5950  129.1390 C.2    76  HIS76       0.2264
      4  O         21.8660   37.2780  129.1380 O.2    76  HIS76      -0.2867
      5  CB        18.9040   35.8820  128.6750 C.3    76  HIS76       0.0745
      6  CG        18.3060   34.6040  129.1800 C.ar   76  HIS76       0.0817
      7  ND1       17.0640   34.5500  129.7580 N.ar   76  HIS76      -0.2268
      8  CD2       18.8020   33.3410  129.2260 C.ar   76  HIS76       0.1154
      9  CE1       16.8100   33.2980  130.1290 C.ar   76  HIS76       0.1986
     10  NE2       17.8600   32.5510  129.8340 N.ar   76  HIS76      -0.2212
     11  N         22.9960   38.9840  131.8320 N.3    79  THR79      -0.1203
     12  CA        23.9340   37.9800  132.3140 C.3    79  THR79       0.1994
     13  C         25.2110   37.9230  131.4590 C.2    79  THR79       0.2617
     14  O         26.2890   37.6290  131.9370 O.2    79  THR79      -0.2717
     15  CB        23.2390   36.5900  132.4390 C.3    79  THR79       0.1784
     16  OG1       22.2070   36.6810  133.4280 O.3    79  THR79      -0.2211
     17  CG2       24.2370   35.5010  132.8600 C.3    79  THR79       0.0376
     18  N         25.0580   38.2320  130.1840 N.am   80  LEU80      -0.1979
     19  CA        26.1660   38.2620  129.2450 C.3    80  LEU80       0.1596
     20  C         27.0330   39.5160  129.3670 C.2    80  LEU80       0.2287
     21  O         27.9950   39.6690  128.6320 O.2    80  LEU80      -0.2864
     22  CB        25.6050   38.1130  127.8260 C.3    80  LEU80       0.0297
     23  CG        25.1610   36.6760  127.5260 C.3    80  LEU80       0.0022
     24  CD1       24.3250   36.6570  126.2620 C.3    80  LEU80       0.0001
     25  CD2       26.3560   35.7380  127.3880 C.3    80  LEU80       0.0001
     26  N         26.8170   24.5390  116.1020 N.3   153  LEU153     -0.1245
     27  CA        26.6570   24.6110  117.5560 C.3   153  LEU153      0.1561
     28  C         27.9920   24.8720  118.2900 C.2   153  LEU153      0.2260
     29  O         28.0170   25.6350  119.2650 O.2   153  LEU153     -0.2867
     30  CB        25.9740   23.3420  118.1060 C.3   153  LEU153      0.0270
     31  CG        24.5140   23.1930  117.6970 C.3   153  LEU153      0.0019
     32  CD1       23.9990   21.7770  117.9580 C.3   153  LEU153      0.0001
     33  CD2       23.6730   24.2160  118.4520 C.3   153  LEU153      0.0001
     34  N         28.7380   28.4050  117.9940 N.3   156  GLY156     -0.1210
     35  CA        27.8910   29.0840  119.0050 C.3   156  GLY156      0.1956
     36  C         28.4500   29.1330  120.4200 C.2   156  GLY156      0.2611
     37  O         28.3930   30.1640  121.0860 O.2   156  GLY156     -0.2717
     38  N         28.9410   27.9940  120.8820 N.am  157  ALA157     -0.1979
     39  CA        29.5700   27.8710  122.1910 C.3   157  ALA157      0.1597
     40  C         30.8200   28.7540  122.2940 C.2   157  ALA157      0.2287
     41  O         31.1040   29.3720  123.3560 O.2   157  ALA157     -0.2864
     42  CB        29.9420   26.3980  122.4470 C.3   157  ALA157      0.0319
     43  N         31.1450   31.4410  120.7140 N.3   159  LEU159     -0.1231
     44  CA        30.6850   32.8410  120.7470 C.3   159  LEU159      0.1693
     45  C         30.5510   33.3320  122.2000 C.2   159  LEU159      0.2591
     46  O         30.9710   34.4670  122.5180 O.2   159  LEU159     -0.2718
     47  CB        29.3780   33.0570  119.9640 C.3   159  LEU159      0.0284
     48  CG        29.4980   32.9480  118.4420 C.3   159  LEU159      0.0019
     49  CD1       28.1260   33.2110  117.7970 C.3   159  LEU159      0.0001
     50  CD2       30.5710   33.8860  117.8920 C.3   159  LEU159      0.0001
     51  N         30.0070   32.4690  123.0580 N.am  160  LEU160     -0.1980
     52  CA        29.9370   32.7580  124.4530 C.3   160  LEU160      0.1596
     53  C         31.3760   32.9510  124.9800 C.2   160  LEU160      0.2287
     54  O         31.6320   33.8750  125.7230 O.2   160  LEU160     -0.2864
     55  CB        29.2430   31.6230  125.2230 C.3   160  LEU160      0.0297
     56  CG        29.2130   31.8280  126.7560 C.3   160  LEU160      0.0022
     57  CD1       28.3230   32.9750  127.1320 C.3   160  LEU160      0.0001
     58  CD2       28.7540   30.5790  127.4550 C.3   160  LEU160      0.0001
     59  N         31.3560   38.7950  131.2860 N.3   170  LEU170     -0.1245
     60  CA        30.0410   38.3080  131.6960 C.3   170  LEU170      0.1561
     61  C         29.7120   38.9100  133.0510 C.2   170  LEU170      0.2260
     62  O         30.6340   39.3230  133.7910 O.2   170  LEU170     -0.2867
     63  CB        29.9990   36.7660  131.7840 C.3   170  LEU170      0.0270
     64  CG        30.4980   35.9960  130.5450 C.3   170  LEU170      0.0019
     65  CD1       30.6780   34.5130  130.8360 C.3   170  LEU170      0.0001
     66  CD2       29.5240   36.1640  129.4220 C.3   170  LEU170      0.0001
     67  N         30.3060   16.4680  135.2510 N.3   198  LEU198     -0.1245
     68  CA        29.4200   15.5020  134.5970 C.3   198  LEU198      0.1561
     69  C         29.3200   14.2010  135.3340 C.2   198  LEU198      0.2260
     70  O         28.3770   13.4720  135.1230 O.2   198  LEU198     -0.2867
     71  CB        29.9190   15.1830  133.2130 C.3   198  LEU198      0.0270
     72  CG        29.7600   16.1710  132.0930 C.3   198  LEU198      0.0019
     73  CD1       30.4140   15.5140  130.8670 C.3   198  LEU198      0.0001
     74  CD2       28.3030   16.4520  131.8230 C.3   198  LEU198      0.0001
     75  N         25.2670   17.7850  140.3440 N.3   208  TRP208     -0.1227
     76  CA        25.6550   17.4920  138.9760 C.3   208  TRP208      0.1737
     77  C         26.1470   18.8300  138.3300 C.2   208  TRP208      0.2595
     78  O         26.8210   19.6510  139.0080 O.2   208  TRP208     -0.2718
     79  CB        24.4500   16.8540  138.2480 C.3   208  TRP208      0.0564
     80  CG        24.8470   16.1990  136.9120 C.ar  208  TRP208      0.0003
     81  CD1       25.9710   15.4390  136.6650 C.ar  208  TRP208      0.0946
     82  CD2       24.1900   16.3700  135.6520 C.ar  208  TRP208      0.0152
     83  NE1       26.0070   15.0970  135.3430 N.ar  208  TRP208     -0.2442
     84  CE2       24.9280   15.6440  134.6990 C.ar  208  TRP208      0.0810
     85  CE3       23.0200   17.0550  135.2430 C.ar  208  TRP208      0.0012
     86  CZ2       24.5580   15.5670  133.3620 C.ar  208  TRP208      0.0191
     87  CZ3       22.6430   16.9950  133.9090 C.ar  208  TRP208      0.0001
     88  CH2       23.4090   16.2340  132.9760 C.ar  208  TRP208      0.0015
     89  N         25.7900   19.1020  137.0870 N.am  209  ILE209     -0.1980
     90  CA        26.2750   20.2960  136.4000 C.3   209  ILE209      0.1595
     91  C         25.6230   21.5670  136.8920 C.2   209  ILE209      0.2287
     92  O         26.1620   22.6570  136.6840 O.2   209  ILE209     -0.2864
     93  CB        26.1980   20.1900  134.8360 C.3   209  ILE209      0.0276
     94  CG1       24.8000   20.1580  134.3030 C.3   209  ILE209      0.0022
     95  CG2       27.0010   18.9670  134.3410 C.3   209  ILE209      0.0022
     96  CD1       24.7250   20.1590  132.8000 C.3   209  ILE209      0.0001
     97  N         27.6100   24.2850  138.9490 N.3   212  VAL212     -0.1245
     98  CA        28.6490   25.1480  138.4630 C.3   212  VAL212      0.1561
     99  C         28.5190   26.5400  139.0740 C.2   212  VAL212      0.2260
    100  O         27.4550   27.1840  139.0020 O.2   212  VAL212     -0.2867
    101  CB        28.7370   25.1950  136.9130 C.3   212  VAL212      0.0252
    102  CG1       27.4990   25.7950  136.2930 C.3   212  VAL212      0.0019
    103  CG2       29.9860   25.9290  136.4670 C.3   212  VAL212      0.0019
    104  N         32.5190   31.5960  136.9140 N.3   215  LEU215     -0.1245
    105  CA        32.5600   31.7960  135.4760 C.3   215  LEU215      0.1561
    106  C         33.7490   31.1420  134.7740 C.2   215  LEU215      0.2260
    107  O         33.6490   30.8170  133.6050 O.2   215  LEU215     -0.2867
    108  CB        32.4260   33.2500  135.1540 C.3   215  LEU215      0.0270
    109  CG        31.1140   33.9160  135.5920 C.3   215  LEU215      0.0019
    110  CD1       31.2690   35.3780  135.2900 C.3   215  LEU215      0.0001
    111  CD2       29.8930   33.3640  134.8910 C.3   215  LEU215      0.0001
    112  N         32.4490   27.8530  133.7770 N.3   218  VAL218     -0.1245
    113  CA        31.4560   28.0140  132.7150 C.3   218  VAL218      0.1561
    114  C         32.1670   28.2140  131.3810 C.2   218  VAL218      0.2260
    115  O         31.9260   27.4820  130.3990 O.2   218  VAL218     -0.2867
    116  CB        30.4970   29.1750  133.0090 C.3   218  VAL218      0.0252
    117  CG1       29.6000   29.5000  131.7930 C.3   218  VAL218      0.0019
    118  CG2       29.6520   28.8610  134.2730 C.3   218  VAL218      0.0019
    119  N         32.6030   25.7720  128.0050 N.3   222  HIS222     -0.1241
    120  CA        32.1680   26.0920  126.6410 C.3   222  HIS222      0.1621
    121  C         33.3240   25.9940  125.6340 C.2   222  HIS222      0.2264
    122  O         33.0890   25.7200  124.4560 O.2   222  HIS222     -0.2867
    123  CB        31.4300   27.4450  126.5940 C.3   222  HIS222      0.0745
    124  CG        30.0130   27.3620  127.0740 C.ar  222  HIS222      0.0817
    125  ND1       29.6730   27.4990  128.3980 N.ar  222  HIS222     -0.2268
    126  CD2       28.8620   27.0880  126.4050 C.ar  222  HIS222      0.1154
    127  CE1       28.3550   27.3490  128.5140 C.ar  222  HIS222      0.1986
    128  NE2       27.8270   27.1070  127.3140 N.ar  222  HIS222     -0.2212
    129  N         33.1140   22.1810  124.9770 N.3   225  ILE225     -0.1245
    130  CA        31.9340   21.8070  124.1980 C.3   225  ILE225      0.1561
    131  C         32.0400   22.3220  122.7600 C.2   225  ILE225      0.2260
    132  O         31.5960   21.6910  121.7870 O.2   225  ILE225     -0.2867
    133  CB        30.6630   22.2760  124.9210 C.3   225  ILE225      0.0252
    134  CG1       30.1510   21.1430  125.7960 C.3   225  ILE225      0.0019
    135  CG2       29.5580   22.7170  123.9540 C.3   225  ILE225      0.0019
    136  CD1       29.7650   19.8390  125.0720 C.3   225  ILE225      0.0001
    137  N         32.1420   19.6600  119.7900 N.3   229  CYS229     -0.1235
    138  CA        31.1340   19.7190  118.7500 C.3   229  CYS229      0.1677
    139  C         31.7200   19.9020  117.3370 C.2   229  CYS229      0.2270
    140  O         31.2540   19.2560  116.3950 O.2   229  CYS229     -0.2867
    141  CB        30.1440   20.8470  119.0700 C.3   229  CYS229      0.0956
    142  SG        28.9780   20.4350  120.3620 S.3   229  CYS229     -0.0801
    143  N         31.5570   13.2450  111.8470 N.3   236  HIS236     -0.1241
    144  CA        30.3240   12.7720  111.2110 C.3   236  HIS236      0.1621
    145  C         30.2240   13.0630  109.6620 C.2   236  HIS236      0.2264
    146  O         29.5380   12.3420  108.9130 O.2   236  HIS236     -0.2867
    147  CB        29.0660   13.1710  112.0320 C.3   236  HIS236      0.0745
    148  CG        28.8470   12.3090  113.2550 C.ar  236  HIS236      0.0817
    149  ND1       28.7310   10.9410  113.1720 N.ar  236  HIS236     -0.2268
    150  CD2       28.7550   12.6080  114.5820 C.ar  236  HIS236      0.1154
    151  CE1       28.5640   10.4290  114.3880 C.ar  236  HIS236      0.1986
    152  NE2       28.5350   11.4190  115.2740 N.ar  236  HIS236     -0.2212
    153  N         19.7810    1.1250  115.9040 N.3   249  PHE249     -0.1241
    154  CA        18.8050    2.1790  115.6870 C.3   249  PHE249      0.1605
    155  C         17.8050    1.9010  114.6050 C.2   249  PHE249      0.2264
    156  O         17.9940    1.0270  113.7640 O.2   249  PHE249     -0.2867
    157  CB        19.5400    3.4890  115.3580 C.3   249  PHE249      0.0534
    158  CG        20.3540    4.0200  116.4800 C.ar  249  PHE249     -0.0203
    159  CD1       19.7500    4.7400  117.5120 C.ar  249  PHE249     -0.0042
    160  CD2       21.7260    3.8180  116.5310 C.ar  249  PHE249     -0.0042
    161  CE1       20.5040    5.2380  118.5870 C.ar  249  PHE249     -0.0003
    162  CE2       22.4890    4.2950  117.6260 C.ar  249  PHE249     -0.0003
    163  CZ        21.8620    5.0160  118.6550 C.ar  249  PHE249     -0.0000
    164  N         16.0510   13.8930  123.7180 N.3   263  ALA263     -0.1245
    165  CA        17.1810   14.7860  124.0850 C.3   263  ALA263      0.1562
    166  C         16.6560   16.1520  124.5570 C.2   263  ALA263      0.2260
    167  O         17.1220   16.6750  125.6010 O.2   263  ALA263     -0.2867
    168  CB        18.1240   14.9850  122.9050 C.3   263  ALA263      0.0290
    169  N         15.0870   15.8650  128.0820 N.3   266  MET266     -0.1230
    170  CA        16.0970   15.8220  129.0820 C.3   266  MET266      0.1702
    171  C         16.6680   17.2520  129.3500 C.2   266  MET266      0.2592
    172  O         16.7890   17.6840  130.4730 O.2   266  MET266     -0.2718
    173  CB        17.1470   14.7840  128.6440 C.3   266  MET266      0.0401
    174  CG        18.4170   14.7230  129.4350 C.3   266  MET266      0.0596
    175  SD        19.6520   13.5160  128.8040 S.3   266  MET266     -0.1393
    176  CE        18.6830   12.0320  129.0130 C.3   266  MET266      0.0692
    177  N         16.9570   17.9760  128.2830 N.am  267  MET267     -0.1979
    178  CA        17.5190   19.2920  128.3920 C.3   267  MET267      0.1605
    179  C         16.5260   20.2080  129.1180 C.2   267  MET267      0.2287
    180  O         16.9130   20.9620  129.9960 O.2   267  MET267     -0.2864
    181  CB        17.8760   19.8080  127.0020 C.3   267  MET267      0.0413
    182  CG        19.1420   19.1940  126.3960 C.3   267  MET267      0.0598
    183  SD        19.6080   19.8490  124.7730 S.3   267  MET267     -0.1393
    184  CE        19.4890   18.5120  123.7140 C.3   267  MET267      0.0692
    185  N         16.6570   19.5200  132.7690 N.3   270  ILE270     -0.1231
    186  CA        17.9130   20.0660  133.2560 C.3   270  ILE270      0.1692
    187  C         17.8250   21.5810  133.4100 C.2   270  ILE270      0.2591
    188  O         18.2850   22.1290  134.4360 O.2   270  ILE270     -0.2718
    189  CB        19.0850   19.7000  132.3530 C.3   270  ILE270      0.0266
    190  CG1       19.3660   18.1940  132.4390 C.3   270  ILE270      0.0019
    191  CG2       20.3390   20.4620  132.7430 C.3   270  ILE270      0.0020
    192  CD1       20.2390   17.6430  131.3200 C.3   270  ILE270      0.0001
    193  N         17.2060   22.2480  132.4240 N.am  271  ALA271     -0.1980
    194  CA        17.0280   23.7070  132.4920 C.3   271  ALA271      0.1597
    195  C         16.1590   24.1080  133.6530 C.2   271  ALA271      0.2287
    196  O         16.4580   25.1010  134.3010 O.2   271  ALA271     -0.2864
    197  CB        16.4530   24.2810  131.2010 C.3   271  ALA271      0.0319
    198  N         18.3620   23.9750  136.6100 N.3   274  PHE274     -0.1241
    199  CA        19.3560   25.0670  136.5130 C.3   274  PHE274      0.1605
    200  C         18.7550   26.4000  137.0430 C.2   274  PHE274      0.2264
    201  O         19.3590   27.0640  137.9050 O.2   274  PHE274     -0.2867
    202  CB        19.8890   25.2550  135.0860 C.3   274  PHE274      0.0534
    203  CG        21.3320   24.9070  134.9120 C.ar  274  PHE274     -0.0203
    204  CD1       22.3070   25.7310  135.4250 C.ar  274  PHE274     -0.0042
    205  CD2       21.7240   23.7710  134.1770 C.ar  274  PHE274     -0.0042
    206  CE1       23.6770   25.4600  135.2340 C.ar  274  PHE274     -0.0003
    207  CE2       23.0800   23.4780  133.9840 C.ar  274  PHE274     -0.0003
    208  CZ        24.0670   24.3200  134.5270 C.ar  274  PHE274     -0.0000
    209  N         24.9980   31.3510  136.7070 N.3   281  VAL281     -0.1231
    210  CA        24.5280   31.6710  135.3730 C.3   281  VAL281      0.1692
    211  C         23.0870   32.1640  135.3080 C.2   281  VAL281      0.2592
    212  O         22.6540   32.5990  134.2410 O.2   281  VAL281     -0.2718
    213  CB        24.7400   30.5180  134.3960 C.3   281  VAL281      0.0266
    214  CG1       26.2410   30.2280  134.3240 C.3   281  VAL281      0.0020
    215  CG2       23.9000   29.2630  134.7430 C.3   281  VAL281      0.0020
    216  N         22.3630   32.0800  136.4360 N.am  282  TYR282     -0.1976
    217  CA        21.0900   32.7990  136.6360 C.3   282  TYR282      0.1639
    218  C         21.2490   33.7110  137.8580 C.2   282  TYR282      0.2290
    219  O         20.8380   33.3490  138.9800 O.2   282  TYR282     -0.2864
    220  CB        19.8890   31.8510  136.8030 C.3   282  TYR282      0.0560
    221  CG        19.7030   31.0020  135.5780 C.ar  282  TYR282     -0.0198
    222  CD1       18.8500   31.3940  134.5440 C.ar  282  TYR282     -0.0009
    223  CD2       20.3650   29.7800  135.4380 C.ar  282  TYR282     -0.0009
    224  CE1       18.6750   30.6040  133.3970 C.ar  282  TYR282      0.0417
    225  CE2       20.1740   28.9970  134.2840 C.ar  282  TYR282      0.0417
    226  CZ        19.3350   29.4140  133.2840 C.ar  282  TYR282      0.1957
    227  OH        19.1610   28.6560  132.1490 O.3   282  TYR282     -0.2866
@<TRIPOS>BOND
     1   146   145    2
     2   145   144    1
     3   144   143    1
     4   144   147    1
     5   147   148    1
     6   149   148   ar
     7   149   151   ar
     8   148   150   ar
     9   156   155    2
    10   151   152   ar
    11   150   152   ar
    12   155   154    1
    13   157   154    1
    14   157   158    1
    15   154   153    1
    16    26    27    1
    17   140   139    2
    18   158   160   ar
    19   158   159   ar
    20   160   162   ar
    21   139   138    1
    22   159   161   ar
    23    27    30    1
    24    27    28    1
    25   162   163   ar
    26    31    32    1
    27    31    30    1
    28    31    33    1
    29    49    48    1
    30    50    48    1
    31    34    35    1
    32    28    29    2
    33    48    47    1
    34   161   163   ar
    35   138   141    1
    36   138   137    1
    37    35    36    1
    38   141   142    1
    39    47    44    1
    40    36    38   am
    41    36    37    2
    42    43    44    1
    43    44    45    1
    44    38    39    1
    45   132   131    2
    46    39    40    1
    47    39    42    1
    48    45    46    2
    49    45    51   am
    50    40    41    2
    51   131   130    1
    52   168   165    1
    53    51    52    1
    54   184   183    1
    55   164   165    1
    56   135   133    1
    57   165   166    1
    58   130   133    1
    59   130   129    1
    60    52    53    1
    61    52    55    1
    62   122   121    2
    63   166   167    2
    64   183   182    1
    65   133   134    1
    66    53    54    2
    67   136   134    1
    68    55    56    1
    69   121   120    1
    70    24    23    1
    71   182   181    1
    72   126   124   ar
    73   126   128   ar
    74   123   120    1
    75   123   124    1
    76   120   119    1
    77    56    57    1
    78    56    58    1
    79   181   178    1
    80   124   125   ar
    81   128   127   ar
    82    25    23    1
    83    23    22    1
    84    22    19    1
    85   169   170    1
    86   177   178    1
    87   177   171   am
    88   178   179    1
    89   125   127   ar
    90    21    20    2
    91   173   170    1
    92   173   174    1
    93     5     6    1
    94     5     2    1
    95   175   176    1
    96   175   174    1
    97   170   171    1
    98   179   180    2
    99     4     3    2
   100     3     2    1
   101     6     8   ar
   102     6     7   ar
   103     8    10   ar
   104    19    20    1
   105    19    18    1
   106   171   172    2
   107    66    64    1
   108     7     9   ar
   109     2     1    1
   110    10     9   ar
   111    18    13   am
   112   115   114    2
   113    64    65    1
   114    64    63    1
   115    73    72    1
   116   197   194    1
   117    59    60    1
   118   192   190    1
   119   114   113    1
   120    13    14    2
   121    13    12    1
   122    60    63    1
   123    60    61    1
   124   117   116    1
   125    74    72    1
   126    11    12    1
   127    72    71    1
   128   227   226    1
   129    12    15    1
   130   189   190    1
   131   189   191    1
   132   189   186    1
   133   193   194    1
   134   193   187   am
   135    15    17    1
   136    15    16    1
   137   194   195    1
   138   113   116    1
   139   113   112    1
   140   185   186    1
   141    96    94    1
   142    88    86   ar
   143    88    87   ar
   144   116   118    1
   145    61    62    2
   146    71    68    1
   147   186   187    1
   148   226   224   ar
   149   226   225   ar
   150    86    84   ar
   151   224   222   ar
   152   187   188    2
   153   107   106    2
   154   195   196    2
   155    87    85   ar
   156   207   205   ar
   157   207   208   ar
   158   205   203   ar
   159   212   211    2
   160   225   223   ar
   161    94    93    1
   162   214   213    1
   163    95    93    1
   164   213   215    1
   165   213   210    1
   166   208   206   ar
   167   222   221   ar
   168    68    67    1
   169    68    69    1
   170    84    83   ar
   171    84    82   ar
   172   106   105    1
   173    93    90    1
   174   111   109    1
   175   203   202    1
   176   203   204   ar
   177   202   199    1
   178    70    69    2
   179   108   105    1
   180   108   109    1
   181   206   204   ar
   182    85    82   ar
   183   110   109    1
   184   211   210    1
   185   211   216   am
   186    83    81   ar
   187   210   209    1
   188   223   221   ar
   189   105   104    1
   190   221   220    1
   191    82    80   ar
   192   102   101    1
   193    90    91    1
   194    90    89    1
   195   216   217    1
   196   103   101    1
   197   199   198    1
   198   199   200    1
   199   217   220    1
   200   217   218    1
   201    81    80   ar
   202    92    91    2
   203    80    79    1
   204   101    98    1
   205   200   201    2
   206    89    77   am
   207   218   219    2
   208    79    76    1
   209    77    76    1
   210    77    78    2
   211    98    97    1
   212    98    99    1
   213    76    75    1
   214   100    99    2
