@<TRIPOS>MOLECULE
tmp/5v2cU32.pdb
 91 89 0 0 0
SMALL
GASTEIGER

@<TRIPOS>ATOM
      1  N        -34.7700  -10.1980  174.1290 N.3    38  LEU38      -0.1245
      2  CA       -34.1770  -10.9740  175.2300 C.3    38  LEU38       0.1561
      3  C        -32.7800  -10.4740  175.5600 C.2    38  LEU38       0.2260
      4  O        -32.4330  -10.3430  176.7430 O.2    38  LEU38      -0.2867
      5  CB       -34.1660  -12.4720  174.9090 C.3    38  LEU38       0.0270
      6  CG       -35.5520  -13.1190  174.8050 C.3    38  LEU38       0.0019
      7  CD1      -35.3580  -14.4940  174.1860 C.3    38  LEU38       0.0001
      8  CD2      -36.2510  -13.1750  176.1670 C.3    38  LEU38       0.0001
      9  N        -33.3340   -7.1680  177.4970 N.3    41  LEU41      -0.1245
     10  CA       -33.6720   -7.4750  178.8650 C.3    41  LEU41       0.1561
     11  C        -32.5110   -8.0350  179.6860 C.2    41  LEU41       0.2260
     12  O        -32.4210   -7.7600  180.8720 O.2    41  LEU41      -0.2867
     13  CB       -34.8600   -8.4300  178.9200 C.3    41  LEU41       0.0270
     14  CG       -36.1700   -7.8470  178.4370 C.3    41  LEU41       0.0019
     15  CD1      -37.1800   -8.9740  178.1030 C.3    41  LEU41       0.0001
     16  CD2      -36.7320   -6.8980  179.4950 C.3    41  LEU41       0.0001
     17  N        -30.4530   -4.5600  180.1550 N.3    44  PHE44      -0.1241
     18  CA       -31.0930   -3.2800  180.5620 C.3    44  PHE44       0.1605
     19  C        -31.1460   -3.1560  182.0780 C.2    44  PHE44       0.2264
     20  O        -31.6100   -4.0520  182.7700 O.2    44  PHE44      -0.2867
     21  CB       -32.4820   -3.2770  180.0310 C.3    44  PHE44       0.0534
     22  CG       -33.2980   -2.0640  180.4280 C.ar   44  PHE44      -0.0203
     23  CD1      -32.8730   -0.7820  180.0610 C.ar   44  PHE44      -0.0042
     24  CD2      -34.4320   -2.2050  181.2060 C.ar   44  PHE44      -0.0042
     25  CE1      -33.6250    0.3460  180.4330 C.ar   44  PHE44      -0.0003
     26  CE2      -35.1790   -1.1050  181.5370 C.ar   44  PHE44      -0.0003
     27  CZ       -34.7720    0.1610  181.1570 C.ar   44  PHE44      -0.0000
     28  N        -33.0250   -1.2320  184.8620 N.3    46  PRO46      -0.2116
     29  CA       -34.2340   -0.4430  185.0510 C.3    46  PRO46       0.1372
     30  C        -34.2060    0.4820  186.2950 C.2    46  PRO46       0.2244
     31  O        -35.2360    1.1040  186.5810 O.2    46  PRO46      -0.2868
     32  CB       -35.2910   -1.5380  185.2110 C.3    46  PRO46       0.0268
     33  CG       -34.5790   -2.6340  185.9070 C.3    46  PRO46       0.0207
     34  CD       -33.1700   -2.6090  185.4030 C.3    46  PRO46       0.0892
     35  N        -42.0310   -5.3940  183.3590 N.3    73  SER73      -0.1202
     36  CA       -41.4260   -6.7070  183.3910 C.3    73  SER73       0.2020
     37  C        -42.1220   -7.6280  184.3890 C.2    73  SER73       0.2619
     38  O        -42.6490   -7.1830  185.4210 O.2    73  SER73      -0.2717
     39  CB       -39.9550   -6.5900  183.7980 C.3    73  SER73       0.2103
     40  OG       -39.3860   -7.8220  184.1690 O.3    73  SER73      -0.2182
     41  N        -42.0710   -8.9250  184.0840 N.am   74  TRP74      -0.1961
     42  CA       -42.5440   -9.9220  185.0190 C.3    74  TRP74       0.1771
     43  C        -41.8370   -9.8670  186.3470 C.2    74  TRP74       0.2620
     44  O        -42.3740  -10.3130  187.3440 O.2    74  TRP74      -0.2715
     45  CB       -42.4150  -11.3390  184.4660 C.3    74  TRP74       0.0590
     46  CG       -43.3370  -11.7320  183.3200 C.ar   74  TRP74       0.0006
     47  CD1      -44.5600  -11.2120  183.0370 C.ar   74  TRP74       0.0946
     48  CD2      -43.0820  -12.7560  182.3600 C.ar   74  TRP74       0.0152
     49  NE1      -45.0660  -11.8270  181.9320 N.ar   74  TRP74      -0.2442
     50  CE2      -44.1780  -12.7920  181.5070 C.ar   74  TRP74       0.0810
     51  CE3      -42.0200  -13.6520  182.1530 C.ar   74  TRP74       0.0012
     52  CZ2      -44.2560  -13.6540  180.4350 C.ar   74  TRP74       0.0191
     53  CZ3      -42.1120  -14.5650  181.0900 C.ar   74  TRP74       0.0001
     54  CH2      -43.2090  -14.5330  180.2270 C.ar   74  TRP74       0.0015
     55  N        -40.6310   -9.3340  186.3420 N.am   75  SER75      -0.1950
     56  CA       -39.8200   -9.1310  187.5170 C.3    75  SER75       0.1924
     57  C        -40.3430   -8.0500  188.4430 C.2    75  SER75       0.2314
     58  O        -39.8490   -7.8840  189.5720 O.2    75  SER75      -0.2863
     59  CB       -38.3970   -8.7840  187.0910 C.3    75  SER75       0.2116
     60  OG       -37.5930   -8.6910  188.2430 O.3    75  SER75      -0.2180
     61  N        -40.6600   -4.5250  187.7880 N.3    77  TRP77      -0.1241
     62  CA       -40.3560   -3.1530  187.4400 C.3    77  TRP77       0.1605
     63  C        -41.1430   -2.6140  186.2420 C.2    77  TRP77       0.2264
     64  O        -41.7040   -3.4060  185.4460 O.2    77  TRP77      -0.2867
     65  CB       -38.8630   -2.9060  187.2380 C.3    77  TRP77       0.0550
     66  CG       -38.2020   -3.7220  186.2110 C.ar   77  TRP77       0.0003
     67  CD1      -37.5180   -4.8490  186.4490 C.ar   77  TRP77       0.0946
     68  CD2      -38.1660   -3.5230  184.8010 C.ar   77  TRP77       0.0152
     69  NE1      -37.0190   -5.3670  185.3160 N.ar   77  TRP77      -0.2442
     70  CE2      -37.3810   -4.5730  184.2680 C.ar   77  TRP77       0.0810
     71  CE3      -38.6090   -2.5330  183.9460 C.ar   77  TRP77       0.0012
     72  CZ2      -37.1040   -4.6970  182.9310 C.ar   77  TRP77       0.0191
     73  CZ3      -38.3170   -2.6510  182.5870 C.ar   77  TRP77       0.0001
     74  CH2      -37.5850   -3.7340  182.0990 C.ar   77  TRP77       0.0015
     75  N        -41.0160   -9.5450  178.5600 N.3    93  GLU93      -0.1245
     76  CA       -40.6540  -10.9670  178.4070 C.3    93  GLU93       0.1567
     77  C        -41.7370  -11.7090  177.6090 C.2    93  GLU93       0.2260
     78  O        -41.4100  -12.5340  176.7280 O.2    93  GLU93      -0.2867
     79  CB       -40.4290  -11.6700  179.7520 C.3    93  GLU93       0.0388
     80  CG       -39.3600  -11.0250  180.5730 C.3    93  GLU93       0.1160
     81  CD       -39.7910   -9.8440  181.4590 C.2    93  GLU93       0.3649
     82  OE1      -41.0360   -9.5460  181.5610 O.co2  93  GLU93      -0.2457
     83  OE2      -38.8780   -9.2150  181.9800 O.co2  93  GLU93      -0.2457
     84  N        -41.2700  -13.7260  174.2080 N.3    97  LEU97      -0.1245
     85  CA       -41.7080  -15.1360  174.1080 C.3    97  LEU97       0.1561
     86  C        -42.6490  -15.3640  172.9440 C.2    97  LEU97       0.2260
     87  O        -42.4950  -16.3300  172.1730 O.2    97  LEU97      -0.2867
     88  CB       -42.3110  -15.6180  175.4250 C.3    97  LEU97       0.0270
     89  CG       -42.8950  -17.0460  175.4550 C.3    97  LEU97       0.0019
     90  CD1      -41.7980  -18.0550  175.1060 C.3    97  LEU97       0.0001
     91  CD2      -43.4710  -17.3660  176.8290 C.3    97  LEU97       0.0001
@<TRIPOS>BOND
     1    87    86    2
     2    86    85    1
     3    85    84    1
     4    85    88    1
     5     1     2    1
     6     7     6    1
     7     6     5    1
     8     6     8    1
     9     5     2    1
    10    90    89    1
    11     2     3    1
    12    88    89    1
    13    89    91    1
    14     3     4    2
    15    78    77    2
    16     9    10    1
    17    77    76    1
    18    15    14    1
    19    76    75    1
    20    76    79    1
    21    14    13    1
    22    14    16    1
    23    10    13    1
    24    10    11    1
    25    11    12    2
    26    79    80    1
    27    21    22    1
    28    21    18    1
    29    23    22   ar
    30    23    25   ar
    31    17    18    1
    32    54    52   ar
    33    54    53   ar
    34    22    24   ar
    35    25    27   ar
    36    52    50   ar
    37    18    19    1
    38    80    81    1
    39    53    51   ar
    40    27    26   ar
    41    24    26   ar
    42    81    82   ar
    43    81    83   ar
    44    50    49   ar
    45    50    48   ar
    46    49    47   ar
    47    19    20    2
    48    74    73   ar
    49    74    72   ar
    50    51    48   ar
    51    48    46   ar
    52    73    71   ar
    53    72    70   ar
    54    47    46   ar
    55    46    45    1
    56    35    36    1
    57    36    39    1
    58    36    37    1
    59    39    40    1
    60    71    68   ar
    61    41    37   am
    62    41    42    1
    63    70    68   ar
    64    70    69   ar
    65    37    38    2
    66    45    42    1
    67    68    66   ar
    68    28    29    1
    69    28    34    1
    70    42    43    1
    71    29    32    1
    72    29    30    1
    73    32    33    1
    74    69    67   ar
    75    34    33    1
    76    64    63    2
    77    66    67   ar
    78    66    65    1
    79    63    62    1
    80    30    31    2
    81    55    43   am
    82    55    56    1
    83    43    44    2
    84    59    56    1
    85    59    60    1
    86    65    62    1
    87    62    61    1
    88    56    57    1
    89    57    58    2
