@<TRIPOS>MOLECULE
tmp/5v2cV07.pdb
 125 122 0 0 0
SMALL
GASTEIGER

@<TRIPOS>ATOM
      1  N         13.9080   49.6860  139.0720 N.3    64  LYS64      -0.1245
      2  CA        13.2900   48.5750  139.8090 C.3    64  LYS64       0.1561
      3  C         14.0780   47.3420  139.4550 C.2    64  LYS64       0.2260
      4  O         14.4650   47.2300  138.3060 O.2    64  LYS64      -0.2867
      5  CB        11.8920   48.1840  139.3190 C.3    64  LYS64       0.0271
      6  CG        10.7110   48.7410  140.0010 C.3    64  LYS64       0.0035
      7  CD         9.4430   48.2080  139.4090 C.3    64  LYS64       0.0206
      8  CE         8.5870   47.4380  140.4060 C.3    64  LYS64       0.1093
      9  NZ         7.2250   47.2740  139.8020 N.3    64  LYS64      -0.1314
     10  N         13.3510   41.4250  138.2930 N.3    67  TYR67      -0.1227
     11  CA        12.5340   40.3380  138.7900 C.3    67  TYR67       0.1736
     12  C         11.2350   40.8100  139.3560 C.2    67  TYR67       0.2595
     13  O         10.3390   40.0010  139.5610 O.2    67  TYR67      -0.2718
     14  CB        13.3010   39.4460  139.7930 C.3    67  TYR67       0.0548
     15  CG        13.9360   40.0970  140.9570 C.ar   67  TYR67      -0.0200
     16  CD1       13.1990   40.4610  142.0550 C.ar   67  TYR67      -0.0009
     17  CD2       15.2890   40.3250  140.9840 C.ar   67  TYR67      -0.0009
     18  CE1       13.8260   41.0540  143.1900 C.ar   67  TYR67       0.0417
     19  CE2       15.8930   40.8640  142.1110 C.ar   67  TYR67       0.0417
     20  CZ        15.1580   41.2400  143.2040 C.ar   67  TYR67       0.1957
     21  OH        15.8390   41.8160  144.2490 O.3    67  TYR67      -0.2866
     22  N         11.1100   42.1240  139.5730 N.am   68  GLU68      -0.1965
     23  CA         9.8370   42.6800  139.9370 C.3    68  GLU68       0.1733
     24  C          8.9380   43.0440  138.7410 C.2    68  GLU68       0.2616
     25  O          7.7850   43.4440  138.9280 O.2    68  GLU68      -0.2715
     26  CB        10.0240   43.9150  140.8990 C.3    68  GLU68       0.0429
     27  CG        10.4790   43.6050  142.3190 C.3    68  GLU68       0.1163
     28  CD        10.3970   44.8320  143.2300 C.2    68  GLU68       0.3649
     29  OE1        9.9550   45.8940  142.7560 O.co2  68  GLU68      -0.2457
     30  OE2       10.7670   44.7510  144.4230 O.co2  68  GLU68      -0.2457
     31  N          9.4110   42.8060  137.5280 N.am   69  GLN69      -0.1963
     32  CA         8.7750   43.3520  136.3370 C.3    69  GLN69       0.1733
     33  C          8.4670   42.2750  135.2710 C.2    69  GLN69       0.2616
     34  O          8.2160   42.5930  134.1450 O.2    69  GLN69      -0.2715
     35  CB         9.6980   44.4070  135.7740 C.3    69  GLN69       0.0408
     36  CG         9.9980   45.5420  136.7560 C.3    69  GLN69       0.0908
     37  CD        10.8440   46.6120  136.1060 C.2    69  GLN69       0.2608
     38  OE1       10.4140   47.2710  135.1440 O.2    69  GLN69      -0.2717
     39  NE2       12.0660   46.7630  136.5820 N.am   69  GLN69      -0.0878
     40  N          8.4550   41.0070  135.6560 N.am   70  GLY70      -0.1955
     41  CA         8.0290   39.9120  134.7580 C.3    70  GLY70       0.1869
     42  C          8.9220   39.7230  133.5560 C.2    70  GLY70       0.2309
     43  O          8.4430   39.3960  132.4950 O.2    70  GLY70      -0.2863
     44  N         -1.0680   31.9550  140.3170 N.3   389  LEU389     -0.1231
     45  CA        -1.0770   31.9570  138.8540 C.3   389  LEU389      0.1693
     46  C         -1.4430   33.3390  138.2990 C.2   389  LEU389      0.2592
     47  O         -0.9700   33.7300  137.2170 O.2   389  LEU389     -0.2718
     48  CB        -2.0690   30.9320  138.3410 C.3   389  LEU389      0.0284
     49  CG        -2.1240   30.6660  136.8150 C.3   389  LEU389      0.0019
     50  CD1       -0.7380   30.3930  136.2200 C.3   389  LEU389      0.0001
     51  CD2       -3.1170   29.5220  136.4960 C.3   389  LEU389      0.0001
     52  N         -2.2860   34.0700  139.0390 N.am  390  ASN390     -0.1960
     53  CA        -2.6150   35.4660  138.7180 C.3   390  ASN390      0.1819
     54  C         -1.6130   36.4860  139.2250 C.2   390  ASN390      0.2622
     55  O         -1.8860   37.6850  139.2060 O.2   390  ASN390     -0.2715
     56  CB        -4.0560   35.8200  139.1300 C.3   390  ASN390      0.1195
     57  CG        -4.3570   35.5530  140.6110 C.2   390  ASN390      0.2630
     58  OD1       -3.8730   34.5650  141.2180 O.2   390  ASN390     -0.2716
     59  ND2       -5.1980   36.4150  141.1910 N.am  390  ASN390     -0.0877
     60  N         -0.4360   36.0270  139.6280 N.am  391  SER391     -0.1950
     61  CA         0.6700   36.8640  140.0530 C.3   391  SER391      0.1924
     62  C          0.3820   37.7150  141.3410 C.2   391  SER391      0.2314
     63  O          0.7600   38.8990  141.4150 O.2   391  SER391     -0.2863
     64  CB         1.2120   37.6990  138.8690 C.3   391  SER391      0.2116
     65  OG         1.8250   36.8620  137.8620 O.3   391  SER391     -0.2180
     66  N          2.0520   42.4730  143.2550 N.3   403  ASN403     -0.1225
     67  CA         2.0270   41.8280  141.9340 C.3   403  ASN403      0.1785
     68  C          3.4080   41.2110  141.6480 C.2   403  ASN403      0.2597
     69  O          4.3410   41.9140  141.2070 O.2   403  ASN403     -0.2718
     70  CB         1.6180   42.9020  140.8980 C.3   403  ASN403      0.1169
     71  CG         1.1700   42.3650  139.5140 C.2   403  ASN403      0.2627
     72  OD1        0.9890   43.1730  138.6050 O.2   403  ASN403     -0.2716
     73  ND2        1.0160   41.0360  139.3350 N.am  403  ASN403     -0.0877
     74  N          3.5680   39.8960  141.9440 N.am  404  PHE404     -0.1962
     75  CA         4.8810   39.2320  141.8540 C.3   404  PHE404      0.1771
     76  C          4.7780   37.7080  141.6870 C.2   404  PHE404      0.2619
     77  O          4.1640   37.0320  142.5190 O.2   404  PHE404     -0.2715
     78  CB         5.7140   39.5250  143.0880 C.3   404  PHE404      0.0574
     79  CG         7.0570   38.8670  143.0920 C.ar  404  PHE404     -0.0200
     80  CD1        8.0370   39.2830  142.2690 C.ar  404  PHE404     -0.0042
     81  CD2        7.3120   37.8040  143.9460 C.ar  404  PHE404     -0.0042
     82  CE1        9.2970   38.6630  142.2630 C.ar  404  PHE404     -0.0003
     83  CE2        8.5490   37.1840  143.9940 C.ar  404  PHE404     -0.0003
     84  CZ         9.5740   37.6160  143.1590 C.ar  404  PHE404     -0.0000
     85  N          5.3230   37.1990  140.5890 N.am  405  VAL405     -0.1977
     86  CA         5.7750   35.8120  140.4950 C.3   405  VAL405      0.1596
     87  C          7.2260   35.8580  139.9760 C.2   405  VAL405      0.2287
     88  O          7.5120   36.4600  138.9440 O.2   405  VAL405     -0.2864
     89  CB         4.8760   34.9370  139.6020 C.3   405  VAL405      0.0276
     90  CG1        5.6350   33.7010  139.1720 C.3   405  VAL405      0.0022
     91  CG2        3.6430   34.4660  140.3680 C.3   405  VAL405      0.0022
     92  N          8.3680   31.1060  136.8730 N.3   410  TRP410     -0.1241
     93  CA         7.8690   31.0920  135.5050 C.3   410  TRP410      0.1605
     94  C          8.7230   30.1980  134.5850 C.2   410  TRP410      0.2264
     95  O          8.1780   29.4320  133.7740 O.2   410  TRP410     -0.2867
     96  CB         7.8230   32.5280  134.8840 C.3   410  TRP410      0.0550
     97  CG         6.7660   33.3640  135.3960 C.ar  410  TRP410      0.0003
     98  CD1        6.9230   34.5540  136.0090 C.ar  410  TRP410      0.0946
     99  CD2        5.3540   33.1360  135.3610 C.ar  410  TRP410      0.0152
    100  NE1        5.7370   35.0940  136.3250 N.ar  410  TRP410     -0.2442
    101  CE2        4.7440   34.2490  135.9820 C.ar  410  TRP410      0.0810
    102  CE3        4.5420   32.1200  134.8820 C.ar  410  TRP410      0.0012
    103  CZ2        3.3570   34.3710  136.1160 C.ar  410  TRP410      0.0191
    104  CZ3        3.1710   32.2330  135.0250 C.ar  410  TRP410      0.0001
    105  CH2        2.5900   33.3140  135.6310 C.ar  410  TRP410      0.0015
    106  N          8.6070   26.2600  135.7950 N.3   413  THR413     -0.1203
    107  CA         7.3060   25.6200  135.5390 C.3   413  THR413      0.1994
    108  C          7.1000   25.4000  134.0390 C.2   413  THR413      0.2618
    109  O          6.7530   24.3060  133.6160 O.2   413  THR413     -0.2717
    110  CB         6.1380   26.4490  136.1020 C.3   413  THR413      0.1784
    111  OG1        6.1670   27.7540  135.5240 O.3   413  THR413     -0.2211
    112  CG2        6.1470   26.5390  137.6300 C.3   413  THR413      0.0376
    113  N          7.3030   26.4520  133.2520 N.am  414  SER414     -0.1951
    114  CA         7.1900   26.3470  131.8290 C.3   414  SER414      0.1924
    115  C          8.0500   25.2120  131.2880 C.2   414  SER414      0.2314
    116  O          7.5760   24.4070  130.4790 O.2   414  SER414     -0.2863
    117  CB         7.6280   27.6590  131.1310 C.3   414  SER414      0.2116
    118  OG         8.9160   28.0890  131.4930 O.3   414  SER414     -0.2180
    119  N          6.8200   21.6440  132.1080 N.3   417  VAL417     -0.1245
    120  CA         5.6780   21.3290  131.2890 C.3   417  VAL417      0.1561
    121  C          6.1210   20.8990  129.8900 C.2   417  VAL417      0.2260
    122  O          5.7030   19.8630  129.3560 O.2   417  VAL417     -0.2867
    123  CB         4.6580   22.4960  131.2200 C.3   417  VAL417      0.0252
    124  CG1        3.5780   22.1890  130.1780 C.3   417  VAL417      0.0019
    125  CG2        4.0270   22.7290  132.5850 C.3   417  VAL417      0.0019
@<TRIPOS>BOND
     1   122   121    2
     2   121   120    1
     3   124   123    1
     4   116   115    2
     5   117   118    1
     6   117   114    1
     7   123   120    1
     8   123   125    1
     9   115   114    1
    10   120   119    1
    11   114   113    1
    12    43    42    2
    13   113   108   am
    14    42    41    1
    15   109   108    2
    16    95    94    2
    17   108   107    1
    18    34    33    2
    19    94    93    1
    20    41    40    1
    21   102   104   ar
    22   102    99   ar
    23    96    97    1
    24    96    93    1
    25   104   105   ar
    26    38    37    2
    27    33    40   am
    28    33    32    1
    29    99    97   ar
    30    99   101   ar
    31    97    98   ar
    32    93    92    1
    33   111   110    1
    34   107   106    1
    35   107   110    1
    36   105   103   ar
    37    35    32    1
    38    35    36    1
    39   101   103   ar
    40   101   100   ar
    41    98   100   ar
    42   110   112    1
    43    37    39   am
    44    37    36    1
    45    50    49    1
    46    32    31    1
    47    51    49    1
    48    49    48    1
    49    47    46    2
    50    31    24   am
    51    65    64    1
    52    10    11    1
    53    46    45    1
    54    46    52   am
    55     4     3    2
    56    48    45    1
    57    72    71    2
    58    53    52    1
    59    53    56    1
    60    53    54    1
    61    24    25    2
    62    24    23    1
    63    11    12    1
    64    11    14    1
    65    45    44    1
    66    64    61    1
    67    88    87    2
    68     1     2    1
    69    56    57    1
    70    90    89    1
    71    55    54    2
    72    54    60   am
    73     5     2    1
    74     5     6    1
    75    73    71   am
    76    12    13    2
    77    12    22   am
    78     7     6    1
    79     7     8    1
    80     3     2    1
    81    71    70    1
    82    22    23    1
    83    89    91    1
    84    89    86    1
    85    60    61    1
    86    14    15    1
    87     9     8    1
    88    23    26    1
    89    87    86    1
    90    61    62    1
    91    86    85    1
    92    85    76   am
    93    57    59   am
    94    57    58    2
    95    70    67    1
    96    26    27    1
    97    15    17   ar
    98    15    16   ar
    99    17    19   ar
   100    69    68    2
   101    62    63    2
   102    68    67    1
   103    68    74   am
   104    76    75    1
   105    76    77    2
   106    75    74    1
   107    75    78    1
   108    67    66    1
   109    16    18   ar
   110    19    20   ar
   111    82    80   ar
   112    82    84   ar
   113    80    79   ar
   114    27    28    1
   115    29    28   ar
   116    78    79    1
   117    79    81   ar
   118    84    83   ar
   119    18    20   ar
   120    20    21    1
   121    28    30   ar
   122    81    83   ar
