@<TRIPOS>MOLECULE
tmp/5v2cD06.pdb
 87 85 0 0 0
SMALL
GASTEIGER

@<TRIPOS>ATOM
      1  N          1.2970  -65.0810  181.8300 N.3    32  TYR32      -0.1227
      2  CA         1.3110  -65.9900  182.9480 C.3    32  TYR32       0.1736
      3  C          1.9700  -65.3610  184.1440 C.2    32  TYR32       0.2595
      4  O          1.4590  -65.4970  185.2700 O.2    32  TYR32      -0.2718
      5  CB         2.0140  -67.3110  182.5610 C.3    32  TYR32       0.0548
      6  CG         1.9570  -68.3700  183.6240 C.ar   32  TYR32      -0.0200
      7  CD1        0.7380  -68.8960  184.0690 C.ar   32  TYR32      -0.0009
      8  CD2        3.1090  -68.8630  184.1960 C.ar   32  TYR32      -0.0009
      9  CE1        0.7330  -69.8900  185.0620 C.ar   32  TYR32       0.0417
     10  CE2        3.0750  -69.8730  185.1580 C.ar   32  TYR32       0.0417
     11  CZ         1.9300  -70.3750  185.5820 C.ar   32  TYR32       0.1957
     12  OH         2.0060  -71.3490  186.5560 O.3    32  TYR32      -0.2866
     13  N          3.1080  -64.6740  183.9180 N.am   33  LEU33      -0.1980
     14  CA         3.8580  -64.0870  185.0400 C.3    33  LEU33       0.1596
     15  C          3.1240  -62.8810  185.6350 C.2    33  LEU33       0.2287
     16  O          3.1400  -62.6770  186.8650 O.2    33  LEU33      -0.2864
     17  CB         5.3170  -63.7320  184.6340 C.3    33  LEU33       0.0297
     18  CG         6.2150  -64.9410  184.3990 C.3    33  LEU33       0.0022
     19  CD1        7.6150  -64.4780  183.9640 C.3    33  LEU33       0.0001
     20  CD2        6.2670  -65.8220  185.6070 C.3    33  LEU33       0.0001
     21  N          0.2220  -64.2770  193.4330 N.3    40  THR40      -0.1218
     22  CA         1.2290  -64.4830  194.4540 C.3    40  THR40       0.1862
     23  C          1.2330  -63.3590  195.4800 C.2    40  THR40       0.2287
     24  O          1.2260  -63.5790  196.6890 O.2    40  THR40      -0.2866
     25  CB         2.6240  -64.6550  193.8230 C.3    40  THR40       0.1770
     26  OG1        2.5910  -65.7850  192.9320 O.3    40  THR40      -0.2211
     27  CG2        3.6610  -64.8420  194.8570 C.3    40  THR40       0.0375
     28  N          0.1260  -63.6270  199.4580 N.3    44  PHE44      -0.1241
     29  CA         1.1960  -63.7440  200.4310 C.3    44  PHE44       0.1605
     30  C          1.9620  -62.4900  200.8270 C.2    44  PHE44       0.2264
     31  O          2.6660  -62.5240  201.8520 O.2    44  PHE44      -0.2867
     32  CB         2.2450  -64.7610  199.9130 C.3    44  PHE44       0.0534
     33  CG         1.6920  -66.1520  199.7230 C.ar   44  PHE44      -0.0203
     34  CD1        1.2920  -66.8950  200.7970 C.ar   44  PHE44      -0.0042
     35  CD2        1.6190  -66.7090  198.4600 C.ar   44  PHE44      -0.0042
     36  CE1        0.7870  -68.1760  200.6130 C.ar   44  PHE44      -0.0003
     37  CE2        1.1400  -67.9910  198.2540 C.ar   44  PHE44      -0.0003
     38  CZ         0.7220  -68.7220  199.3370 C.ar   44  PHE44      -0.0000
     39  N         14.8900  -57.7570  190.0650 N.3    82  LEU82      -0.1245
     40  CA        15.3110  -58.6310  191.1610 C.3    82  LEU82       0.1561
     41  C         16.8210  -58.5400  191.3980 C.2    82  LEU82       0.2260
     42  O         17.2860  -58.4830  192.5440 O.2    82  LEU82      -0.2867
     43  CB        14.9170  -60.0860  190.8740 C.3    82  LEU82       0.0270
     44  CG        15.3900  -61.1170  191.8870 C.3    82  LEU82       0.0019
     45  CD1       14.9610  -60.8170  193.3270 C.3    82  LEU82       0.0001
     46  CD2       14.9280  -62.4420  191.3800 C.3    82  LEU82       0.0001
     47  N         19.3430  -59.1720  194.2420 N.3    89  GLY89      -0.1210
     48  CA        19.1380  -60.6210  194.1190 C.3    89  GLY89       0.1956
     49  C         18.3280  -61.3110  195.2430 C.2    89  GLY89       0.2612
     50  O         18.0370  -62.4810  195.1510 O.2    89  GLY89      -0.2717
     51  N         17.9590  -60.5820  196.2880 N.am   90  ASP90      -0.1959
     52  CA        17.2720  -61.1320  197.4300 C.3    90  ASP90       0.1840
     53  C         15.7580  -61.0540  197.1550 C.2    90  ASP90       0.2622
     54  O         15.1270  -59.9850  197.2160 O.2    90  ASP90      -0.2715
     55  CB        17.6990  -60.3590  198.6820 C.3    90  ASP90       0.1450
     56  CG        17.1150  -60.9250  199.9390 C.2    90  ASP90       0.3671
     57  OD1       15.9560  -61.3790  200.0200 O.co2  90  ASP90      -0.2456
     58  OD2       17.8220  -60.9080  200.8990 O.co2  90  ASP90      -0.2456
     59  N         15.1870  -62.2110  196.8700 N.am   91  PHE91      -0.1960
     60  CA        13.7750  -62.3390  196.5390 C.3    91  PHE91       0.1771
     61  C         12.8580  -61.8180  197.6370 C.2    91  PHE91       0.2620
     62  O         11.9060  -61.1140  197.3470 O.2    91  PHE91      -0.2715
     63  CB        13.4300  -63.7970  196.2600 C.3    91  PHE91       0.0574
     64  CG        11.9580  -64.0050  195.9970 C.ar   91  PHE91      -0.0200
     65  CD1       11.4510  -63.7920  194.7450 C.ar   91  PHE91      -0.0042
     66  CD2       11.0940  -64.3760  197.0240 C.ar   91  PHE91      -0.0042
     67  CE1       10.0930  -63.9440  194.4900 C.ar   91  PHE91      -0.0003
     68  CE2        9.7590  -64.5540  196.7780 C.ar   91  PHE91      -0.0003
     69  CZ         9.2500  -64.3310  195.5030 C.ar   91  PHE91      -0.0000
     70  N         13.1580  -62.1580  198.8910 N.am   92  THR92      -0.1937
     71  CA        12.3460  -61.7070  200.0070 C.3    92  THR92       0.2028
     72  C         12.3540  -60.1220  200.0700 C.2    92  THR92       0.2642
     73  O         11.3130  -59.4820  200.1560 O.2    92  THR92      -0.2714
     74  CB        12.8120  -62.3490  201.3370 C.3    92  THR92       0.1808
     75  OG1       12.7370  -63.7850  201.2340 O.3    92  THR92      -0.2208
     76  CG2       11.9480  -61.8850  202.5160 C.3    92  THR92       0.0379
     77  N         13.5540  -59.5290  200.0250 N.am   93  ARG93      -0.1977
     78  CA        13.7220  -58.1000  200.1240 C.3    93  ARG93       0.1597
     79  C         13.0100  -57.4490  198.9520 C.2    93  ARG93       0.2287
     80  O         12.2470  -56.4770  199.1220 O.2    93  ARG93      -0.2864
     81  CB        15.2010  -57.7290  200.1650 C.3    93  ARG93       0.0334
     82  CG        15.8600  -58.1530  201.4640 C.3    93  ARG93       0.0492
     83  CD        15.4670  -57.3230  202.7040 C.3    93  ARG93       0.2205
     84  NE        16.0910  -57.9520  203.8360 N.pl3  93  ARG93      -0.0865
     85  CZ        15.5010  -58.7930  204.6850 C.cat  93  ARG93       0.5346
     86  NH1       14.2170  -59.0730  204.6140 N.pl3  93  ARG93       0.1354
     87  NH2       16.2160  -59.3450  205.6740 N.pl3  93  ARG93       0.1354
@<TRIPOS>BOND
     1     1     2    1
     2     5     2    1
     3     5     6    1
     4     2     3    1
     5     6     7   ar
     6     6     8   ar
     7    13     3   am
     8    13    14    1
     9    19    18    1
    10     7     9   ar
    11     3     4    2
    12     8    10   ar
    13    18    17    1
    14    18    20    1
    15    17    14    1
    16    14    15    1
    17     9    11   ar
    18    10    11   ar
    19    11    12    1
    20    15    16    2
    21    39    40    1
    22    43    40    1
    23    43    44    1
    24    40    41    1
    25    46    44    1
    26    41    42    2
    27    44    45    1
    28    26    25    1
    29    21    22    1
    30    25    22    1
    31    25    27    1
    32    48    47    1
    33    48    49    1
    34    22    23    1
    35    67    65   ar
    36    67    69   ar
    37    65    64   ar
    38    50    49    2
    39    49    51   am
    40    23    24    2
    41    69    68   ar
    42    64    63    1
    43    64    66   ar
    44    63    60    1
    45    51    52    1
    46    60    59    1
    47    60    61    1
    48    68    66   ar
    49    59    53   am
    50    53    54    2
    51    53    52    1
    52    62    61    2
    53    52    55    1
    54    61    70   am
    55    37    35   ar
    56    37    38   ar
    57    35    33   ar
    58    55    56    1
    59    70    71    1
    60    79    80    2
    61    79    78    1
    62    38    36   ar
    63    28    29    1
    64    33    32    1
    65    33    34   ar
    66    32    29    1
    67    56    57   ar
    68    56    58   ar
    69    71    72    1
    70    71    74    1
    71    77    72   am
    72    77    78    1
    73    72    73    2
    74    78    81    1
    75    81    82    1
    76    29    30    1
    77    36    34   ar
    78    30    31    2
    79    75    74    1
    80    74    76    1
    81    82    83    1
    82    83    84    1
    83    84    85    2
    84    86    85    1
    85    85    87    1
