@<TRIPOS>MOLECULE
tmp/5v2cM01.pdb
 100 96 0 0 0
SMALL
GASTEIGER

@<TRIPOS>ATOM
      1  N        -48.3150  -19.8440  211.2720 N.3    16  ASN16      -0.1225
      2  CA       -47.5830  -18.5900  211.1650 C.3    16  ASN16       0.1785
      3  C        -48.4390  -17.3290  211.4300 C.2    16  ASN16       0.2597
      4  O        -47.9720  -16.2070  211.2470 O.2    16  ASN16      -0.2718
      5  CB       -46.9390  -18.4840  209.7880 C.3    16  ASN16       0.1169
      6  CG       -45.7780  -17.4850  209.7540 C.2    16  ASN16       0.2627
      7  OD1      -44.8660  -17.5240  210.5890 O.2    16  ASN16      -0.2716
      8  ND2      -45.8140  -16.5800  208.7670 N.am   16  ASN16      -0.0877
      9  N        -49.6680  -17.5010  211.8970 N.am   17  LYS17      -0.1980
     10  CA       -50.5080  -16.3560  212.2180 C.3    17  LYS17       0.1596
     11  C        -50.5800  -16.1320  213.7180 C.2    17  LYS17       0.2287
     12  O        -50.5750  -17.0940  214.4810 O.2    17  LYS17      -0.2864
     13  CB       -51.9120  -16.5570  211.6110 C.3    17  LYS17       0.0298
     14  CG       -51.8300  -16.5380  210.0720 C.3    17  LYS17       0.0038
     15  CD       -53.2100  -16.6990  209.4830 C.3    17  LYS17       0.0206
     16  CE       -53.2180  -16.8970  207.9850 C.3    17  LYS17       0.1093
     17  NZ       -52.6000  -15.7750  207.2650 N.3    17  LYS17      -0.1314
     18  N        -46.6040  -11.1230  213.6810 N.3    45  GLN45      -0.1231
     19  CA       -46.8410  -11.6650  212.3720 C.3    45  GLN45       0.1683
     20  C        -46.6610  -10.5080  211.3740 C.2    45  GLN45       0.2434
     21  O        -47.5040   -9.6390  211.2740 O.2    45  GLN45      -0.2733
     22  CB       -48.2660  -12.1590  212.3190 C.3    45  GLN45       0.0380
     23  CG       -48.6910  -12.6700  210.9730 C.3    45  GLN45       0.0905
     24  CD       -50.1840  -12.8180  210.8980 C.2    45  GLN45       0.2608
     25  OE1      -50.8670  -13.0730  211.9000 O.2    45  GLN45      -0.2717
     26  NE2      -50.7020  -12.5840  209.7400 N.am   45  GLN45      -0.0878
     27  N        -45.5440  -10.4930  210.6480 N.am   46  PRO46      -0.2718
     28  CA       -45.3160   -9.4930  209.6230 C.3    46  PRO46       0.1535
     29  C        -46.2390   -9.7160  208.4230 C.2    46  PRO46       0.2599
     30  O        -46.4740  -10.8670  208.0040 O.2    46  PRO46      -0.2715
     31  CB       -43.8380   -9.6970  209.2700 C.3    46  PRO46       0.0310
     32  CG       -43.5360  -11.0760  209.6230 C.3    46  PRO46       0.0237
     33  CD       -44.4570  -11.4870  210.6990 C.3    46  PRO46       0.0939
     34  N        -46.8380   -8.6520  207.9300 N.am   47  THR47      -0.1937
     35  CA       -47.6640   -8.7120  206.7240 C.3    47  THR47       0.2028
     36  C        -46.9820   -7.9760  205.5580 C.2    47  THR47       0.2643
     37  O        -47.3390   -8.2350  204.3960 O.2    47  THR47      -0.2714
     38  CB       -49.0410   -8.0650  206.9820 C.3    47  THR47       0.1808
     39  OG1      -48.8520   -6.7440  207.4920 O.3    47  THR47      -0.2208
     40  CG2      -49.9000   -8.9030  208.0160 C.3    47  THR47       0.0379
     41  N        -46.0370   -7.0500  205.8240 N.am   48  THR48      -0.1936
     42  CA       -45.3260   -6.3430  204.7440 C.3    48  THR48       0.2028
     43  C        -43.8970   -6.0700  205.1260 C.2    48  THR48       0.2642
     44  O        -43.6250   -5.6500  206.2140 O.2    48  THR48      -0.2714
     45  CB       -45.9060   -4.9490  204.3630 C.3    48  THR48       0.1808
     46  OG1      -46.0640   -4.1350  205.5340 O.3    48  THR48      -0.2208
     47  CG2      -47.2200   -5.0620  203.5860 C.3    48  THR48       0.0379
     48  N        -43.0070   -6.2750  204.1650 N.am   49  PHE49      -0.1973
     49  CA       -41.6080   -5.9630  204.3060 C.3    49  PHE49       0.1639
     50  C        -41.3080   -4.9040  203.2540 C.2    49  PHE49       0.2290
     51  O        -41.5670   -5.1000  202.0440 O.2    49  PHE49      -0.2864
     52  CB       -40.7910   -7.2190  204.0300 C.3    49  PHE49       0.0560
     53  CG       -40.8910   -8.2660  205.0820 C.ar   49  PHE49      -0.0200
     54  CD1      -41.8520   -9.2120  204.9970 C.ar   49  PHE49      -0.0042
     55  CD2      -40.0020   -8.3140  206.1440 C.ar   49  PHE49      -0.0042
     56  CE1      -41.9370  -10.2050  205.9540 C.ar   49  PHE49      -0.0003
     57  CE2      -40.1040   -9.2980  207.0840 C.ar   49  PHE49      -0.0003
     58  CZ       -41.1130  -10.2060  207.0060 C.ar   49  PHE49      -0.0000
     59  N        -41.9060   -5.3750  198.4940 N.3    67  THR67      -0.1218
     60  CA       -41.0630   -6.4870  198.1040 C.3    67  THR67       0.1862
     61  C        -41.8960   -7.7530  198.1350 C.2    67  THR67       0.2287
     62  O        -42.9470   -7.7860  198.7910 O.2    67  THR67      -0.2866
     63  CB       -39.9310   -6.6970  199.1150 C.3    67  THR67       0.1770
     64  OG1      -40.4800   -6.9980  200.4060 O.3    67  THR67      -0.2211
     65  CG2      -39.0090   -5.4980  199.1550 C.3    67  THR67       0.0375
     66  N        -42.1220  -11.6530  199.2730 N.3    69  LEU69      -0.1245
     67  CA       -41.5650  -12.6430  200.1960 C.3    69  LEU69       0.1561
     68  C        -41.2780  -13.9320  199.4310 C.2    69  LEU69       0.2260
     69  O        -42.1920  -14.4350  198.7260 O.2    69  LEU69      -0.2867
     70  CB       -42.5750  -12.9550  201.2840 C.3    69  LEU69       0.0270
     71  CG       -42.2560  -14.0550  202.3190 C.3    69  LEU69       0.0019
     72  CD1      -41.0020  -13.7280  203.1200 C.3    69  LEU69       0.0001
     73  CD2      -43.4630  -14.2450  203.2190 C.3    69  LEU69       0.0001
     74  N        -41.6020  -18.0840  202.2490 N.3    72  ARG72      -0.1231
     75  CA       -42.8480  -18.7270  202.6040 C.3    72  ARG72       0.1694
     76  C        -43.3170  -18.3410  204.0120 C.2    72  ARG72       0.2591
     77  O        -42.8720  -17.3440  204.5430 O.2    72  ARG72      -0.2718
     78  CB       -42.7400  -20.2530  202.3460 C.3    72  ARG72       0.0321
     79  CG       -42.3760  -20.5390  200.8950 C.3    72  ARG72       0.0489
     80  CD       -42.2330  -21.9750  200.5560 C.3    72  ARG72       0.2205
     81  NE       -43.4860  -22.7500  200.4700 N.pl3  72  ARG72      -0.0865
     82  CZ       -43.5020  -24.0790  200.4460 C.cat  72  ARG72       0.5346
     83  NH1      -44.6490  -24.6990  200.3770 N.pl3  72  ARG72       0.1354
     84  NH2      -42.3790  -24.7850  200.5500 N.pl3  72  ARG72       0.1354
     85  N        -44.1960  -19.1240  204.6270 N.am   73  GLU73      -0.1979
     86  CA       -44.8400  -18.6890  205.8650 C.3    73  GLU73       0.1602
     87  C        -44.0070  -19.1060  207.0910 C.2    73  GLU73       0.2287
     88  O        -44.4220  -19.9070  207.9270 O.2    73  GLU73      -0.2864
     89  CB       -46.2520  -19.2120  205.9130 C.3    73  GLU73       0.0415
     90  CG       -47.1300  -18.6470  204.8090 C.3    73  GLU73       0.1163
     91  CD       -47.4430  -17.1440  204.9570 C.2    73  GLU73       0.3649
     92  OE1      -47.4300  -16.4000  203.9180 O.co2  73  GLU73      -0.2457
     93  OE2      -47.7180  -16.6700  206.0980 O.co2  73  GLU73      -0.2457
     94  N        -42.1100  -16.5530  208.8070 N.3    75  THR75      -0.1218
     95  CA       -41.7050  -15.1590  209.1570 C.3    75  THR75       0.1862
     96  C        -42.0370  -14.6530  210.5680 C.2    75  THR75       0.2287
     97  O        -41.4890  -13.6460  210.9820 O.2    75  THR75      -0.2866
     98  CB       -42.3640  -14.1890  208.1960 C.3    75  THR75       0.1770
     99  OG1      -43.8010  -14.3510  208.2650 O.3    75  THR75      -0.2211
    100  CG2      -41.8520  -14.4380  206.7470 C.3    75  THR75       0.0375
@<TRIPOS>BOND
     1    60    61    1
     2    60    59    1
     3    60    63    1
     4    61    62    2
     5    69    68    2
     6    63    65    1
     7    63    64    1
     8    66    67    1
     9    68    67    1
    10    67    70    1
    11    83    82    1
    12    82    81    2
    13    82    84    1
    14    81    80    1
    15    80    79    1
    16    79    78    1
    17    70    71    1
    18    51    50    2
    19    74    75    1
    20    71    72    1
    21    71    73    1
    22    78    75    1
    23    75    76    1
    24    50    49    1
    25    47    45    1
    26    92    91   ar
    27    76    77    2
    28    76    85   am
    29    52    49    1
    30    52    53    1
    31    48    49    1
    32    48    43   am
    33    45    42    1
    34    45    46    1
    35    37    36    2
    36    85    86    1
    37    42    43    1
    38    42    41    1
    39    90    91    1
    40    90    89    1
    41    91    93   ar
    42    54    53   ar
    43    54    56   ar
    44    53    55   ar
    45    43    44    2
    46    36    41   am
    47    36    35    1
    48    86    89    1
    49    86    87    1
    50    56    58   ar
    51    55    57   ar
    52    35    38    1
    53    35    34    1
    54   100    98    1
    55    38    39    1
    56    38    40    1
    57    58    57   ar
    58    87    88    2
    59    17    16    1
    60    34    29   am
    61    16    15    1
    62    30    29    2
    63    98    99    1
    64    98    95    1
    65    29    28    1
    66     8     6   am
    67    94    95    1
    68    95    96    1
    69    31    28    1
    70    31    32    1
    71    15    14    1
    72    28    27    1
    73    32    33    1
    74    26    24   am
    75     6     5    1
    76     6     7    2
    77     5     2    1
    78    14    13    1
    79    96    97    2
    80    27    33    1
    81    27    20   am
    82    24    23    1
    83    24    25    2
    84    23    22    1
    85     2     1    1
    86     2     3    1
    87     4     3    2
    88    21    20    2
    89    20    19    1
    90     3     9   am
    91    13    10    1
    92     9    10    1
    93    10    11    1
    94    22    19    1
    95    19    18    1
    96    11    12    2
