@<TRIPOS>MOLECULE
tmp/5v2cU10.pdb
 105 101 0 0 0
SMALL
GASTEIGER

@<TRIPOS>ATOM
      1  N        -44.2540  -18.6170  148.8790 N.3    19  ILE19      -0.1245
      2  CA       -44.8850  -18.5010  150.1990 C.3    19  ILE19       0.1561
      3  C        -43.9990  -19.0770  151.2800 C.2    19  ILE19       0.2260
      4  O        -43.8630  -18.4720  152.3230 O.2    19  ILE19      -0.2867
      5  CB       -46.2720  -19.1920  150.1940 C.3    19  ILE19       0.0252
      6  CG1      -47.2200  -18.3260  149.3700 C.3    19  ILE19       0.0019
      7  CG2      -46.8660  -19.3710  151.6030 C.3    19  ILE19       0.0019
      8  CD1      -48.5370  -18.9730  148.9880 C.3    19  ILE19       0.0001
      9  N        -42.4760  -17.2010  154.3070 N.3    23  LEU23      -0.1245
     10  CA       -42.6730  -17.6920  155.6600 C.3    23  LEU23       0.1561
     11  C        -41.3620  -17.7310  156.4000 C.2    23  LEU23       0.2260
     12  O        -41.2660  -17.3200  157.5590 O.2    23  LEU23      -0.2867
     13  CB       -43.3730  -19.0690  155.6090 C.3    23  LEU23       0.0270
     14  CG       -44.9240  -19.0020  155.4040 C.3    23  LEU23       0.0019
     15  CD1      -45.4360  -20.3980  154.9990 C.3    23  LEU23       0.0001
     16  CD2      -45.6550  -18.4770  156.6620 C.3    23  LEU23       0.0001
     17  N        -40.2400  -14.2970  157.3090 N.3    26  THR26      -0.1218
     18  CA       -41.0230  -13.8290  158.4390 C.3    26  THR26       0.1862
     19  C        -40.5840  -14.4690  159.7520 C.2    26  THR26       0.2287
     20  O        -40.5200  -13.7880  160.7980 O.2    26  THR26      -0.2866
     21  CB       -42.5350  -14.0720  158.1760 C.3    26  THR26       0.1770
     22  OG1      -42.8360  -13.5790  156.8350 O.3    26  THR26      -0.2211
     23  CG2      -43.3980  -13.3580  159.2210 C.3    26  THR26       0.0375
     24  N        -43.4710  -21.4160  164.7100 N.3   105  LEU105     -0.1231
     25  CA       -44.6760  -21.7780  163.9640 C.3   105  LEU105      0.1693
     26  C        -44.5330  -21.4150  162.4640 C.2   105  LEU105      0.2591
     27  O        -44.9400  -22.1990  161.6040 O.2   105  LEU105     -0.2718
     28  CB       -45.9170  -21.1650  164.6040 C.3   105  LEU105      0.0284
     29  CG       -46.2380  -21.6050  166.0120 C.3   105  LEU105      0.0019
     30  CD1      -47.4950  -20.8550  166.4960 C.3   105  LEU105      0.0001
     31  CD2      -46.4810  -23.0880  166.0480 C.3   105  LEU105      0.0001
     32  N        -43.9630  -20.2410  162.1650 N.am  106  LEU106     -0.1980
     33  CA       -43.7260  -19.8240  160.8060 C.3   106  LEU106      0.1596
     34  C        -42.7060  -20.7270  160.1480 C.2   106  LEU106      0.2287
     35  O        -42.8630  -21.0430  158.9750 O.2   106  LEU106     -0.2864
     36  CB       -43.2470  -18.3510  160.7650 C.3   106  LEU106      0.0297
     37  CG       -44.3030  -17.3320  161.2440 C.3   106  LEU106      0.0022
     38  CD1      -43.6980  -15.9610  161.4320 C.3   106  LEU106      0.0001
     39  CD2      -45.4690  -17.2450  160.2660 C.3   106  LEU106      0.0001
     40  N        -44.5490  -23.9350  159.2000 N.3   109  ALA109     -0.1245
     41  CA       -45.3780  -23.6360  158.0520 C.3   109  ALA109      0.1562
     42  C        -44.5880  -23.5480  156.7670 C.2   109  ALA109      0.2260
     43  O        -45.0440  -23.9840  155.7200 O.2   109  ALA109     -0.2867
     44  CB       -46.1060  -22.3240  158.3020 C.3   109  ALA109      0.0290
     45  N        -43.8340  -26.9890  155.4490 N.3   112  TRP112     -0.1227
     46  CA       -44.9960  -27.6180  154.8060 C.3   112  TRP112      0.1737
     47  C        -45.2310  -27.0340  153.4140 C.2   112  TRP112      0.2595
     48  O        -45.4590  -27.7620  152.4400 O.2   112  TRP112     -0.2718
     49  CB       -46.1900  -27.3720  155.6630 C.3   112  TRP112      0.0564
     50  CG       -47.4080  -28.1350  155.2020 C.ar  112  TRP112      0.0003
     51  CD1      -47.7630  -29.3870  155.6410 C.ar  112  TRP112      0.0946
     52  CD2      -48.4060  -27.7590  154.2230 C.ar  112  TRP112      0.0152
     53  NE1      -48.9230  -29.7940  155.0360 N.ar  112  TRP112     -0.2442
     54  CE2      -49.3100  -28.8480  154.1250 C.ar  112  TRP112      0.0810
     55  CE3      -48.6040  -26.6300  153.3980 C.ar  112  TRP112      0.0012
     56  CZ2      -50.4350  -28.8390  153.2990 C.ar  112  TRP112      0.0191
     57  CZ3      -49.7080  -26.6230  152.5350 C.ar  112  TRP112      0.0001
     58  CH2      -50.6140  -27.7350  152.4990 C.ar  112  TRP112      0.0015
     59  N        -45.1530  -25.7060  153.3040 N.am  113  HIS113     -0.1975
     60  CA       -45.4110  -25.0400  152.0420 C.3   113  HIS113      0.1656
     61  C        -44.3110  -25.3700  151.0030 C.2   113  HIS113      0.2291
     62  O        -44.5670  -25.4500  149.7640 O.2   113  HIS113     -0.2864
     63  CB       -45.6850  -23.5120  152.2730 C.3   113  HIS113      0.0771
     64  CG       -47.1300  -23.2020  152.5550 C.ar  113  HIS113      0.0820
     65  ND1      -48.0840  -23.2480  151.5690 N.ar  113  HIS113     -0.2267
     66  CD2      -47.7890  -22.8530  153.6990 C.ar  113  HIS113      0.1154
     67  CE1      -49.2690  -22.9310  152.0920 C.ar  113  HIS113      0.1986
     68  NE2      -49.1280  -22.6600  153.3860 N.ar  113  HIS113     -0.2212
     69  N        -49.9550  -27.2040  144.9240 N.3   119  LEU119     -0.1245
     70  CA       -51.3430  -27.1160  145.3080 C.3   119  LEU119      0.1561
     71  C        -52.1390  -26.6500  144.1110 C.2   119  LEU119      0.2260
     72  O        -51.7110  -25.7720  143.3260 O.2   119  LEU119     -0.2867
     73  CB       -51.5260  -26.1290  146.4360 C.3   119  LEU119      0.0270
     74  CG       -50.7300  -26.4700  147.6940 C.3   119  LEU119      0.0019
     75  CD1      -51.1690  -25.5410  148.8010 C.3   119  LEU119      0.0001
     76  CD2      -50.8720  -27.9180  148.1610 C.3   119  LEU119      0.0001
     77  N        -54.6810  -24.8410  144.1230 N.3   121  LEU121     -0.1231
     78  CA       -55.0440  -23.4270  144.3100 C.3   121  LEU121      0.1693
     79  C        -54.1660  -22.5200  143.4770 C.2   121  LEU121      0.2592
     80  O        -54.5990  -21.4280  143.0580 O.2   121  LEU121     -0.2718
     81  CB       -54.8960  -23.0260  145.7900 C.3   121  LEU121      0.0284
     82  CG       -55.1790  -21.5840  146.1650 C.3   121  LEU121      0.0019
     83  CD1      -56.6200  -21.2190  145.7730 C.3   121  LEU121      0.0001
     84  CD2      -54.9100  -21.3720  147.6610 C.3   121  LEU121      0.0001
     85  N        -52.9320  -22.9690  143.2680 N.am  122  PHE122     -0.1976
     86  CA       -51.8940  -22.1390  142.5910 C.3   122  PHE122      0.1639
     87  C        -51.8910  -22.2860  141.0690 C.2   122  PHE122      0.2290
     88  O        -51.0750  -21.6640  140.3690 O.2   122  PHE122     -0.2864
     89  CB       -50.5140  -22.4850  143.1160 C.3   122  PHE122      0.0560
     90  CG       -50.3610  -22.3460  144.6030 C.ar  122  PHE122     -0.0200
     91  CD1      -50.9920  -21.3350  145.3030 C.ar  122  PHE122     -0.0042
     92  CD2      -49.5240  -23.1880  145.2740 C.ar  122  PHE122     -0.0042
     93  CE1      -50.8110  -21.1880  146.6570 C.ar  122  PHE122     -0.0003
     94  CE2      -49.3460  -23.0610  146.6250 C.ar  122  PHE122     -0.0003
     95  CZ       -50.0360  -22.0830  147.3400 C.ar  122  PHE122     -0.0000
     96  N        -55.5510   -8.3920  150.1690 N.3   141  HIS141     -0.1241
     97  CA       -54.5500   -7.9520  151.1360 C.3   141  HIS141      0.1621
     98  C        -54.8170   -6.4970  151.6100 C.2   141  HIS141      0.2264
     99  O        -54.6140   -6.1710  152.7880 O.2   141  HIS141     -0.2867
    100  CB       -53.1210   -8.2230  150.6340 C.3   141  HIS141      0.0745
    101  CG       -52.8140   -9.6790  150.4100 C.ar  141  HIS141      0.0817
    102  ND1      -51.7310  -10.0990  149.6510 N.ar  141  HIS141     -0.2268
    103  CD2      -53.4260  -10.8110  150.8560 C.ar  141  HIS141      0.1154
    104  CE1      -51.7200  -11.4250  149.6190 C.ar  141  HIS141      0.1986
    105  NE2      -52.7110  -11.9000  150.3730 N.ar  141  HIS141     -0.2212
@<TRIPOS>BOND
     1    88    87    2
     2    87    86    1
     3    86    89    1
     4    86    85    1
     5    80    79    2
     6    89    90    1
     7    85    79   am
     8    72    71    2
     9    79    78    1
    10    71    70    1
    11    77    78    1
    12    78    81    1
    13    90    92   ar
    14    90    91   ar
    15    69    70    1
    16    92    94   ar
    17    91    93   ar
    18    70    73    1
    19    83    82    1
    20    81    82    1
    21    82    84    1
    22    73    74    1
    23    94    95   ar
    24    93    95   ar
    25    74    76    1
    26    74    75    1
    27     1     2    1
    28     8     6    1
    29     6     5    1
    30   104   102   ar
    31   104   105   ar
    32   102   101   ar
    33    62    61    2
    34    96    97    1
    35     5     2    1
    36     5     7    1
    37     2     3    1
    38   105   103   ar
    39   101   100    1
    40   101   103   ar
    41   100    97    1
    42    61    60    1
    43    97    98    1
    44     3     4    2
    45    65    67   ar
    46    65    64   ar
    47    98    99    2
    48    60    63    1
    49    60    59    1
    50    67    68   ar
    51    63    64    1
    52    48    47    2
    53    58    57   ar
    54    58    56   ar
    55    57    55   ar
    56    64    66   ar
    57    56    54   ar
    58    59    47   am
    59    68    66   ar
    60    55    52   ar
    61    47    46    1
    62    54    52   ar
    63    54    53   ar
    64    52    50   ar
    65     9    10    1
    66    46    45    1
    67    46    49    1
    68    15    14    1
    69    53    51   ar
    70    50    51   ar
    71    50    49    1
    72    14    13    1
    73    14    16    1
    74    13    10    1
    75    10    11    1
    76    43    42    2
    77    11    12    2
    78    42    41    1
    79    22    21    1
    80    17    18    1
    81    41    44    1
    82    41    40    1
    83    21    18    1
    84    21    23    1
    85    18    19    1
    86    35    34    2
    87    19    20    2
    88    34    33    1
    89    39    37    1
    90    36    33    1
    91    36    37    1
    92    33    32    1
    93    37    38    1
    94    27    26    2
    95    32    26   am
    96    26    25    1
    97    25    28    1
    98    25    24    1
    99    28    29    1
   100    29    31    1
   101    29    30    1
