@<TRIPOS>MOLECULE
tmp/5v2cV02.pdb
 177 169 0 0 0
SMALL
GASTEIGER

@<TRIPOS>ATOM
      1  N          9.3710   20.7410  103.5980 N.3    34  LEU34      -0.1231
      2  CA         9.7830   20.5100  104.9860 C.3    34  LEU34       0.1693
      3  C         10.8960   21.5100  105.3930 C.2    34  LEU34       0.2591
      4  O         10.9320   21.9960  106.5410 O.2    34  LEU34      -0.2718
      5  CB        10.2750   19.0780  105.1660 C.3    34  LEU34       0.0284
      6  CG        10.6280   18.6570  106.6050 C.3    34  LEU34       0.0019
      7  CD1        9.5210   19.0600  107.5820 C.3    34  LEU34       0.0001
      8  CD2       10.9350   17.1770  106.6880 C.3    34  LEU34       0.0001
      9  N         11.8130   21.7810  104.4640 N.am   35  LEU35      -0.1980
     10  CA        12.7870   22.8480  104.6940 C.3    35  LEU35       0.1596
     11  C         12.0330   24.1450  104.9940 C.2    35  LEU35       0.2287
     12  O         12.3290   24.8110  105.9660 O.2    35  LEU35      -0.2864
     13  CB        13.7280   23.0070  103.5050 C.3    35  LEU35       0.0297
     14  CG        14.6570   24.2590  103.5350 C.3    35  LEU35       0.0022
     15  CD1       15.6520   24.1260  104.6890 C.3    35  LEU35       0.0001
     16  CD2       15.4050   24.4400  102.1990 C.3    35  LEU35       0.0001
     17  N         10.6290   24.2410  108.5030 N.3    38  HIS38      -0.1226
     18  CA        11.6630   24.3760  109.4780 C.3    38  HIS38       0.1752
     19  C         12.2170   25.7900  109.5400 C.2    38  HIS38       0.2595
     20  O         12.4570   26.3260  110.6320 O.2    38  HIS38      -0.2718
     21  CB        12.7480   23.3190  109.2820 C.3    38  HIS38       0.0759
     22  CG        12.3980   21.9560  109.8170 C.ar   38  HIS38       0.0818
     23  ND1       12.3230   20.8290  109.0330 N.ar   38  HIS38      -0.2268
     24  CD2       12.1920   21.5210  111.0760 C.ar   38  HIS38       0.1154
     25  CE1       12.0010   19.7690  109.7840 C.ar   38  HIS38       0.1986
     26  NE2       11.9170   20.1600  111.0320 N.ar   38  HIS38      -0.2212
     27  N         12.3790   26.4270  108.3870 N.am   39  VAL39      -0.1980
     28  CA        12.9400   27.7800  108.3440 C.3    39  VAL39       0.1595
     29  C         11.9520   28.8180  108.8690 C.2    39  VAL39       0.2287
     30  O         12.3380   29.6950  109.6340 O.2    39  VAL39      -0.2864
     31  CB        13.4730   28.1290  106.9470 C.3    39  VAL39       0.0276
     32  CG1       14.0100   29.5460  106.9590 C.3    39  VAL39       0.0022
     33  CG2       14.6300   27.1960  106.5960 C.3    39  VAL39       0.0022
     34  N         11.7730   28.4980  112.6170 N.3    42  ALA42      -0.1245
     35  CA        12.9110   29.1870  113.1810 C.3    42  ALA42       0.1562
     36  C         12.6910   30.6940  113.2050 C.2    42  ALA42       0.2260
     37  O         13.0620   31.3850  114.1560 O.2    42  ALA42      -0.2867
     38  CB        14.1720   28.8480  112.4470 C.3    42  ALA42       0.0290
     39  N         14.1950   35.0010  107.8640 N.3   110  LEU110     -0.1245
     40  CA        13.8540   33.5900  108.0610 C.3   110  LEU110      0.1561
     41  C         12.4020   33.3090  107.6080 C.2   110  LEU110      0.2260
     42  O         12.1450   32.3480  106.8790 O.2   110  LEU110     -0.2867
     43  CB        14.0690   33.1780  109.5290 C.3   110  LEU110      0.0270
     44  CG        15.5000   33.1210  110.0440 C.3   110  LEU110      0.0019
     45  CD1       15.5200   32.9460  111.5600 C.3   110  LEU110      0.0001
     46  CD2       16.2870   32.0220  109.3550 C.3   110  LEU110      0.0001
     47  N         13.6420   18.5300   97.0270 N.3   125  LEU125     -0.1245
     48  CA        14.9400   19.1070   96.6910 C.3   125  LEU125      0.1561
     49  C         15.8580   18.1860   95.8870 C.2   125  LEU125      0.2260
     50  O         16.8380   18.6400   95.3150 O.2   125  LEU125     -0.2867
     51  CB        15.6750   19.5470   97.9640 C.3   125  LEU125      0.0270
     52  CG        14.8800   20.5610   98.7880 C.3   125  LEU125      0.0019
     53  CD1       15.6880   20.8930  100.0420 C.3   125  LEU125      0.0001
     54  CD2       14.5030   21.8180   97.9710 C.3   125  LEU125      0.0001
     55  N         23.2070   18.0260   96.8180 N.3   131  PHE131     -0.1227
     56  CA        23.7540   18.5160   98.0970 C.3   131  PHE131      0.1736
     57  C         22.6530   18.7610   99.1140 C.2   131  PHE131      0.2595
     58  O         22.7270   18.2690  100.2300 O.2   131  PHE131     -0.2718
     59  CB        24.5900   19.7900   97.8920 C.3   131  PHE131      0.0547
     60  CG        25.2140   20.2950   99.1420 C.ar  131  PHE131     -0.0202
     61  CD1       26.3600   19.6860   99.6560 C.ar  131  PHE131     -0.0042
     62  CD2       24.6460   21.3590   99.8390 C.ar  131  PHE131     -0.0042
     63  CE1       26.9470   20.1440  100.8390 C.ar  131  PHE131     -0.0003
     64  CE2       25.2320   21.8120  101.0100 C.ar  131  PHE131     -0.0003
     65  CZ        26.3890   21.2110  101.5100 C.ar  131  PHE131     -0.0000
     66  N         21.6440   19.5300   98.7250 N.am  132  PHE132     -0.1976
     67  CA        20.5180   19.8660   99.6240 C.3   132  PHE132      0.1639
     68  C         19.4540   18.7570   99.7100 C.2   132  PHE132      0.2290
     69  O         18.7370   18.6340  100.7150 O.2   132  PHE132     -0.2864
     70  CB        19.8770   21.2000   99.2220 C.3   132  PHE132      0.0560
     71  CG        20.8150   22.3720   99.3500 C.ar  132  PHE132     -0.0200
     72  CD1       21.0900   22.9220  100.6010 C.ar  132  PHE132     -0.0042
     73  CD2       21.4410   22.8960   98.2320 C.ar  132  PHE132     -0.0042
     74  CE1       21.9630   23.9620  100.7400 C.ar  132  PHE132     -0.0003
     75  CE2       22.3070   23.9560   98.3570 C.ar  132  PHE132     -0.0003
     76  CZ        22.5730   24.4870   99.6180 C.ar  132  PHE132     -0.0000
     77  N         17.9860   14.9260  100.1920 N.3   134  TYR134     -0.1241
     78  CA        18.3390   13.8840  101.1240 C.3   134  TYR134      0.1605
     79  C         17.2340   12.8580  101.1680 C.2   134  TYR134      0.2264
     80  O         16.0450   13.1180  100.8910 O.2   134  TYR134     -0.2867
     81  CB        18.5900   14.4670  102.5360 C.3   134  TYR134      0.0534
     82  CG        17.3860   15.1320  103.1660 C.ar  134  TYR134     -0.0201
     83  CD1       16.4220   14.3840  103.8490 C.ar  134  TYR134     -0.0009
     84  CD2       17.1930   16.4910  103.0610 C.ar  134  TYR134     -0.0009
     85  CE1       15.2890   14.9930  104.3900 C.ar  134  TYR134      0.0417
     86  CE2       16.0760   17.0980  103.6090 C.ar  134  TYR134      0.0417
     87  CZ        15.1130   16.3390  104.2460 C.ar  134  TYR134      0.1957
     88  OH        14.0250   16.9580  104.7920 O.3   134  TYR134     -0.2866
     89  N         24.3160   10.5580  104.4490 N.3   141  LYS141     -0.1245
     90  CA        23.8290   11.9260  104.2780 C.3   141  LYS141      0.1561
     91  C         23.2590   12.4970  105.5850 C.2   141  LYS141      0.2260
     92  O         23.3890   13.6860  105.8680 O.2   141  LYS141     -0.2867
     93  CB        22.7680   11.9590  103.2120 C.3   141  LYS141      0.0271
     94  CG        22.2050   13.3480  102.9090 C.3   141  LYS141      0.0035
     95  CD        23.3200   14.3230  102.5110 C.3   141  LYS141      0.0206
     96  CE        22.7880   15.6310  101.9320 C.3   141  LYS141      0.1093
     97  NZ        22.6260   15.5840  100.4410 N.3   141  LYS141     -0.1314
     98  N         24.7360   15.9460  107.5250 N.3   145  ILE145     -0.1245
     99  CA        23.9350   17.1000  107.9180 C.3   145  ILE145      0.1561
    100  C         24.0240   17.3360  109.4430 C.2   145  ILE145      0.2260
    101  O         24.1940   18.4700  109.8970 O.2   145  ILE145     -0.2867
    102  CB        22.4750   16.9680  107.4440 C.3   145  ILE145      0.0252
    103  CG1       22.4490   16.9540  105.9240 C.3   145  ILE145      0.0019
    104  CG2       21.6220   18.1450  107.9550 C.3   145  ILE145      0.0019
    105  CD1       21.1170   16.6280  105.3790 C.3   145  ILE145      0.0001
    106  N         27.3270   19.0780  110.0060 N.3   148  PHE148     -0.1227
    107  CA        27.2920   20.5380  109.7160 C.3   148  PHE148      0.1736
    108  C         26.7070   21.2880  110.9140 C.2   148  PHE148      0.2595
    109  O         27.2580   22.3040  111.3550 O.2   148  PHE148     -0.2718
    110  CB        26.4400   20.9210  108.4860 C.3   148  PHE148      0.0547
    111  CG        26.9270   20.3780  107.1500 C.ar  148  PHE148     -0.0202
    112  CD1       28.2730   20.3460  106.8250 C.ar  148  PHE148     -0.0042
    113  CD2       25.9840   19.9350  106.2060 C.ar  148  PHE148     -0.0042
    114  CE1       28.6880   19.8560  105.6000 C.ar  148  PHE148     -0.0003
    115  CE2       26.4050   19.4460  104.9750 C.ar  148  PHE148     -0.0003
    116  CZ        27.7720   19.4140  104.6730 C.ar  148  PHE148     -0.0000
    117  N         25.5810   20.7660  111.4120 N.am  149  HIS149     -0.1975
    118  CA        24.8940   21.3800  112.5110 C.3   149  HIS149      0.1656
    119  C         25.7450   21.2830  113.8070 C.2   149  HIS149      0.2291
    120  O         25.7690   22.2180  114.5990 O.2   149  HIS149     -0.2864
    121  CB        23.4510   20.8520  112.6270 C.3   149  HIS149      0.0771
    122  CG        22.6040   21.1110  111.4060 C.ar  149  HIS149      0.0820
    123  ND1       21.4670   20.3960  111.1260 N.ar  149  HIS149     -0.2267
    124  CD2       22.7370   22.0110  110.3930 C.ar  149  HIS149      0.1154
    125  CE1       20.9360   20.8440  109.9910 C.ar  149  HIS149      0.1986
    126  NE2       21.6620   21.8560  109.5390 N.ar  149  HIS149     -0.2212
    127  N         29.0130   21.4610  113.9400 N.3   151  ILE151     -0.1231
    128  CA        29.9880   22.5210  113.7210 C.3   151  ILE151      0.1692
    129  C         29.3750   23.9000  114.0530 C.2   151  ILE151      0.2592
    130  O         29.9880   24.7230  114.7250 O.2   151  ILE151     -0.2718
    131  CB        30.5820   22.4660  112.3030 C.3   151  ILE151      0.0266
    132  CG1       31.5260   21.2480  112.2080 C.3   151  ILE151      0.0019
    133  CG2       31.3690   23.7570  112.0190 C.3   151  ILE151      0.0020
    134  CD1       31.9530   20.8200  110.7940 C.3   151  ILE151      0.0001
    135  N         28.1600   24.1230  113.6020 N.am  152  VAL152     -0.1966
    136  CA        27.4530   25.3820  113.8720 C.3   152  VAL152      0.1727
    137  C         27.2560   25.5830  115.4000 C.2   152  VAL152      0.2616
    138  O         27.5310   26.6480  115.9400 O.2   152  VAL152     -0.2715
    139  CB        26.1190   25.4120  113.0710 C.3   152  VAL152      0.0290
    140  CG1       25.2050   26.5460  113.5190 C.3   152  VAL152      0.0023
    141  CG2       26.3890   25.5030  111.5650 C.3   152  VAL152      0.0023
    142  N         26.8170   24.5390  116.1020 N.am  153  LEU153     -0.1977
    143  CA        26.6570   24.6110  117.5560 C.3   153  LEU153      0.1596
    144  C         27.9920   24.8720  118.2900 C.2   153  LEU153      0.2287
    145  O         28.0170   25.6350  119.2650 O.2   153  LEU153     -0.2864
    146  CB        25.9740   23.3420  118.1060 C.3   153  LEU153      0.0297
    147  CG        24.5140   23.1930  117.6970 C.3   153  LEU153      0.0022
    148  CD1       23.9990   21.7770  117.9580 C.3   153  LEU153      0.0001
    149  CD2       23.6730   24.2160  118.4520 C.3   153  LEU153      0.0001
    150  N         30.5230   26.4790  117.1100 N.3   155  ILE155     -0.1231
    151  CA        30.7950   27.8970  116.8450 C.3   155  ILE155      0.1692
    152  C         30.0150   28.7300  117.8280 C.2   155  ILE155      0.2592
    153  O         30.5670   29.6180  118.4480 O.2   155  ILE155     -0.2718
    154  CB        30.5050   28.2920  115.3890 C.3   155  ILE155      0.0266
    155  CG1       31.5640   27.6710  114.4980 C.3   155  ILE155      0.0019
    156  CG2       30.4800   29.8170  115.2270 C.3   155  ILE155      0.0020
    157  CD1       31.1870   27.6420  112.9960 C.3   155  ILE155      0.0001
    158  N         28.7380   28.4050  117.9940 N.am  156  GLY156     -0.1957
    159  CA        27.8910   29.0840  119.0050 C.3   156  GLY156      0.1869
    160  C         28.4500   29.1330  120.4200 C.2   156  GLY156      0.2309
    161  O         28.3930   30.1640  121.0860 O.2   156  GLY156     -0.2863
    162  N         31.1450   31.4410  120.7140 N.3   159  LEU159     -0.1245
    163  CA        30.6850   32.8410  120.7470 C.3   159  LEU159      0.1561
    164  C         30.5510   33.3320  122.2000 C.2   159  LEU159      0.2260
    165  O         30.9710   34.4670  122.5180 O.2   159  LEU159     -0.2867
    166  CB        29.3780   33.0570  119.9640 C.3   159  LEU159      0.0270
    167  CG        29.4980   32.9480  118.4420 C.3   159  LEU159      0.0019
    168  CD1       28.1260   33.2110  117.7970 C.3   159  LEU159      0.0001
    169  CD2       30.5710   33.8860  117.8920 C.3   159  LEU159      0.0001
    170  N         30.9260   14.0970  109.1990 N.3   237  ILE237     -0.1245
    171  CA        31.0330   14.4040  107.7510 C.3   237  ILE237      0.1561
    172  C         31.9570   13.3880  107.0570 C.2   237  ILE237      0.2260
    173  O         31.7280   13.0080  105.9100 O.2   237  ILE237     -0.2867
    174  CB        31.5400   15.8390  107.5540 C.3   237  ILE237      0.0252
    175  CG1       30.4210   16.8190  107.8460 C.3   237  ILE237      0.0019
    176  CG2       32.0240   16.0910  106.1080 C.3   237  ILE237      0.0019
    177  CD1       30.9330   18.2030  108.1870 C.3   237  ILE237      0.0001
@<TRIPOS>BOND
     1    50    49    2
     2    49    48    1
     3    48    47    1
     4    48    51    1
     5    55    56    1
     6    59    56    1
     7    59    60    1
     8    51    52    1
     9    54    52    1
    10    56    57    1
    11    73    75   ar
    12    73    71   ar
    13    75    76   ar
    14    66    57   am
    15    66    67    1
    16    52    53    1
    17    57    58    2
    18    60    61   ar
    19    60    62   ar
    20    70    71    1
    21    70    67    1
    22    71    72   ar
    23    76    74   ar
    24    67    68    1
    25    61    63   ar
    26    68    69    2
    27    62    64   ar
    28    77    78    1
    29    97    96    1
    30    72    74   ar
    31    63    65   ar
    32    80    79    2
    33    64    65   ar
    34    78    79    1
    35    78    81    1
    36    96    95    1
    37    16    14    1
    38    95    94    1
    39    81    82    1
    40    94    93    1
    41    84    82   ar
    42    84    86   ar
    43    82    83   ar
    44    93    90    1
    45    13    14    1
    46    13    10    1
    47    14    15    1
    48     1     2    1
    49    86    87   ar
    50    83    85   ar
    51    87    85   ar
    52    87    88    1
    53    90    89    1
    54    90    91    1
    55     9    10    1
    56     9     3   am
    57   116   115   ar
    58   116   114   ar
    59    10    11    1
    60   115   113   ar
    61     2     5    1
    62     2     3    1
    63    11    12    2
    64     5     6    1
    65   105   103    1
    66     3     4    2
    67    91    92    2
    68   114   112   ar
    69   173   172    2
    70   103   102    1
    71   176   174    1
    72   113   111   ar
    73    33    31    1
    74     6     8    1
    75     6     7    1
    76   112   111   ar
    77    42    41    2
    78    31    32    1
    79    31    28    1
    80   172   171    1
    81   111   110    1
    82   102    99    1
    83   102   104    1
    84    98    99    1
    85   174   171    1
    86   174   175    1
    87    41    40    1
    88   171   170    1
    89   175   177    1
    90    39    40    1
    91    99   100    1
    92    40    43    1
    93    28    27    1
    94    28    29    1
    95    27    19   am
    96   110   107    1
    97    17    18    1
    98    29    30    2
    99    23    25   ar
   100    23    22   ar
   101    21    18    1
   102    21    22    1
   103    46    44    1
   104   100   101    2
   105    18    19    1
   106    43    44    1
   107   126   125   ar
   108   126   124   ar
   109    19    20    2
   110   107   106    1
   111   107   108    1
   112    25    26   ar
   113    22    24   ar
   114   125   123   ar
   115    44    45    1
   116   124   122   ar
   117   134   132    1
   118   108   109    2
   119   108   117   am
   120    26    24   ar
   121   123   122   ar
   122   122   121    1
   123   117   118    1
   124   141   139    1
   125   133   131    1
   126   132   131    1
   127   131   128    1
   128    38    35    1
   129   118   121    1
   130   118   119    1
   131    34    35    1
   132   157   155    1
   133   139   140    1
   134   139   136    1
   135    35    36    1
   136    36    37    2
   137   135   136    1
   138   135   129   am
   139   128   127    1
   140   128   129    1
   141   119   120    2
   142   136   137    1
   143   129   130    2
   144   155   154    1
   145   156   154    1
   146   154   151    1
   147   137   138    2
   148   137   142   am
   149   142   143    1
   150   151   150    1
   151   151   152    1
   152   143   146    1
   153   143   144    1
   154   147   148    1
   155   147   146    1
   156   147   149    1
   157   168   167    1
   158   152   158   am
   159   152   153    2
   160   169   167    1
   161   158   159    1
   162   144   145    2
   163   167   166    1
   164   159   160    1
   165   166   163    1
   166   160   161    2
   167   162   163    1
   168   163   164    1
   169   164   165    2
