@<TRIPOS>MOLECULE
tmp/5v2cU16.pdb
 104 101 0 0 0
SMALL
GASTEIGER

@<TRIPOS>ATOM
      1  N        -19.3790    8.9200  177.5990 N.3   333  ASP333     -0.1239
      2  CA       -19.2920    9.7600  178.8020 C.3   333  ASP333      0.1674
      3  C        -19.4780    9.0880  180.1720 C.2   333  ASP333      0.2266
      4  O        -19.0520    9.6350  181.1880 O.2   333  ASP333     -0.2867
      5  CB       -20.1810   11.0340  178.6760 C.3   333  ASP333      0.1410
      6  CG       -21.6250   10.7390  178.3260 C.2   333  ASP333      0.3668
      7  OD1      -21.9880    9.5090  178.2490 O.co2 333  ASP333     -0.2456
      8  OD2      -22.4100   11.7310  178.1340 O.co2 333  ASP333     -0.2456
      9  N        -24.5640   17.9290  188.8590 N.3   340  LYS340     -0.1245
     10  CA       -23.7060   18.6870  189.7590 C.3   340  LYS340      0.1561
     11  C        -24.3350   19.9970  190.2330 C.2   340  LYS340      0.2260
     12  O        -23.8690   20.5820  191.1970 O.2   340  LYS340     -0.2867
     13  CB       -22.3360   18.9330  189.1240 C.3   340  LYS340      0.0271
     14  CG       -21.6280   17.6200  188.9310 C.3   340  LYS340      0.0035
     15  CD       -20.1340   17.8060  188.8630 C.3   340  LYS340      0.0206
     16  CE       -19.4480   16.4940  189.1080 C.3   340  LYS340      0.1093
     17  NZ       -18.0910   16.8820  189.5460 N.3   340  LYS340     -0.1314
     18  N         -7.3700   26.0660  188.2410 N.3   414  PRO414     -0.2102
     19  CA        -7.5390   24.7340  187.6250 C.3   414  PRO414      0.1504
     20  C         -8.9570   24.1890  187.7550 C.2   414  PRO414      0.2576
     21  O         -9.4840   23.6860  186.8020 O.2   414  PRO414     -0.2718
     22  CB        -6.5860   23.8950  188.4080 C.3   414  PRO414      0.0282
     23  CG        -5.5110   24.8740  188.7770 C.3   414  PRO414      0.0208
     24  CD        -6.1930   26.1160  189.1330 C.3   414  PRO414      0.0893
     25  N         -9.5870   24.3270  188.9130 N.am  415  THR415     -0.1953
     26  CA       -10.9190   23.7730  189.1120 C.3   415  THR415      0.1897
     27  C        -11.9630   24.5660  188.3340 C.2   415  THR415      0.2313
     28  O        -12.9090   24.0170  187.7920 O.2   415  THR415     -0.2863
     29  CB       -11.2910   23.7990  190.6060 C.3   415  THR415      0.1794
     30  OG1      -10.3450   23.0540  191.2790 O.3   415  THR415     -0.2208
     31  CG2      -12.5560   23.1480  190.8610 C.3   415  THR415      0.0378
     32  N        -11.8220   23.5850  184.8290 N.3   418  SER418     -0.1202
     33  CA       -12.3660   22.2860  184.5940 C.3   418  SER418      0.2020
     34  C        -13.8450   22.3400  184.4250 C.2   418  SER418      0.2618
     35  O        -14.3840   21.7160  183.4900 O.2   418  SER418     -0.2717
     36  CB       -11.9550   21.2680  185.6990 C.3   418  SER418      0.2103
     37  OG       -10.5630   21.1460  185.6530 O.3   418  SER418     -0.2182
     38  N        -14.5110   23.1170  185.2540 N.am  419  TYR419     -0.1975
     39  CA       -15.9520   23.1930  185.1360 C.3   419  TYR419      0.1639
     40  C        -16.3510   24.0300  183.9180 C.2   419  TYR419      0.2290
     41  O        -17.3760   23.7700  183.2930 O.2   419  TYR419     -0.2864
     42  CB       -16.5230   23.7480  186.4290 C.3   419  TYR419      0.0560
     43  CG       -16.5330   22.7480  187.5780 C.ar  419  TYR419     -0.0198
     44  CD1      -17.2060   21.5200  187.4600 C.ar  419  TYR419     -0.0009
     45  CD2      -15.8870   23.0150  188.7820 C.ar  419  TYR419     -0.0009
     46  CE1      -17.2200   20.5940  188.5200 C.ar  419  TYR419      0.0417
     47  CE2      -15.8980   22.0830  189.8470 C.ar  419  TYR419      0.0417
     48  CZ       -16.5540   20.8940  189.7050 C.ar  419  TYR419      0.1957
     49  OH       -16.5620   20.0020  190.7490 O.3   419  TYR419     -0.2866
     50  N        -16.5030   21.7570  181.0460 N.3   422  LYS422     -0.1245
     51  CA       -17.7570   20.9910  181.0350 C.3   422  LYS422      0.1561
     52  C        -18.9780   21.8130  180.6350 C.2   422  LYS422      0.2260
     53  O        -19.9560   21.2710  180.0410 O.2   422  LYS422     -0.2867
     54  CB       -17.9940   20.2490  182.4020 C.3   422  LYS422      0.0271
     55  CG       -16.8310   19.3310  182.8130 C.3   422  LYS422      0.0035
     56  CD       -16.3530   18.4940  181.5980 C.3   422  LYS422      0.0206
     57  CE       -15.1990   17.6120  181.9410 C.3   422  LYS422      0.1093
     58  NZ       -14.7550   16.8670  180.7050 N.3   422  LYS422     -0.1314
     59  N        -23.9800   20.1630  183.7940 N.3   428  ILE428     -0.1231
     60  CA       -22.8510   19.3570  184.2050 C.3   428  ILE428      0.1692
     61  C        -23.2860   18.2250  185.0980 C.2   428  ILE428      0.2592
     62  O        -23.9990   18.4360  186.0770 O.2   428  ILE428     -0.2718
     63  CB       -21.7870   20.2190  184.9140 C.3   428  ILE428      0.0266
     64  CG1      -21.3580   21.3880  183.9900 C.3   428  ILE428      0.0019
     65  CG2      -20.5410   19.4320  185.3080 C.3   428  ILE428      0.0020
     66  CD1      -20.4780   22.3880  184.7140 C.3   428  ILE428      0.0001
     67  N        -22.8180   17.0320  184.7550 N.am  429  PHE429     -0.1962
     68  CA       -23.1600   15.7830  185.4680 C.3   429  PHE429      0.1771
     69  C        -21.9330   15.0540  186.0140 C.2   429  PHE429      0.2619
     70  O        -20.7990   15.2570  185.5380 O.2   429  PHE429     -0.2715
     71  CB       -23.9990   14.9360  184.5430 C.3   429  PHE429      0.0574
     72  CG       -25.3840   15.4950  184.3730 C.ar  429  PHE429     -0.0200
     73  CD1      -25.6240   16.5320  183.4880 C.ar  429  PHE429     -0.0042
     74  CD2      -26.4180   15.0570  185.1740 C.ar  429  PHE429     -0.0042
     75  CE1      -26.8700   17.1380  183.4290 C.ar  429  PHE429     -0.0003
     76  CE2      -27.6910   15.6240  185.0650 C.ar  429  PHE429     -0.0003
     77  CZ       -27.8980   16.6750  184.2110 C.ar  429  PHE429     -0.0000
     78  N        -22.1900   14.2640  187.0590 N.am  430  GLU430     -0.1963
     79  CA       -21.2300   13.2990  187.5890 C.3   430  GLU430      0.1733
     80  C        -21.5500   12.0070  186.8460 C.2   430  GLU430      0.2616
     81  O        -22.7110   11.6400  186.7470 O.2   430  GLU430     -0.2715
     82  CB       -21.4210   13.0870  189.0830 C.3   430  GLU430      0.0429
     83  CG       -20.3900   12.1180  189.6690 C.3   430  GLU430      0.1163
     84  CD       -20.8080   11.6180  191.0530 C.2   430  GLU430      0.3649
     85  OE1      -21.6680   12.2660  191.7350 O.co2 430  GLU430     -0.2457
     86  OE2      -20.2610   10.5580  191.4730 O.co2 430  GLU430     -0.2457
     87  N        -20.5240   11.3310  186.3510 N.am  431  PHE431     -0.1974
     88  CA       -20.6660   10.0760  185.6340 C.3   431  PHE431      0.1639
     89  C        -19.8120    8.9710  186.2620 C.2   431  PHE431      0.2290
     90  O        -18.6700    9.1980  186.7550 O.2   431  PHE431     -0.2864
     91  CB       -20.1630   10.2310  184.2010 C.3   431  PHE431      0.0560
     92  CG       -20.9980   11.1420  183.3510 C.ar  431  PHE431     -0.0200
     93  CD1      -20.7520   12.5210  183.2900 C.ar  431  PHE431     -0.0042
     94  CD2      -22.0170   10.6180  182.5800 C.ar  431  PHE431     -0.0042
     95  CE1      -21.4550   13.3320  182.4680 C.ar  431  PHE431     -0.0003
     96  CE2      -22.7810   11.4370  181.7750 C.ar  431  PHE431     -0.0003
     97  CZ       -22.5100   12.8280  181.7510 C.ar  431  PHE431     -0.0000
     98  N        -17.6920    6.2510  185.0840 N.3   433  THR433     -0.1218
     99  CA       -16.9450    5.8120  183.9310 C.3   433  THR433      0.1862
    100  C        -16.2330    4.4440  184.1240 C.2   433  THR433      0.2287
    101  O        -15.7300    3.8920  183.1600 O.2   433  THR433     -0.2866
    102  CB       -15.8950    6.8660  183.5120 C.3   433  THR433      0.1770
    103  OG1      -15.1160    7.2360  184.6340 O.3   433  THR433     -0.2211
    104  CG2      -16.6010    8.1010  182.9810 C.3   433  THR433      0.0375
@<TRIPOS>BOND
     1     1     2    1
     2     8     6   ar
     3     7     6   ar
     4     6     5    1
     5     5     2    1
     6     2     3    1
     7    53    52    2
     8     3     4    2
     9    52    51    1
    10    58    57    1
    11    51    50    1
    12    51    54    1
    13    56    57    1
    14    56    55    1
    15    97    96   ar
    16    97    95   ar
    17    96    94   ar
    18    54    55    1
    19    95    93   ar
    20    94    92   ar
    21   104   102    1
    22   101   100    2
    23    93    92   ar
    24    41    40    2
    25    92    91    1
    26    75    73   ar
    27    75    77   ar
    28    73    72   ar
    29    35    34    2
    30   102    99    1
    31   102   103    1
    32    59    60    1
    33    40    39    1
    34    99   100    1
    35    99    98    1
    36    64    66    1
    37    64    63    1
    38    91    88    1
    39    60    63    1
    40    60    61    1
    41    77    76   ar
    42    72    71    1
    43    72    74   ar
    44    34    33    1
    45    34    38   am
    46    71    68    1
    47    33    32    1
    48    33    36    1
    49    67    61   am
    50    67    68    1
    51    63    65    1
    52    76    74   ar
    53    61    62    2
    54    39    38    1
    55    39    42    1
    56    68    69    1
    57    70    69    2
    58    88    89    1
    59    88    87    1
    60    37    36    1
    61    69    78   am
    62    89    90    2
    63    87    80   am
    64    42    43    1
    65    81    80    2
    66    21    20    2
    67    80    79    1
    68    78    79    1
    69    44    43   ar
    70    44    46   ar
    71    43    45   ar
    72    79    82    1
    73    19    20    1
    74    19    18    1
    75    19    22    1
    76    20    25   am
    77    28    27    2
    78    18    24    1
    79    27    26    1
    80    22    23    1
    81    46    48   ar
    82    23    24    1
    83    45    47   ar
    84     9    10    1
    85    15    14    1
    86    15    16    1
    87    25    26    1
    88    14    13    1
    89    82    83    1
    90    16    17    1
    91    26    29    1
    92    13    10    1
    93    83    84    1
    94    48    47   ar
    95    48    49    1
    96    10    11    1
    97    11    12    2
    98    29    31    1
    99    29    30    1
   100    84    86   ar
   101    84    85   ar
