@<TRIPOS>MOLECULE
tmp/5v2cU01.pdb
 188 190 0 0 0
SMALL
GASTEIGER

@<TRIPOS>ATOM
      1  N        -35.5780  -12.5950  165.1560 N.3    32  TRP32      -0.1241
      2  CA       -34.7320  -11.4830  165.4480 C.3    32  TRP32       0.1605
      3  C        -35.3750  -10.6020  166.5440 C.2    32  TRP32       0.2264
      4  O        -34.7150  -10.2600  167.5190 O.2    32  TRP32      -0.2867
      5  CB       -34.4140  -10.6400  164.1810 C.3    32  TRP32       0.0550
      6  CG       -33.6180   -9.4740  164.5550 C.ar   32  TRP32       0.0003
      7  CD1      -32.2320   -9.4380  164.7210 C.ar   32  TRP32       0.0946
      8  CD2      -34.1050   -8.1860  164.9720 C.ar   32  TRP32       0.0152
      9  NE1      -31.8680   -8.1690  165.1890 N.ar   32  TRP32      -0.2442
     10  CE2      -32.9740   -7.3920  165.3160 C.ar   32  TRP32       0.0810
     11  CE3      -35.3700   -7.5830  164.9920 C.ar   32  TRP32       0.0012
     12  CZ2      -33.0960   -6.0550  165.7340 C.ar   32  TRP32       0.0191
     13  CZ3      -35.4680   -6.2590  165.4410 C.ar   32  TRP32       0.0001
     14  CH2      -34.3690   -5.5420  165.8140 C.ar   32  TRP32       0.0015
     15  N        -33.6930  -10.1420  170.0750 N.3    36  MET36      -0.1245
     16  CA       -33.2650   -8.7620  170.3750 C.3    36  MET36       0.1570
     17  C        -33.8270   -8.2820  171.6830 C.2    36  MET36       0.2261
     18  O        -33.0840   -7.7690  172.4930 O.2    36  MET36      -0.2867
     19  CB       -33.5810   -7.8190  169.2150 C.3    36  MET36       0.0387
     20  CG       -32.8540   -6.4390  169.2500 C.3    36  MET36       0.0595
     21  SD       -31.1280   -6.5500  168.8850 S.3    36  MET36      -0.1393
     22  CE       -30.3800   -6.3280  170.5090 C.3    36  MET36       0.0692
     23  N        -32.0140  -10.1390  174.5400 N.3    39  TYR39      -0.1227
     24  CA       -30.6730   -9.5440  174.7880 C.3    39  TYR39       0.1736
     25  C        -30.7560   -8.1990  175.5040 C.2    39  TYR39       0.2595
     26  O        -29.9400   -7.9100  176.4170 O.2    39  TYR39      -0.2718
     27  CB       -29.9390   -9.3610  173.4790 C.3    39  TYR39       0.0548
     28  CG       -28.5780   -8.6700  173.5680 C.ar   39  TYR39      -0.0200
     29  CD1      -27.4740   -9.3710  173.8690 C.ar   39  TYR39      -0.0009
     30  CD2      -28.4340   -7.3160  173.2840 C.ar   39  TYR39      -0.0009
     31  CE1      -26.2220   -8.7820  173.9700 C.ar   39  TYR39       0.0417
     32  CE2      -27.1850   -6.6950  173.3550 C.ar   39  TYR39       0.0417
     33  CZ       -26.0720   -7.4350  173.6700 C.ar   39  TYR39       0.1957
     34  OH       -24.8590   -6.8380  173.7260 O.3    39  TYR39      -0.2866
     35  N        -31.7400   -7.3750  175.0940 N.am   40  GLU40      -0.1979
     36  CA       -31.9660   -6.0840  175.7680 C.3    40  GLU40       0.1602
     37  C        -32.3810   -6.2740  177.2170 C.2    40  GLU40       0.2287
     38  O        -31.8370   -5.6420  178.0600 O.2    40  GLU40      -0.2864
     39  CB       -32.9590   -5.2290  175.0110 C.3    40  GLU40       0.0415
     40  CG       -32.3710   -4.7490  173.6940 C.3    40  GLU40       0.1163
     41  CD       -33.1470   -3.7090  172.9900 C.2    40  GLU40       0.3649
     42  OE1      -32.7160   -3.3970  171.8190 O.co2  40  GLU40      -0.2457
     43  OE2      -34.1710   -3.2080  173.5700 O.co2  40  GLU40      -0.2457
     44  N        -29.4710   -7.0750  179.4430 N.3    43  THR43      -0.1218
     45  CA       -28.5160   -5.9900  179.6040 C.3    43  THR43       0.1862
     46  C        -29.1450   -4.7200  180.1830 C.2    43  THR43       0.2287
     47  O        -28.4370   -3.9130  180.6830 O.2    43  THR43      -0.2866
     48  CB       -27.7940   -5.6800  178.2610 C.3    43  THR43       0.1770
     49  OG1      -28.7050   -5.3430  177.2370 O.3    43  THR43      -0.2211
     50  CG2      -27.0680   -6.9220  177.7390 C.3    43  THR43       0.0375
     51  N        -28.8080    3.4940  177.1380 N.3    57  GLN57      -0.1231
     52  CA       -28.3080    2.1110  177.3000 C.3    57  GLN57       0.1698
     53  C        -28.2460    1.3270  175.9920 C.2    57  GLN57       0.2593
     54  O        -28.0770    0.0880  176.0120 O.2    57  GLN57      -0.2718
     55  CB       -29.1820    1.3460  178.2970 C.3    57  GLN57       0.0381
     56  CG       -29.0970    1.9550  179.6860 C.3    57  GLN57       0.0905
     57  CD       -29.8150    1.1270  180.7210 C.2    57  GLN57       0.2608
     58  OE1      -29.5960   -0.0750  180.7730 O.2    57  GLN57      -0.2717
     59  NE2      -30.6820    1.7350  181.5330 N.am   57  GLN57      -0.0878
     60  N        -28.4340    2.0020  174.8610 N.am   58  GLY58      -0.1942
     61  CA       -28.3160    1.3580  173.5340 C.3    58  GLY58       0.2014
     62  C        -29.4900    0.4620  173.2450 C.2    58  GLY58       0.2639
     63  O        -29.3390   -0.4930  172.4650 O.2    58  GLY58      -0.2714
     64  N        -30.6220    0.7700  173.8550 N.am   59  MET59      -0.1963
     65  CA       -31.8490   -0.0110  173.6800 C.3    59  MET59       0.1736
     66  C        -32.5460    0.3870  172.3950 C.2    59  MET59       0.2616
     67  O        -32.7350    1.5980  172.1470 O.2    59  MET59      -0.2715
     68  CB       -32.7450    0.1440  174.8900 C.3    59  MET59       0.0427
     69  CG       -32.1340   -0.3130  176.2080 C.3    59  MET59       0.0599
     70  SD       -31.8970   -2.1230  176.2110 S.3    59  MET59      -0.1393
     71  CE       -30.3600   -2.2100  177.1150 C.3    59  MET59       0.0692
     72  N        -32.8590   -0.5840  171.5280 N.am   60  PHE60      -0.1974
     73  CA       -33.3740   -0.3370  170.2190 C.3    60  PHE60       0.1639
     74  C        -34.8020   -0.8170  170.0890 C.2    60  PHE60       0.2290
     75  O        -35.6490   -0.0950  169.5450 O.2    60  PHE60      -0.2864
     76  CB       -32.4940   -1.0310  169.2000 C.3    60  PHE60       0.0560
     77  CG       -32.8560   -0.7380  167.7590 C.ar   60  PHE60      -0.0200
     78  CD1      -32.9770    0.5490  167.3040 C.ar   60  PHE60      -0.0042
     79  CD2      -33.0660   -1.7830  166.8560 C.ar   60  PHE60      -0.0042
     80  CE1      -33.2910    0.8090  165.9620 C.ar   60  PHE60      -0.0003
     81  CE2      -33.3840   -1.5490  165.5400 C.ar   60  PHE60      -0.0003
     82  CZ       -33.4820   -0.2370  165.0860 C.ar   60  PHE60      -0.0000
     83  N        -19.5500    6.8310  163.5920 N.3   323  LEU323     -0.1231
     84  CA       -19.9790    5.6350  162.8620 C.3   323  LEU323      0.1693
     85  C        -19.4870    4.3480  163.4680 C.2   323  LEU323      0.2592
     86  O        -20.2150    3.3540  163.4720 O.2   323  LEU323     -0.2718
     87  CB       -19.5590    5.7060  161.3800 C.3   323  LEU323      0.0284
     88  CG       -20.0100    4.5640  160.4570 C.3   323  LEU323      0.0019
     89  CD1      -21.5330    4.2740  160.4620 C.3   323  LEU323      0.0001
     90  CD2      -19.4560    4.8740  159.0740 C.3   323  LEU323      0.0001
     91  N        -18.2450    4.3700  163.9290 N.am  324  PHE324     -0.1976
     92  CA       -17.5950    3.1890  164.5680 C.3   324  PHE324      0.1639
     93  C        -17.4530    3.2500  166.0690 C.2   324  PHE324      0.2290
     94  O        -16.8310    2.3600  166.6740 O.2   324  PHE324     -0.2864
     95  CB       -16.2960    2.8970  163.8410 C.3   324  PHE324      0.0560
     96  CG       -16.5430    2.4650  162.4140 C.ar  324  PHE324     -0.0200
     97  CD1      -17.0590    1.2050  162.1300 C.ar  324  PHE324     -0.0042
     98  CD2      -16.3080    3.3620  161.3640 C.ar  324  PHE324     -0.0042
     99  CE1      -17.2830    0.8400  160.8320 C.ar  324  PHE324     -0.0003
    100  CE2      -16.5600    3.0220  160.0460 C.ar  324  PHE324     -0.0003
    101  CZ       -17.0510    1.7200  159.7780 C.ar  324  PHE324     -0.0000
    102  N        -19.0840    2.3600  168.8690 N.3   326  THR326     -0.1203
    103  CA       -20.1580    1.3740  169.0700 C.3   326  THR326      0.1994
    104  C        -20.7380    1.3350  170.4560 C.2   326  THR326      0.2618
    105  O        -20.0870    1.6780  171.4480 O.2   326  THR326     -0.2717
    106  CB       -19.7110   -0.0310  168.6610 C.3   326  THR326      0.1784
    107  OG1      -18.5800   -0.3980  169.4380 O.3   326  THR326     -0.2211
    108  CG2      -19.3390   -0.0760  167.1910 C.3   326  THR326      0.0376
    109  N        -22.0150    0.9930  170.5200 N.am  327  GLY327     -0.1942
    110  CA       -22.6380    0.6710  171.8080 C.3   327  GLY327      0.1998
    111  C        -23.4930    1.7730  172.4100 C.2   327  GLY327      0.2480
    112  O        -23.8920    2.7250  171.7150 O.2   327  GLY327     -0.2729
    113  N        -23.7910    1.6500  173.7020 N.am  328  PRO328     -0.2726
    114  CA       -24.6810    2.5770  174.3970 C.3   328  PRO328      0.1402
    115  C        -23.9780    3.8920  174.6030 C.2   328  PRO328      0.2269
    116  O        -22.7480    3.9430  174.6730 O.2   328  PRO328     -0.2865
    117  CB       -24.9560    1.8810  175.7250 C.3   328  PRO328      0.0296
    118  CG       -23.7980    0.9970  175.9230 C.3   328  PRO328      0.0237
    119  CD       -23.3510    0.5440  174.5730 C.3   328  PRO328      0.0939
    120  N        -30.2950    5.7550  170.2420 N.3   446  PRO446     -0.2116
    121  CA       -31.0540    5.0220  169.2600 C.3   446  PRO446      0.1372
    122  C        -31.7430    5.9180  168.2350 C.2   446  PRO446      0.2244
    123  O        -32.0560    5.4840  167.1190 O.2   446  PRO446     -0.2868
    124  CB       -32.0740    4.2480  170.1000 C.3   446  PRO446      0.0268
    125  CG       -31.8190    4.6290  171.4920 C.3   446  PRO446      0.0207
    126  CD       -30.5400    5.3000  171.6070 C.3   446  PRO446      0.0892
    127  N        -28.9940    6.0910  165.6110 N.3   449  TRP449     -0.1227
    128  CA       -28.8650    4.7950  164.9090 C.3   449  TRP449      0.1737
    129  C        -30.0760    4.4180  164.0540 C.2   449  TRP449      0.2595
    130  O        -29.9030    3.9820  162.9120 O.2   449  TRP449     -0.2718
    131  CB       -28.4910    3.6470  165.8710 C.3   449  TRP449      0.0564
    132  CG       -27.0910    3.7700  166.3370 C.ar  449  TRP449      0.0003
    133  CD1      -26.6530    3.9660  167.6230 C.ar  449  TRP449      0.0946
    134  CD2      -25.9190    3.6430  165.5330 C.ar  449  TRP449      0.0152
    135  NE1      -25.2600    3.9840  167.6450 N.ar  449  TRP449     -0.2442
    136  CE2      -24.8000    3.8190  166.3850 C.ar  449  TRP449      0.0810
    137  CE3      -25.7070    3.4330  164.1660 C.ar  449  TRP449      0.0012
    138  CZ2      -23.4990    3.7730  165.9340 C.ar  449  TRP449      0.0191
    139  CZ3      -24.3870    3.4560  163.7070 C.ar  449  TRP449      0.0001
    140  CH2      -23.3030    3.6050  164.5930 C.ar  449  TRP449      0.0015
    141  N        -31.2740    4.6310  164.5470 N.am  450  PHE450     -0.1976
    142  CA       -32.4510    4.3000  163.7680 C.3   450  PHE450      0.1639
    143  C        -32.4570    5.1270  162.4930 C.2   450  PHE450      0.2290
    144  O        -32.7140    4.6200  161.3850 O.2   450  PHE450     -0.2864
    145  CB       -33.7600    4.5620  164.5280 C.3   450  PHE450      0.0560
    146  CG       -34.9840    4.2410  163.6970 C.ar  450  PHE450     -0.0200
    147  CD1      -35.4570    5.1560  162.7370 C.ar  450  PHE450     -0.0042
    148  CD2      -35.6290    2.9820  163.7910 C.ar  450  PHE450     -0.0042
    149  CE1      -36.5450    4.8330  161.9430 C.ar  450  PHE450     -0.0003
    150  CE2      -36.7600    2.6800  163.0310 C.ar  450  PHE450     -0.0003
    151  CZ       -37.1920    3.5760  162.0700 C.ar  450  PHE450     -0.0000
    152  N        -29.9840    6.6430  160.8330 N.3   452  PHE452     -0.1227
    153  CA       -28.9470    6.2370  159.9250 C.3   452  PHE452      0.1736
    154  C        -29.2990    4.9940  159.1280 C.2   452  PHE452      0.2595
    155  O        -29.2540    5.0240  157.8820 O.2   452  PHE452     -0.2718
    156  CB       -27.6670    6.0040  160.6740 C.3   452  PHE452      0.0547
    157  CG       -26.5350    5.4420  159.8240 C.ar  452  PHE452     -0.0202
    158  CD1      -26.0280    6.1590  158.7390 C.ar  452  PHE452     -0.0042
    159  CD2      -26.0050    4.1640  160.0990 C.ar  452  PHE452     -0.0042
    160  CE1      -24.9680    5.6780  157.9850 C.ar  452  PHE452     -0.0003
    161  CE2      -24.9670    3.6730  159.3420 C.ar  452  PHE452     -0.0003
    162  CZ       -24.4670    4.3920  158.2780 C.ar  452  PHE452     -0.0000
    163  N        -29.6590    3.9160  159.8270 N.am  453  ALA453     -0.1966
    164  CA       -29.9670    2.6550  159.1400 C.3   453  ALA453      0.1728
    165  C        -31.1000    2.8630  158.1410 C.2   453  ALA453      0.2616
    166  O        -31.0460    2.3400  157.0440 O.2   453  ALA453     -0.2715
    167  CB       -30.3690    1.6000  160.1370 C.3   453  ALA453      0.0334
    168  N        -32.1560    3.6020  158.5180 N.am  454  HIS454     -0.1973
    169  CA       -33.3450    3.6880  157.6800 C.3   454  HIS454      0.1656
    170  C        -33.1500    4.6420  156.4870 C.2   454  HIS454      0.2291
    171  O        -33.6420    4.3550  155.4230 O.2   454  HIS454     -0.2864
    172  CB       -34.6130    3.9460  158.5220 C.3   454  HIS454      0.0771
    173  CG       -35.0200    2.7520  159.3170 C.ar  454  HIS454      0.0820
    174  ND1      -34.4210    2.3860  160.5040 N.ar  454  HIS454     -0.2267
    175  CD2      -35.8930    1.7560  158.9970 C.ar  454  HIS454      0.1154
    176  CE1      -34.9370    1.2130  160.8820 C.ar  454  HIS454      0.1986
    177  NE2      -35.8110    0.7820  159.9610 N.ar  454  HIS454     -0.2212
    178  N        -30.9540    2.3600  154.1760 N.3   457  PHE457     -0.1241
    179  CA       -31.7180    1.2970  153.5680 C.3   457  PHE457      0.1605
    180  C        -32.7190    1.8820  152.5370 C.2   457  PHE457      0.2264
    181  O        -32.9020    1.3340  151.4470 O.2   457  PHE457     -0.2867
    182  CB       -32.4310    0.4690  154.6240 C.3   457  PHE457      0.0534
    183  CG       -31.5330   -0.4370  155.4630 C.ar  457  PHE457     -0.0203
    184  CD1      -30.3450   -0.9310  155.0100 C.ar  457  PHE457     -0.0042
    185  CD2      -31.9380   -0.8070  156.7250 C.ar  457  PHE457     -0.0042
    186  CE1      -29.5580   -1.7790  155.8180 C.ar  457  PHE457     -0.0003
    187  CE2      -31.1760   -1.6420  157.5300 C.ar  457  PHE457     -0.0003
    188  CZ       -29.9760   -2.1290  157.0710 C.ar  457  PHE457     -0.0000
@<TRIPOS>BOND
     1   181   180    2
     2   180   179    1
     3   179   178    1
     4   179   182    1
     5   182   183    1
     6   184   183   ar
     7   184   186   ar
     8   171   170    2
     9   183   185   ar
    10   186   188   ar
    11   170   169    1
    12   185   187   ar
    13   166   165    2
    14   188   187   ar
    15   169   168    1
    16   169   172    1
    17   155   154    2
    18   160   162   ar
    19   160   158   ar
    20   165   168   am
    21   165   164    1
    22   162   161   ar
    23   172   173    1
    24   158   157   ar
    25   175   173   ar
    26   175   177   ar
    27    90    88    1
    28   154   163   am
    29   154   153    1
    30   164   163    1
    31   164   167    1
    32   173   174   ar
    33   161   159   ar
    34   101   100   ar
    35   101    99   ar
    36   157   159   ar
    37   157   156    1
    38   153   156    1
    39   153   152    1
    40   177   176   ar
    41   100    98   ar
    42    88    89    1
    43    88    87    1
    44   174   176   ar
    45    99    97   ar
    46    98    96   ar
    47    87    84    1
    48   144   143    2
    49   149   151   ar
    50   149   147   ar
    51   151   150   ar
    52    97    96   ar
    53    96    95    1
    54   143   142    1
    55   147   146   ar
    56    84    85    1
    57    84    83    1
    58   130   129    2
    59   150   148   ar
    60    85    86    2
    61    85    91   am
    62   146   148   ar
    63   146   145    1
    64   139   137   ar
    65   139   140   ar
    66   142   145    1
    67   142   141    1
    68    95    92    1
    69    91    92    1
    70   129   141   am
    71   129   128    1
    72   137   134   ar
    73     5     6    1
    74     5     2    1
    75     6     7   ar
    76     6     8   ar
    77    92    93    1
    78   140   138   ar
    79     7     9   ar
    80   128   127    1
    81   128   131    1
    82     8    11   ar
    83     8    10   ar
    84    11    13   ar
    85    82    81   ar
    86    82    80   ar
    87     1     2    1
    88     9    10   ar
    89    10    12   ar
    90    13    14   ar
    91     2     3    1
    92   134   132   ar
    93   134   136   ar
    94    81    79   ar
    95    12    14   ar
    96   131   132    1
    97   138   136   ar
    98    80    78   ar
    99    93    94    2
   100   132   133   ar
   101   136   135   ar
   102     3     4    2
   103    79    77   ar
   104   123   122    2
   105   108   106    1
   106    78    77   ar
   107   133   135   ar
   108    77    76    1
   109   122   121    1
   110   106   103    1
   111   106   107    1
   112   102   103    1
   113    21    20    1
   114    21    22    1
   115   103   104    1
   116    76    73    1
   117    19    20    1
   118    19    16    1
   119   121   124    1
   120   121   120    1
   121    75    74    2
   122    15    16    1
   123    74    73    1
   124   124   125    1
   125    73    72    1
   126   120   126    1
   127    16    17    1
   128   104   109   am
   129   104   105    2
   130   109   110    1
   131   125   126    1
   132    72    66   am
   133    17    18    2
   134   112   111    2
   135   110   111    1
   136    42    41   ar
   137    67    66    2
   138    66    65    1
   139   111   113   am
   140    63    62    2
   141    41    43   ar
   142    41    40    1
   143    62    61    1
   144    62    64   am
   145    30    32   ar
   146    30    28   ar
   147    32    33   ar
   148    27    28    1
   149    27    24    1
   150    61    60    1
   151    28    29   ar
   152    33    34    1
   153    33    31   ar
   154    65    64    1
   155    65    68    1
   156    40    39    1
   157   113   114    1
   158   113   119    1
   159    29    31   ar
   160   114   115    1
   161   114   117    1
   162    23    24    1
   163   119   118    1
   164   115   116    2
   165    24    25    1
   166    60    53   am
   167    68    69    1
   168    39    36    1
   169    35    25   am
   170    35    36    1
   171    25    26    2
   172   117   118    1
   173    36    37    1
   174    53    54    2
   175    53    52    1
   176    69    70    1
   177    70    71    1
   178    51    52    1
   179    37    38    2
   180    49    48    1
   181    52    55    1
   182    50    48    1
   183    48    45    1
   184    55    56    1
   185    44    45    1
   186    45    46    1
   187    56    57    1
   188    46    47    2
   189    57    58    2
   190    57    59   am
