@<TRIPOS>MOLECULE
tmp/5v2cV03.pdb
 122 118 0 0 0
SMALL
GASTEIGER

@<TRIPOS>ATOM
      1  N         11.8130   21.7810  104.4640 N.3    35  LEU35      -0.1245
      2  CA        12.7870   22.8480  104.6940 C.3    35  LEU35       0.1561
      3  C         12.0330   24.1450  104.9940 C.2    35  LEU35       0.2260
      4  O         12.3290   24.8110  105.9660 O.2    35  LEU35      -0.2867
      5  CB        13.7280   23.0070  103.5050 C.3    35  LEU35       0.0270
      6  CG        14.6570   24.2590  103.5350 C.3    35  LEU35       0.0019
      7  CD1       15.6520   24.1260  104.6890 C.3    35  LEU35       0.0001
      8  CD2       15.4050   24.4400  102.1990 C.3    35  LEU35       0.0001
      9  N         12.3790   26.4270  108.3870 N.3    39  VAL39      -0.1245
     10  CA        12.9400   27.7800  108.3440 C.3    39  VAL39       0.1561
     11  C         11.9520   28.8180  108.8690 C.2    39  VAL39       0.2260
     12  O         12.3380   29.6950  109.6340 O.2    39  VAL39      -0.2867
     13  CB        13.4730   28.1290  106.9470 C.3    39  VAL39       0.0252
     14  CG1       14.0100   29.5460  106.9590 C.3    39  VAL39       0.0019
     15  CG2       14.6300   27.1960  106.5960 C.3    39  VAL39       0.0019
     16  N         13.7050   37.7790  107.6330 N.3   109  VAL109     -0.1231
     17  CA        14.5100   37.0830  106.6280 C.3   109  VAL109      0.1692
     18  C         14.2190   35.5610  106.6640 C.2   109  VAL109      0.2591
     19  O         14.0100   34.9080  105.6300 O.2   109  VAL109     -0.2718
     20  CB        15.9970   37.3600  106.8330 C.3   109  VAL109      0.0266
     21  CG1       16.8360   36.6590  105.7660 C.3   109  VAL109      0.0020
     22  CG2       16.2560   38.8610  106.7880 C.3   109  VAL109      0.0020
     23  N         14.1950   35.0010  107.8640 N.am  110  LEU110     -0.1980
     24  CA        13.8540   33.5900  108.0610 C.3   110  LEU110      0.1596
     25  C         12.4020   33.3090  107.6080 C.2   110  LEU110      0.2287
     26  O         12.1450   32.3480  106.8790 O.2   110  LEU110     -0.2864
     27  CB        14.0690   33.1780  109.5290 C.3   110  LEU110      0.0297
     28  CG        15.5000   33.1210  110.0440 C.3   110  LEU110      0.0022
     29  CD1       15.5200   32.9460  111.5600 C.3   110  LEU110      0.0001
     30  CD2       16.2870   32.0220  109.3550 C.3   110  LEU110      0.0001
     31  N         10.6180   34.9670  105.3740 N.3   112  PHE112     -0.1227
     32  CA        10.6340   35.0720  103.9330 C.3   112  PHE112      0.1736
     33  C         11.0940   33.7340  103.3160 C.2   112  PHE112      0.2596
     34  O         10.3770   33.1290  102.4950 O.2   112  PHE112     -0.2718
     35  CB        11.5750   36.1840  103.5320 C.3   112  PHE112      0.0547
     36  CG        11.4350   36.5940  102.0950 C.ar  112  PHE112     -0.0202
     37  CD1       12.1370   35.9490  101.0980 C.ar  112  PHE112     -0.0042
     38  CD2       10.5770   37.6200  101.7570 C.ar  112  PHE112     -0.0042
     39  CE1       11.9850   36.3390   99.7590 C.ar  112  PHE112     -0.0003
     40  CE2       10.4130   38.0020  100.4300 C.ar  112  PHE112     -0.0003
     41  CZ        11.1190   37.3550   99.4410 C.ar  112  PHE112     -0.0000
     42  N         12.2720   33.2630  103.7430 N.am  113  GLY113     -0.1957
     43  CA        12.8160   32.0010  103.2820 C.3   113  GLY113      0.1869
     44  C         11.8650   30.8510  103.5100 C.2   113  GLY113      0.2309
     45  O         11.6670   30.0460  102.6470 O.2   113  GLY113     -0.2863
     46  N          8.8870   31.0740  101.3260 N.3   116  TYR116     -0.1227
     47  CA         9.3580   30.7400   99.9770 C.3   116  TYR116      0.1736
     48  C          9.4190   29.2210   99.8070 C.2   116  TYR116      0.2595
     49  O          8.7680   28.6850   98.8960 O.2   116  TYR116     -0.2718
     50  CB        10.7170   31.3510   99.6190 C.3   116  TYR116      0.0548
     51  CG        11.3050   30.7250   98.3410 C.ar  116  TYR116     -0.0200
     52  CD1       10.7240   30.9880   97.0780 C.ar  116  TYR116     -0.0009
     53  CD2       12.3750   29.8320   98.4060 C.ar  116  TYR116     -0.0009
     54  CE1       11.2250   30.4310   95.9040 C.ar  116  TYR116      0.0417
     55  CE2       12.8670   29.2290   97.2640 C.ar  116  TYR116      0.0417
     56  CZ        12.3040   29.5540   95.9970 C.ar  116  TYR116      0.1957
     57  OH        12.7820   28.9980   94.8340 O.3   116  TYR116     -0.2866
     58  N         10.1620   28.5500  100.6780 N.am  117  HIS117     -0.1975
     59  CA        10.4360   27.1210  100.4830 C.3   117  HIS117      0.1656
     60  C          9.1390   26.3270  100.6870 C.2   117  HIS117      0.2291
     61  O          8.9500   25.2440  100.0980 O.2   117  HIS117     -0.2864
     62  CB        11.5860   26.6470  101.4010 C.3   117  HIS117      0.0771
     63  CG        12.9780   27.0250  100.9320 C.ar  117  HIS117      0.0820
     64  ND1       13.5450   26.4700   99.8100 N.ar  117  HIS117     -0.2267
     65  CD2       13.9390   27.8330  101.4720 C.ar  117  HIS117      0.1154
     66  CE1       14.7780   26.9450   99.6530 C.ar  117  HIS117      0.1986
     67  NE2       15.0650   27.7690  100.6600 N.ar  117  HIS117     -0.2212
     68  N         10.8480   24.5050   95.1440 N.3   122  PRO122     -0.2116
     69  CA        10.6090   23.1130   94.7680 C.3   122  PRO122      0.1372
     70  C         10.2030   22.2830   95.9550 C.2   122  PRO122      0.2244
     71  O         10.8340   22.3580   96.9970 O.2   122  PRO122     -0.2868
     72  CB        11.9640   22.6470   94.2160 C.3   122  PRO122      0.0268
     73  CG        12.9740   23.6340   94.7180 C.3   122  PRO122      0.0207
     74  CD        12.2350   24.9200   94.8880 C.3   122  PRO122      0.0892
     75  N         13.6420   18.5300   97.0270 N.3   125  LEU125     -0.1245
     76  CA        14.9400   19.1070   96.6910 C.3   125  LEU125      0.1561
     77  C         15.8580   18.1860   95.8870 C.2   125  LEU125      0.2260
     78  O         16.8380   18.6400   95.3150 O.2   125  LEU125     -0.2867
     79  CB        15.6750   19.5470   97.9640 C.3   125  LEU125      0.0270
     80  CG        14.8800   20.5610   98.7880 C.3   125  LEU125      0.0019
     81  CD1       15.6880   20.8930  100.0420 C.3   125  LEU125      0.0001
     82  CD2       14.5030   21.8180   97.9710 C.3   125  LEU125      0.0001
     83  N         16.4170   18.8380   92.2750 N.3   128  TYR128     -0.1241
     84  CA        17.0390   20.1630   92.1590 C.3   128  TYR128      0.1605
     85  C         18.5180   20.1030   92.5250 C.2   128  TYR128      0.2264
     86  O         19.3270   20.6520   91.8140 O.2   128  TYR128     -0.2867
     87  CB        16.3080   21.2170   93.0010 C.3   128  TYR128      0.0534
     88  CG        17.0990   22.4570   93.2060 C.ar  128  TYR128     -0.0201
     89  CD1       17.2100   23.4060   92.1820 C.ar  128  TYR128     -0.0009
     90  CD2       17.7600   22.7090   94.4220 C.ar  128  TYR128     -0.0009
     91  CE1       17.9560   24.5660   92.3550 C.ar  128  TYR128      0.0417
     92  CE2       18.5040   23.8660   94.5940 C.ar  128  TYR128      0.0417
     93  CZ        18.6020   24.7990   93.5640 C.ar  128  TYR128      0.1957
     94  OH        19.3400   25.9750   93.7500 O.3   128  TYR128     -0.2866
     95  N         21.6440   19.5300   98.7250 N.3   132  PHE132     -0.1241
     96  CA        20.5180   19.8660   99.6240 C.3   132  PHE132      0.1605
     97  C         19.4540   18.7570   99.7100 C.2   132  PHE132      0.2264
     98  O         18.7370   18.6340  100.7150 O.2   132  PHE132     -0.2867
     99  CB        19.8770   21.2000   99.2220 C.3   132  PHE132      0.0534
    100  CG        20.8150   22.3720   99.3500 C.ar  132  PHE132     -0.0203
    101  CD1       21.0900   22.9220  100.6010 C.ar  132  PHE132     -0.0042
    102  CD2       21.4410   22.8960   98.2320 C.ar  132  PHE132     -0.0042
    103  CE1       21.9630   23.9620  100.7400 C.ar  132  PHE132     -0.0003
    104  CE2       22.3070   23.9560   98.3570 C.ar  132  PHE132     -0.0003
    105  CZ        22.5730   24.4870   99.6180 C.ar  132  PHE132     -0.0000
    106  N         25.5810   20.7660  111.4120 N.3   149  HIS149     -0.1241
    107  CA        24.8940   21.3800  112.5110 C.3   149  HIS149      0.1621
    108  C         25.7450   21.2830  113.8070 C.2   149  HIS149      0.2264
    109  O         25.7690   22.2180  114.5990 O.2   149  HIS149     -0.2867
    110  CB        23.4510   20.8520  112.6270 C.3   149  HIS149      0.0745
    111  CG        22.6040   21.1110  111.4060 C.ar  149  HIS149      0.0817
    112  ND1       21.4670   20.3960  111.1260 N.ar  149  HIS149     -0.2268
    113  CD2       22.7370   22.0110  110.3930 C.ar  149  HIS149      0.1154
    114  CE1       20.9360   20.8440  109.9910 C.ar  149  HIS149      0.1986
    115  NE2       21.6620   21.8560  109.5390 N.ar  149  HIS149     -0.2212
    116  N         28.1600   24.1230  113.6020 N.3   152  VAL152     -0.1245
    117  CA        27.4530   25.3820  113.8720 C.3   152  VAL152      0.1561
    118  C         27.2560   25.5830  115.4000 C.2   152  VAL152      0.2260
    119  O         27.5310   26.6480  115.9400 O.2   152  VAL152     -0.2867
    120  CB        26.1190   25.4120  113.0710 C.3   152  VAL152      0.0252
    121  CG1       25.2050   26.5460  113.5190 C.3   152  VAL152      0.0019
    122  CG2       26.3890   25.5030  111.5650 C.3   152  VAL152      0.0019
@<TRIPOS>BOND
     1    86    85    2
     2    84    83    1
     3    84    85    1
     4    84    87    1
     5    89    91   ar
     6    89    88   ar
     7    91    93   ar
     8    87    88    1
     9    88    90   ar
    10    93    94    1
    11    93    92   ar
    12    72    73    1
    13    72    69    1
    14    90    92   ar
    15    73    74    1
    16    69    68    1
    17    69    70    1
    18    57    56    1
    19    74    68    1
    20    78    77    2
    21    77    76    1
    22    54    56   ar
    23    54    52   ar
    24    70    71    2
    25    56    55   ar
    26    76    75    1
    27    76    79    1
    28    52    51   ar
    29    55    53   ar
    30    79    80    1
    31    82    80    1
    32   102   104   ar
    33   102   100   ar
    34    51    53   ar
    35    51    50    1
    36   104   105   ar
    37    95    96    1
    38    80    81    1
    39    49    48    2
    40    99   100    1
    41    99    96    1
    42   100   101   ar
    43    41    39   ar
    44    41    40   ar
    45   105   103   ar
    46    50    47    1
    47    96    97    1
    48    66    64   ar
    49    66    67   ar
    50    97    98    2
    51    39    37   ar
    52    48    47    1
    53    48    58   am
    54    64    63   ar
    55    47    46    1
    56    61    60    2
    57    40    38   ar
    58    59    58    1
    59    59    60    1
    60    59    62    1
    61   101   103   ar
    62    67    65   ar
    63    63    62    1
    64    63    65   ar
    65    37    36   ar
    66    38    36   ar
    67    36    35    1
    68     8     6    1
    69    34    33    2
    70    45    44    2
    71    43    44    1
    72    43    42    1
    73    33    42   am
    74    33    32    1
    75     5     6    1
    76     5     2    1
    77    35    32    1
    78     6     7    1
    79    32    31    1
    80     1     2    1
    81     2     3    1
    82     3     4    2
    83    19    18    2
    84    21    20    1
    85    15    13    1
    86    17    18    1
    87    17    20    1
    88    17    16    1
    89    18    23   am
    90    22    20    1
    91    26    25    2
    92    13    14    1
    93    13    10    1
    94    25    24    1
    95    23    24    1
    96    24    27    1
    97    10     9    1
    98    10    11    1
    99    11    12    2
   100    30    28    1
   101    27    28    1
   102   115   114   ar
   103   115   113   ar
   104   114   112   ar
   105    28    29    1
   106   113   111   ar
   107   112   111   ar
   108   111   110    1
   109   106   107    1
   110   122   120    1
   111   107   110    1
   112   107   108    1
   113   120   121    1
   114   120   117    1
   115   116   117    1
   116   108   109    2
   117   117   118    1
   118   118   119    2
