@<TRIPOS>MOLECULE
tmp/5v2cU09.pdb
 151 143 0 0 0
SMALL
GASTEIGER

@<TRIPOS>ATOM
      1  N        -45.6090  -20.4340  143.2580 N.3    15  PRO15      -0.2116
      2  CA       -46.2620  -19.7000  144.3530 C.3    15  PRO15       0.1372
      3  C        -46.1220  -20.3660  145.7290 C.2    15  PRO15       0.2244
      4  O        -45.8980  -19.7030  146.7170 O.2    15  PRO15      -0.2868
      5  CB       -47.7170  -19.6800  143.9230 C.3    15  PRO15       0.0268
      6  CG       -47.6160  -19.7170  142.4340 C.3    15  PRO15       0.0207
      7  CD       -46.4980  -20.6420  142.1230 C.3    15  PRO15       0.0892
      8  N        -42.6160  -19.7840  146.9410 N.3    18  LEU18      -0.1231
      9  CA       -42.4860  -18.3780  147.2590 C.3    18  LEU18       0.1693
     10  C        -43.0600  -18.0950  148.6460 C.2    18  LEU18       0.2591
     11  O        -42.4480  -17.3890  149.4560 O.2    18  LEU18      -0.2718
     12  CB       -43.1740  -17.4920  146.2150 C.3    18  LEU18       0.0284
     13  CG       -43.0870  -15.9620  146.4930 C.3    18  LEU18       0.0019
     14  CD1      -41.6690  -15.4780  146.2850 C.3    18  LEU18       0.0001
     15  CD2      -43.9800  -15.2150  145.5600 C.3    18  LEU18       0.0001
     16  N        -44.2540  -18.6170  148.8790 N.am   19  ILE19      -0.1980
     17  CA       -44.8850  -18.5010  150.1990 C.3    19  ILE19       0.1595
     18  C        -43.9990  -19.0770  151.2800 C.2    19  ILE19       0.2287
     19  O        -43.8630  -18.4720  152.3230 O.2    19  ILE19      -0.2864
     20  CB       -46.2720  -19.1920  150.1940 C.3    19  ILE19       0.0276
     21  CG1      -47.2200  -18.3260  149.3700 C.3    19  ILE19       0.0022
     22  CG2      -46.8660  -19.3710  151.6030 C.3    19  ILE19       0.0022
     23  CD1      -48.5370  -18.9730  148.9880 C.3    19  ILE19       0.0001
     24  N        -41.1620  -16.7210  151.8320 N.3    22  HIS22      -0.1226
     25  CA       -41.7280  -15.6270  152.5730 C.3    22  HIS22       0.1752
     26  C        -41.9730  -15.9890  154.0580 C.2    22  HIS22       0.2595
     27  O        -41.7030  -15.1780  154.9330 O.2    22  HIS22      -0.2718
     28  CB       -42.9680  -15.0000  151.8740 C.3    22  HIS22       0.0759
     29  CG       -42.5930  -14.2120  150.6440 C.ar   22  HIS22       0.0818
     30  ND1      -43.5110  -13.7640  149.7410 N.ar   22  HIS22      -0.2268
     31  CD2      -41.3780  -13.7900  150.1740 C.ar   22  HIS22       0.1154
     32  CE1      -42.8910  -13.0880  148.7680 C.ar   22  HIS22       0.1986
     33  NE2      -41.5920  -13.0600  149.0090 N.ar   22  HIS22      -0.2212
     34  N        -42.4760  -17.2010  154.3070 N.am   23  LEU23      -0.1980
     35  CA       -42.6730  -17.6920  155.6600 C.3    23  LEU23       0.1596
     36  C        -41.3620  -17.7310  156.4000 C.2    23  LEU23       0.2287
     37  O        -41.2660  -17.3200  157.5590 O.2    23  LEU23      -0.2864
     38  CB       -43.3730  -19.0690  155.6090 C.3    23  LEU23       0.0297
     39  CG       -44.9240  -19.0020  155.4040 C.3    23  LEU23       0.0022
     40  CD1      -45.4360  -20.3980  154.9990 C.3    23  LEU23       0.0001
     41  CD2      -45.6550  -18.4770  156.6620 C.3    23  LEU23       0.0001
     42  N        -40.2400  -14.2970  157.3090 N.3    26  THR26      -0.1218
     43  CA       -41.0230  -13.8290  158.4390 C.3    26  THR26       0.1862
     44  C        -40.5840  -14.4690  159.7520 C.2    26  THR26       0.2287
     45  O        -40.5200  -13.7880  160.7980 O.2    26  THR26      -0.2866
     46  CB       -42.5350  -14.0720  158.1760 C.3    26  THR26       0.1770
     47  OG1      -42.8360  -13.5790  156.8350 O.3    26  THR26      -0.2211
     48  CG2      -43.3980  -13.3580  159.2210 C.3    26  THR26       0.0375
     49  N        -43.9490  -17.5210  167.6840 N.3   102  LEU102     -0.1245
     50  CA       -44.3760  -17.2130  166.3210 C.3   102  LEU102      0.1561
     51  C        -43.3530  -17.6330  165.2700 C.2   102  LEU102      0.2260
     52  O        -43.6960  -18.2170  164.2460 O.2   102  LEU102     -0.2867
     53  CB       -44.6550  -15.7010  166.2170 C.3   102  LEU102      0.0270
     54  CG       -45.0240  -15.1520  164.8360 C.3   102  LEU102      0.0019
     55  CD1      -46.2920  -15.8160  164.2560 C.3   102  LEU102      0.0001
     56  CD2      -45.1830  -13.6720  164.9400 C.3   102  LEU102      0.0001
     57  N        -43.9630  -20.2410  162.1650 N.3   106  LEU106     -0.1245
     58  CA       -43.7260  -19.8240  160.8060 C.3   106  LEU106      0.1561
     59  C        -42.7060  -20.7270  160.1480 C.2   106  LEU106      0.2260
     60  O        -42.8630  -21.0430  158.9750 O.2   106  LEU106     -0.2867
     61  CB       -43.2470  -18.3510  160.7650 C.3   106  LEU106      0.0270
     62  CG       -44.3030  -17.3320  161.2440 C.3   106  LEU106      0.0019
     63  CD1      -43.6980  -15.9610  161.4320 C.3   106  LEU106      0.0001
     64  CD2      -45.4690  -17.2450  160.2660 C.3   106  LEU106      0.0001
     65  N        -45.1530  -25.7060  153.3040 N.3   113  HIS113     -0.1241
     66  CA       -45.4110  -25.0400  152.0420 C.3   113  HIS113      0.1621
     67  C        -44.3110  -25.3700  151.0030 C.2   113  HIS113      0.2264
     68  O        -44.5670  -25.4500  149.7640 O.2   113  HIS113     -0.2867
     69  CB       -45.6850  -23.5120  152.2730 C.3   113  HIS113      0.0745
     70  CG       -47.1300  -23.2020  152.5550 C.ar  113  HIS113      0.0817
     71  ND1      -48.0840  -23.2480  151.5690 N.ar  113  HIS113     -0.2268
     72  CD2      -47.7890  -22.8530  153.6990 C.ar  113  HIS113      0.1154
     73  CE1      -49.2690  -22.9310  152.0920 C.ar  113  HIS113      0.1986
     74  NE2      -49.1280  -22.6600  153.3860 N.ar  113  HIS113     -0.2212
     75  N        -54.6810  -24.8410  144.1230 N.3   121  LEU121     -0.1231
     76  CA       -55.0440  -23.4270  144.3100 C.3   121  LEU121      0.1693
     77  C        -54.1660  -22.5200  143.4770 C.2   121  LEU121      0.2592
     78  O        -54.5990  -21.4280  143.0580 O.2   121  LEU121     -0.2718
     79  CB       -54.8960  -23.0260  145.7900 C.3   121  LEU121      0.0284
     80  CG       -55.1790  -21.5840  146.1650 C.3   121  LEU121      0.0019
     81  CD1      -56.6200  -21.2190  145.7730 C.3   121  LEU121      0.0001
     82  CD2      -54.9100  -21.3720  147.6610 C.3   121  LEU121      0.0001
     83  N        -52.9320  -22.9690  143.2680 N.am  122  PHE122     -0.1976
     84  CA       -51.8940  -22.1390  142.5910 C.3   122  PHE122      0.1639
     85  C        -51.8910  -22.2860  141.0690 C.2   122  PHE122      0.2290
     86  O        -51.0750  -21.6640  140.3690 O.2   122  PHE122     -0.2864
     87  CB       -50.5140  -22.4850  143.1160 C.3   122  PHE122      0.0560
     88  CG       -50.3610  -22.3460  144.6030 C.ar  122  PHE122     -0.0200
     89  CD1      -50.9920  -21.3350  145.3030 C.ar  122  PHE122     -0.0042
     90  CD2      -49.5240  -23.1880  145.2740 C.ar  122  PHE122     -0.0042
     91  CE1      -50.8110  -21.1880  146.6570 C.ar  122  PHE122     -0.0003
     92  CE2      -49.3460  -23.0610  146.6250 C.ar  122  PHE122     -0.0003
     93  CZ       -50.0360  -22.0830  147.3400 C.ar  122  PHE122     -0.0000
     94  N        -50.9830  -16.6070  139.6790 N.3   132  LEU132     -0.1231
     95  CA       -51.5020  -15.8030  140.8180 C.3   132  LEU132      0.1693
     96  C        -52.2640  -14.6330  140.2370 C.2   132  LEU132      0.2592
     97  O        -51.7140  -13.9140  139.4250 O.2   132  LEU132     -0.2718
     98  CB       -50.3120  -15.2590  141.6440 C.3   132  LEU132      0.0284
     99  CG       -49.5860  -16.3160  142.4670 C.3   132  LEU132      0.0019
    100  CD1      -48.3460  -15.6940  143.0840 C.3   132  LEU132      0.0001
    101  CD2      -50.5180  -16.8850  143.5080 C.3   132  LEU132      0.0001
    102  N        -53.5360  -14.4570  140.6150 N.am  133  ASP133     -0.1974
    103  CA       -54.2900  -13.2850  140.1850 C.3   133  ASP133      0.1709
    104  C        -53.9220  -12.0730  141.0590 C.2   133  ASP133      0.2293
    105  O        -54.5790  -11.7430  142.0320 O.2   133  ASP133     -0.2864
    106  CB       -55.7830  -13.5810  140.2290 C.3   133  ASP133      0.1436
    107  CG       -56.6340  -12.4670  139.6760 C.2   133  ASP133      0.3671
    108  OD1      -56.0830  -11.5430  138.9950 O.co2 133  ASP133     -0.2456
    109  OD2      -57.8710  -12.5520  139.9280 O.co2 133  ASP133     -0.2456
    110  N        -55.5560  -10.3680  144.5930 N.3   137  MET137     -0.1245
    111  CA       -54.7980  -10.5350  145.8050 C.3   137  MET137      0.1570
    112  C        -54.5480   -9.1810  146.4430 C.2   137  MET137      0.2261
    113  O        -54.5700   -9.0710  147.6550 O.2   137  MET137     -0.2867
    114  CB       -53.4310  -11.1710  145.5270 C.3   137  MET137      0.0387
    115  CG       -53.5400  -12.6520  145.2300 C.3   137  MET137      0.0595
    116  SD       -52.1010  -13.3180  144.3830 S.3   137  MET137     -0.1393
    117  CE       -50.7610  -12.6980  145.3880 C.3   137  MET137      0.0692
    118  N        -57.6770   -8.1930  148.3010 N.3   140  ILE140     -0.1231
    119  CA       -57.7990   -9.0050  149.4910 C.3   140  ILE140      0.1692
    120  C        -56.8260   -8.5080  150.5470 C.2   140  ILE140      0.2592
    121  O        -57.2280   -8.2220  151.6740 O.2   140  ILE140     -0.2718
    122  CB       -57.5340  -10.4780  149.1790 C.3   140  ILE140      0.0266
    123  CG1      -58.6580  -11.0430  148.2900 C.3   140  ILE140      0.0019
    124  CG2      -57.4900  -11.2820  150.4570 C.3   140  ILE140      0.0020
    125  CD1      -58.2420  -12.2290  147.4960 C.3   140  ILE140      0.0001
    126  N        -55.5510   -8.3920  150.1690 N.am  141  HIS141     -0.1976
    127  CA       -54.5500   -7.9520  151.1360 C.3   141  HIS141      0.1656
    128  C        -54.8170   -6.4970  151.6100 C.2   141  HIS141      0.2291
    129  O        -54.6140   -6.1710  152.7880 O.2   141  HIS141     -0.2864
    130  CB       -53.1210   -8.2230  150.6340 C.3   141  HIS141      0.0771
    131  CG       -52.8140   -9.6790  150.4100 C.ar  141  HIS141      0.0820
    132  ND1      -51.7310  -10.0990  149.6510 N.ar  141  HIS141     -0.2267
    133  CD2      -53.4260  -10.8110  150.8560 C.ar  141  HIS141      0.1154
    134  CE1      -51.7200  -11.4250  149.6190 C.ar  141  HIS141      0.1986
    135  NE2      -52.7110  -11.9000  150.3730 N.ar  141  HIS141     -0.2212
    136  N        -57.7360   -6.5100  154.1880 N.3   144  LEU144     -0.1245
    137  CA       -57.2050   -6.9870  155.4760 C.3   144  LEU144      0.1561
    138  C        -56.3490   -5.8960  156.1290 C.2   144  LEU144      0.2260
    139  O        -56.4150   -5.6820  157.3170 O.2   144  LEU144     -0.2867
    140  CB       -56.3470   -8.2330  155.2770 C.3   144  LEU144      0.0270
    141  CG       -57.1750   -9.4140  154.7720 C.3   144  LEU144      0.0019
    142  CD1      -56.2840  -10.5270  154.2510 C.3   144  LEU144      0.0001
    143  CD2      -58.0720   -9.9810  155.8410 C.3   144  LEU144      0.0001
    144  N        -45.3370  -11.0410  138.3640 N.3   233  ILE233     -0.1245
    145  CA       -45.1780  -10.7380  139.7700 C.3   233  ILE233      0.1561
    146  C        -44.0370   -9.7400  140.0600 C.2   233  ILE233      0.2260
    147  O        -44.0390   -9.0700  141.0960 O.2   233  ILE233     -0.2867
    148  CB       -44.9750  -12.0620  140.5440 C.3   233  ILE233      0.0252
    149  CG1      -45.1510  -11.8440  142.0510 C.3   233  ILE233      0.0019
    150  CG2      -43.6170  -12.7280  140.1680 C.3   233  ILE233      0.0019
    151  CD1      -45.2500  -13.1420  142.8110 C.3   233  ILE233      0.0001
@<TRIPOS>BOND
     1   144   145    1
     2   108   107   ar
     3    97    96    2
     4   107   109   ar
     5   107   106    1
     6    94    95    1
     7   145   146    1
     8   145   148    1
     9   146   147    2
    10   150   148    1
    11   103   106    1
    12   103   102    1
    13   103   104    1
    14    96   102   am
    15    96    95    1
    16    86    85    2
    17   148   149    1
    18    95    98    1
    19   104   105    2
    20    85    84    1
    21    98    99    1
    22   149   151    1
    23     7     6    1
    24     7     1    1
    25     6     5    1
    26    99   100    1
    27    99   101    1
    28    84    87    1
    29    84    83    1
    30    78    77    2
    31    87    88    1
    32     1     2    1
    33    83    77   am
    34    77    76    1
    35     5     2    1
    36    75    76    1
    37    76    79    1
    38     2     3    1
    39   116   115    1
    40   116   117    1
    41   110   111    1
    42    88    90   ar
    43    88    89   ar
    44   115   114    1
    45    90    92   ar
    46    89    91   ar
    47   114   111    1
    48    15    13    1
    49     3     4    2
    50    81    80    1
    51    79    80    1
    52   111   112    1
    53    80    82    1
    54    12    13    1
    55    12     9    1
    56    14    13    1
    57   112   113    2
    58    92    93   ar
    59    91    93   ar
    60     8     9    1
    61     9    10    1
    62   125   123    1
    63   123   122    1
    64   118   119    1
    65    10    16   am
    66    10    11    2
    67    32    33   ar
    68    32    30   ar
    69    16    17    1
    70    23    21    1
    71    33    31   ar
    72   122   119    1
    73   122   124    1
    74    21    20    1
    75   119   120    1
    76   134   132   ar
    77   134   135   ar
    78   132   131   ar
    79    30    29   ar
    80    68    67    2
    81   126   120   am
    82   126   127    1
    83    31    29   ar
    84    20    17    1
    85    20    22    1
    86    17    18    1
    87   135   133   ar
    88   131   130    1
    89   131   133   ar
    90   120   121    2
    91   130   127    1
    92    29    28    1
    93    67    66    1
    94   127   128    1
    95    18    19    2
    96    71    73   ar
    97    71    70   ar
    98   128   129    2
    99    24    25    1
   100    28    25    1
   101    66    69    1
   102    66    65    1
   103    73    74   ar
   104    69    70    1
   105    70    72   ar
   106    25    26    1
   107    74    72   ar
   108    26    34   am
   109    26    27    2
   110   136   137    1
   111   142   141    1
   112    34    35    1
   113   141   140    1
   114   141   143    1
   115    40    39    1
   116   140   137    1
   117    39    38    1
   118    39    41    1
   119   137   138    1
   120    38    35    1
   121    35    36    1
   122   138   139    2
   123    36    37    2
   124    47    46    1
   125    42    43    1
   126    46    43    1
   127    46    48    1
   128    43    44    1
   129    60    59    2
   130    44    45    2
   131    59    58    1
   132    64    62    1
   133    61    58    1
   134    61    62    1
   135    58    57    1
   136    62    63    1
   137    52    51    2
   138    55    54    1
   139    54    56    1
   140    54    53    1
   141    51    50    1
   142    53    50    1
   143    50    49    1
