@<TRIPOS>MOLECULE
tmp/5v2cU00.pdb
 170 168 0 0 0
SMALL
GASTEIGER

@<TRIPOS>ATOM
      1  N        -39.7820    0.5320  171.2170 N.3    64  PHE64      -0.1227
      2  CA       -40.9390    0.1900  170.3730 C.3    64  PHE64       0.1736
      3  C        -41.9800   -0.5980  171.1200 C.2    64  PHE64       0.2595
      4  O        -43.1840   -0.4280  170.8510 O.2    64  PHE64      -0.2718
      5  CB       -40.4710   -0.5710  169.1090 C.3    64  PHE64       0.0547
      6  CG       -39.7600    0.2930  168.1320 C.ar   64  PHE64      -0.0202
      7  CD1      -40.4600    1.0120  167.2430 C.ar   64  PHE64      -0.0042
      8  CD2      -38.3790    0.4330  168.1690 C.ar   64  PHE64      -0.0042
      9  CE1      -39.8330    1.8590  166.3820 C.ar   64  PHE64      -0.0003
     10  CE2      -37.7470    1.2650  167.3550 C.ar   64  PHE64      -0.0003
     11  CZ       -38.4560    2.0080  166.4170 C.ar   64  PHE64      -0.0000
     12  N        -41.5340   -1.4380  172.0760 N.am   65  MET65      -0.1979
     13  CA       -42.4980   -2.0980  172.9500 C.3    65  MET65       0.1605
     14  C        -43.2250   -1.0440  173.8040 C.2    65  MET65       0.2287
     15  O        -44.4470   -1.0730  173.9190 O.2    65  MET65      -0.2864
     16  CB       -41.8490   -3.2060  173.7870 C.3    65  MET65       0.0413
     17  CG       -41.6110   -4.4730  172.9650 C.3    65  MET65       0.0598
     18  SD       -40.7010   -5.7920  173.7660 S.3    65  MET65      -0.1393
     19  CE       -39.0290   -5.1580  173.8070 C.3    65  MET65       0.0692
     20  N        -46.0610    1.3720  172.2680 N.3    68  LEU68      -0.1231
     21  CA       -47.4210    0.8510  172.1550 C.3    68  LEU68       0.1693
     22  C        -48.0190    0.2510  173.4060 C.2    68  LEU68       0.2593
     23  O        -49.1030   -0.3750  173.3000 O.2    68  LEU68      -0.2718
     24  CB       -47.4520   -0.1810  171.0320 C.3    68  LEU68       0.0284
     25  CG       -47.1050    0.4200  169.7000 C.3    68  LEU68       0.0019
     26  CD1      -47.2090   -0.7550  168.7700 C.3    68  LEU68       0.0001
     27  CD2      -48.1150    1.5590  169.3140 C.3    68  LEU68       0.0001
     28  N        -47.3590    0.4290  174.5720 N.am   69  GLY69      -0.1942
     29  CA       -47.9750    0.0920  175.8630 C.3    69  GLY69       0.2014
     30  C        -47.3910   -1.0170  176.6790 C.2    69  GLY69       0.2638
     31  O        -47.9120   -1.2950  177.7610 O.2    69  GLY69      -0.2714
     32  N        -46.3190   -1.6510  176.2060 N.am   70  VAL70      -0.1977
     33  CA       -45.6310   -2.6480  177.0170 C.3    70  VAL70       0.1596
     34  C        -44.5470   -1.9540  177.8230 C.2    70  VAL70       0.2287
     35  O        -43.5270   -1.5300  177.2570 O.2    70  VAL70      -0.2864
     36  CB       -45.0170   -3.7180  176.1360 C.3    70  VAL70       0.0276
     37  CG1      -44.2140   -4.6990  176.9920 C.3    70  VAL70       0.0022
     38  CG2      -46.1650   -4.4010  175.3690 C.3    70  VAL70       0.0022
     39  N        -47.7220   -6.5950  185.1570 N.3    87  PRO87      -0.2116
     40  CA       -48.0790   -6.2790  183.7980 C.3    87  PRO87       0.1372
     41  C        -48.8900   -7.3570  183.0860 C.2    87  PRO87       0.2244
     42  O        -49.1950   -7.1860  181.9310 O.2    87  PRO87      -0.2868
     43  CB       -46.7110   -6.1360  183.1270 C.3    87  PRO87       0.0268
     44  CG       -45.9010   -7.1830  183.8060 C.3    87  PRO87       0.0207
     45  CD       -46.3940   -7.2410  185.2410 C.3    87  PRO87       0.0892
     46  N        -48.2880   -9.7270  178.9540 N.3    90  TRP90      -0.1241
     47  CA       -47.6670   -8.8140  178.0090 C.3    90  TRP90       0.1605
     48  C        -46.6890   -7.8630  178.6410 C.2    90  TRP90       0.2264
     49  O        -46.7480   -6.6370  178.4380 O.2    90  TRP90      -0.2867
     50  CB       -48.7360   -8.0850  177.1800 C.3    90  TRP90       0.0550
     51  CG       -49.5830   -9.0350  176.3240 C.ar   90  TRP90       0.0003
     52  CD1      -50.9260   -9.2400  176.4310 C.ar   90  TRP90       0.0946
     53  CD2      -49.1540   -9.8940  175.2440 C.ar   90  TRP90       0.0152
     54  NE1      -51.3390  -10.1460  175.5280 N.ar   90  TRP90      -0.2442
     55  CE2      -50.2870  -10.5700  174.7760 C.ar   90  TRP90       0.0810
     56  CE3      -47.9180  -10.1580  174.6290 C.ar   90  TRP90       0.0012
     57  CZ2      -50.2290  -11.4940  173.7190 C.ar   90  TRP90       0.0191
     58  CZ3      -47.8600  -11.0620  173.5870 C.ar   90  TRP90       0.0001
     59  CH2      -48.9830  -11.7200  173.1400 C.ar   90  TRP90       0.0015
     60  N        -43.7550  -10.4820  175.4210 N.3    95  VAL95      -0.1245
     61  CA       -43.6650  -10.0960  174.0300 C.3    95  VAL95       0.1561
     62  C        -42.5370  -10.8840  173.3720 C.2    95  VAL95       0.2260
     63  O        -42.6840  -11.3920  172.2440 O.2    95  VAL95      -0.2867
     64  CB       -43.4220   -8.5630  173.8690 C.3    95  VAL95       0.0252
     65  CG1      -43.1360   -8.2340  172.4270 C.3    95  VAL95       0.0019
     66  CG2      -44.6530   -7.7620  174.3520 C.3    95  VAL95       0.0019
     67  N        -43.6160  -14.4840  172.7900 N.3    98  ALA98      -0.1231
     68  CA       -44.6120  -14.6140  171.7340 C.3    98  ALA98       0.1694
     69  C        -43.9480  -14.5830  170.3420 C.2    98  ALA98       0.2592
     70  O        -44.3490  -15.3310  169.4260 O.2    98  ALA98      -0.2718
     71  CB       -45.6080  -13.4640  171.8710 C.3    98  ALA98       0.0304
     72  N        -42.9320  -13.7340  170.1820 N.am   99  HIS99      -0.1976
     73  CA       -42.2600  -13.5860  168.9120 C.3    99  HIS99       0.1656
     74  C        -41.4110  -14.8280  168.5980 C.2    99  HIS99       0.2291
     75  O        -41.3240  -15.2580  167.4520 O.2    99  HIS99      -0.2864
     76  CB       -41.4240  -12.2630  168.8680 C.3    99  HIS99       0.0771
     77  CG       -42.2210  -11.0280  168.5300 C.ar   99  HIS99       0.0820
     78  ND1      -42.8800  -10.2800  169.4740 N.ar   99  HIS99      -0.2267
     79  CD2      -42.4240  -10.3820  167.3390 C.ar   99  HIS99       0.1154
     80  CE1      -43.4760   -9.2420  168.8730 C.ar   99  HIS99       0.1986
     81  NE2      -43.2060   -9.2690  167.5780 N.ar   99  HIS99      -0.2212
     82  N        -42.0780  -17.9660  169.7120 N.3   101  VAL101     -0.1231
     83  CA       -43.0340  -19.0100  169.4050 C.3   101  VAL101      0.1692
     84  C        -43.5850  -18.7500  167.9990 C.2   101  VAL101      0.2591
     85  O        -43.6530  -19.6680  167.1750 O.2   101  VAL101     -0.2718
     86  CB       -44.1420  -19.0900  170.4570 C.3   101  VAL101      0.0266
     87  CG1      -45.1520  -20.1620  170.0500 C.3   101  VAL101      0.0020
     88  CG2      -43.5350  -19.4810  171.8090 C.3   101  VAL101      0.0020
     89  N        -43.9490  -17.5210  167.6840 N.am  102  LEU102     -0.1980
     90  CA       -44.3760  -17.2130  166.3210 C.3   102  LEU102      0.1596
     91  C        -43.3530  -17.6330  165.2700 C.2   102  LEU102      0.2287
     92  O        -43.6960  -18.2170  164.2460 O.2   102  LEU102     -0.2864
     93  CB       -44.6550  -15.7010  166.2170 C.3   102  LEU102      0.0297
     94  CG       -45.0240  -15.1520  164.8360 C.3   102  LEU102      0.0022
     95  CD1      -46.2920  -15.8160  164.2560 C.3   102  LEU102      0.0001
     96  CD2      -45.1830  -13.6720  164.9400 C.3   102  LEU102      0.0001
     97  N        -43.4710  -21.4160  164.7100 N.3   105  LEU105     -0.1245
     98  CA       -44.6760  -21.7780  163.9640 C.3   105  LEU105      0.1561
     99  C        -44.5330  -21.4150  162.4640 C.2   105  LEU105      0.2260
    100  O        -44.9400  -22.1990  161.6040 O.2   105  LEU105     -0.2867
    101  CB       -45.9170  -21.1650  164.6040 C.3   105  LEU105      0.0270
    102  CG       -46.2380  -21.6050  166.0120 C.3   105  LEU105      0.0019
    103  CD1      -47.4950  -20.8550  166.4960 C.3   105  LEU105      0.0001
    104  CD2      -46.4810  -23.0880  166.0480 C.3   105  LEU105      0.0001
    105  N        -57.1820   -4.1740  159.7910 N.3   148  LEU148     -0.1245
    106  CA       -56.1760   -4.1320  160.8850 C.3   148  LEU148      0.1561
    107  C        -55.7970   -2.7150  161.3030 C.2   148  LEU148      0.2260
    108  O        -55.7480   -2.4050  162.5010 O.2   148  LEU148     -0.2867
    109  CB       -54.9570   -4.9280  160.4920 C.3   148  LEU148      0.0270
    110  CG       -53.8930   -5.1150  161.5520 C.3   148  LEU148      0.0019
    111  CD1      -54.4960   -5.6960  162.8370 C.3   148  LEU148      0.0001
    112  CD2      -52.8910   -6.0780  160.9610 C.3   148  LEU148      0.0001
    113  N        -58.7600   -1.2390  163.1570 N.3   151  GLY151     -0.1210
    114  CA       -58.8260   -1.8080  164.4950 C.3   151  GLY151      0.1956
    115  C        -57.7200   -1.2950  165.4300 C.2   151  GLY151      0.2611
    116  O        -57.9470   -1.0250  166.6020 O.2   151  GLY151     -0.2717
    117  N        -56.5080   -1.1690  164.8990 N.am  152  PHE152     -0.1976
    118  CA       -55.3850   -0.5920  165.6410 C.3   152  PHE152      0.1639
    119  C        -55.7090    0.8150  166.1470 C.2   152  PHE152      0.2290
    120  O        -55.5150    1.1300  167.3310 O.2   152  PHE152     -0.2864
    121  CB       -54.1290   -0.5980  164.7840 C.3   152  PHE152      0.0560
    122  CG       -52.9310    0.0220  165.4590 C.ar  152  PHE152     -0.0200
    123  CD1      -52.4710   -0.4850  166.6470 C.ar  152  PHE152     -0.0042
    124  CD2      -52.2870    1.0990  164.9050 C.ar  152  PHE152     -0.0042
    125  CE1      -51.3650    0.0460  167.2650 C.ar  152  PHE152     -0.0003
    126  CE2      -51.1510    1.6650  165.5310 C.ar  152  PHE152     -0.0003
    127  CZ       -50.6950    1.1390  166.7000 C.ar  152  PHE152     -0.0000
    128  N        -59.3970    0.7020  168.4940 N.3   155  PHE155     -0.1227
    129  CA       -59.4160   -0.0820  169.7310 C.3   155  PHE155      0.1736
    130  C        -58.1250    0.0420  170.5280 C.2   155  PHE155      0.2595
    131  O        -58.1100    0.3390  171.7400 O.2   155  PHE155     -0.2718
    132  CB       -59.6890   -1.5490  169.3800 C.3   155  PHE155      0.0547
    133  CG       -61.0130   -1.7530  168.7840 C.ar  155  PHE155     -0.0202
    134  CD1      -62.1040   -1.4420  169.5350 C.ar  155  PHE155     -0.0042
    135  CD2      -61.1770   -2.1690  167.4800 C.ar  155  PHE155     -0.0042
    136  CE1      -63.3730   -1.5400  169.0110 C.ar  155  PHE155     -0.0003
    137  CE2      -62.4610   -2.3100  166.9650 C.ar  155  PHE155     -0.0003
    138  CZ       -63.5520   -1.9740  167.7250 C.ar  155  PHE155     -0.0000
    139  N        -57.0300   -0.1900  169.8790 N.am  156  HIS156     -0.1975
    140  CA       -55.7380   -0.1660  170.6330 C.3   156  HIS156      0.1656
    141  C        -55.3640    1.2530  171.0530 C.2   156  HIS156      0.2291
    142  O        -55.2040    1.5250  172.2280 O.2   156  HIS156     -0.2864
    143  CB       -54.6490   -0.9080  169.8470 C.3   156  HIS156      0.0771
    144  CG       -53.3080   -0.9650  170.5290 C.ar  156  HIS156      0.0820
    145  ND1      -52.5820   -2.1500  170.7130 N.ar  156  HIS156     -0.2267
    146  CD2      -52.5370    0.0570  171.0170 C.ar  156  HIS156      0.1154
    147  CE1      -51.4370   -1.8160  171.3140 C.ar  156  HIS156      0.1986
    148  NE2      -51.3900   -0.5070  171.5190 N.ar  156  HIS156     -0.2212
    149  N        -60.2450   -0.8110  173.5030 N.3   161  PHE161     -0.1227
    150  CA       -59.8610   -2.1940  173.7860 C.3   161  PHE161      0.1736
    151  C        -58.3770   -2.3270  173.4480 C.2   161  PHE161      0.2596
    152  O        -58.0030   -2.6890  172.3340 O.2   161  PHE161     -0.2718
    153  CB       -60.7160   -3.1600  172.9740 C.3   161  PHE161      0.0547
    154  CG       -60.4440   -4.6140  173.2670 C.ar  161  PHE161     -0.0202
    155  CD1      -60.5670   -5.1030  174.5640 C.ar  161  PHE161     -0.0042
    156  CD2      -60.0880   -5.4840  172.2560 C.ar  161  PHE161     -0.0042
    157  CE1      -60.3100   -6.4230  174.8640 C.ar  161  PHE161     -0.0003
    158  CE2      -59.8370   -6.8160  172.5450 C.ar  161  PHE161     -0.0003
    159  CZ       -59.9560   -7.2830  173.8550 C.ar  161  PHE161     -0.0000
    160  N        -57.5590   -2.0100  174.4390 N.am  162  GLY162     -0.1943
    161  CA       -56.0900   -1.9280  174.2980 C.3   162  GLY162      0.1998
    162  C        -55.5600   -0.8220  175.2060 C.2   162  GLY162      0.2480
    163  O        -56.3200   -0.1570  175.8850 O.2   162  GLY162     -0.2729
    164  N        -54.2300   -0.6520  175.2490 N.am  163  PRO163     -0.2726
    165  CA       -53.5640    0.1580  176.2270 C.3   163  PRO163      0.1402
    166  C        -53.3550    1.6320  175.8620 C.2   163  PRO163      0.2269
    167  O        -52.9770    2.4080  176.7090 O.2   163  PRO163     -0.2865
    168  CB       -52.1880   -0.4700  176.2760 C.3   163  PRO163      0.0296
    169  CG       -51.9370   -0.8980  174.8600 C.3   163  PRO163      0.0237
    170  CD       -53.2880   -1.4270  174.4240 C.3   163  PRO163      0.0939
@<TRIPOS>BOND
     1   105   106    1
     2   109   106    1
     3   109   110    1
     4   106   107    1
     5   112   110    1
     6   107   108    2
     7   110   111    1
     8   100    99    2
     9    99    98    1
    10   113   114    1
    11    98   101    1
    12    98    97    1
    13    92    91    2
    14    95    94    1
    15   114   115    1
    16   101   102    1
    17   121   122    1
    18   121   118    1
    19    94    96    1
    20    94    93    1
    21   117   115   am
    22   117   118    1
    23   124   122   ar
    24   124   126   ar
    25    91    90    1
    26   115   116    2
    27   122   123   ar
    28   126   127   ar
    29   118   119    1
    30   102   104    1
    31   102   103    1
    32   119   120    2
    33    93    90    1
    34    90    89    1
    35     9    11   ar
    36     9     7   ar
    37    11    10   ar
    38   123   125   ar
    39   127   125   ar
    40   137   135   ar
    41   137   138   ar
    42    85    84    2
    43     7     6   ar
    44    79    81   ar
    45    79    77   ar
    46    10     8   ar
    47    75    74    2
    48   135   133   ar
    49    81    80   ar
    50    89    84   am
    51   138   136   ar
    52    84    83    1
    53     6     8   ar
    54     6     5    1
    55   128   129    1
    56    77    76    1
    57    77    78   ar
    58    74    73    1
    59    26    25    1
    60   133   132    1
    61   133   134   ar
    62    76    73    1
    63    80    78   ar
    64    73    72    1
    65   136   134   ar
    66     5     2    1
    67    27    25    1
    68   132   129    1
    69    83    82    1
    70    83    86    1
    71    70    69    2
    72    25    24    1
    73   129   130    1
    74   143   144    1
    75   143   140    1
    76   139   130   am
    77   139   140    1
    78    87    86    1
    79    72    69   am
    80    69    68    1
    81     2     3    1
    82     2     1    1
    83    86    88    1
    84   130   131    2
    85   144   145   ar
    86   144   146   ar
    87   140   141    1
    88   145   147   ar
    89     4     3    2
    90   146   148   ar
    91    24    21    1
    92   141   142    2
    93     3    12   am
    94   147   148   ar
    95    68    71    1
    96    68    67    1
    97    12    13    1
    98    21    20    1
    99    21    22    1
   100    63    62    2
   101   156   158   ar
   102   156   154   ar
   103   152   151    2
   104    65    64    1
   105   158   159   ar
   106    13    16    1
   107    13    14    1
   108    17    18    1
   109    17    16    1
   110   153   154    1
   111   153   150    1
   112    59    58   ar
   113    59    57   ar
   114   154   155   ar
   115    23    22    2
   116    62    61    1
   117    22    28   am
   118   151   150    1
   119   151   160   am
   120   149   150    1
   121    58    56   ar
   122    57    55   ar
   123    18    19    1
   124    14    15    2
   125   159   157   ar
   126    64    61    1
   127    64    66    1
   128    61    60    1
   129   161   160    1
   130   161   162    1
   131   170   169    1
   132   170   164    1
   133   155   157   ar
   134    28    29    1
   135    56    53   ar
   136    55    53   ar
   137    55    54   ar
   138   169   168    1
   139   162   164   am
   140   162   163    2
   141    53    51   ar
   142   164   165    1
   143    38    36    1
   144    54    52   ar
   145   166   165    1
   146   166   167    2
   147    29    30    1
   148    36    37    1
   149    36    33    1
   150    32    30   am
   151    32    33    1
   152   165   168    1
   153    51    52   ar
   154    51    50    1
   155    30    31    2
   156    33    34    1
   157    50    47    1
   158    35    34    2
   159    47    48    1
   160    47    46    1
   161    49    48    2
   162    42    41    2
   163    41    40    1
   164    43    40    1
   165    43    44    1
   166    40    39    1
   167    44    45    1
   168    39    45    1
