@<TRIPOS>MOLECULE
tmp/5v2cV04.pdb
 121 118 0 0 0
SMALL
GASTEIGER

@<TRIPOS>ATOM
      1  N         12.3790   26.4270  108.3870 N.3    39  VAL39      -0.1245
      2  CA        12.9400   27.7800  108.3440 C.3    39  VAL39       0.1561
      3  C         11.9520   28.8180  108.8690 C.2    39  VAL39       0.2260
      4  O         12.3380   29.6950  109.6340 O.2    39  VAL39      -0.2867
      5  CB        13.4730   28.1290  106.9470 C.3    39  VAL39       0.0252
      6  CG1       14.0100   29.5460  106.9590 C.3    39  VAL39       0.0019
      7  CG2       14.6300   27.1960  106.5960 C.3    39  VAL39       0.0019
      8  N         20.3120   50.4760  125.8410 N.3    94  PHE94      -0.1241
      9  CA        20.4500   50.3420  124.3940 C.3    94  PHE94       0.1605
     10  C         20.8360   48.9340  123.8750 C.2    94  PHE94       0.2264
     11  O         20.2800   48.4660  122.8890 O.2    94  PHE94      -0.2867
     12  CB        21.4100   51.4000  123.8460 C.3    94  PHE94       0.0534
     13  CG        21.4050   51.5070  122.3460 C.ar   94  PHE94      -0.0203
     14  CD1       20.3300   52.1090  121.6780 C.ar   94  PHE94      -0.0042
     15  CD2       22.4800   51.0080  121.5990 C.ar   94  PHE94      -0.0042
     16  CE1       20.3230   52.2040  120.2960 C.ar   94  PHE94      -0.0003
     17  CE2       22.4760   51.0760  120.2100 C.ar   94  PHE94      -0.0003
     18  CZ        21.3900   51.6680  119.5680 C.ar   94  PHE94      -0.0000
     19  N         17.8560   46.9430  123.5670 N.3    97  PHE97      -0.1227
     20  CA        17.1390   47.3850  122.3720 C.3    97  PHE97       0.1736
     21  C         17.7360   46.7780  121.0930 C.2    97  PHE97       0.2595
     22  O         16.9860   46.2540  120.2240 O.2    97  PHE97      -0.2718
     23  CB        17.1570   48.9370  122.3240 C.3    97  PHE97       0.0547
     24  CG        16.3710   49.5210  121.2100 C.ar   97  PHE97      -0.0202
     25  CD1       15.0080   49.3090  121.1330 C.ar   97  PHE97      -0.0042
     26  CD2       16.9810   50.3030  120.2570 C.ar   97  PHE97      -0.0042
     27  CE1       14.2490   49.8580  120.1070 C.ar   97  PHE97      -0.0003
     28  CE2       16.2390   50.8530  119.2380 C.ar   97  PHE97      -0.0003
     29  CZ        14.8620   50.6320  119.1560 C.ar   97  PHE97      -0.0000
     30  N         19.0710   46.8000  120.9990 N.am   98  VAL98      -0.1980
     31  CA        19.7420   46.2640  119.8350 C.3    98  VAL98       0.1595
     32  C         19.4450   44.7730  119.7110 C.2    98  VAL98       0.2287
     33  O         19.1070   44.3290  118.6410 O.2    98  VAL98      -0.2864
     34  CB        21.2530   46.4640  119.8920 C.3    98  VAL98       0.0276
     35  CG1       21.9100   45.6800  118.7630 C.3    98  VAL98       0.0022
     36  CG2       21.5960   47.9710  119.8260 C.3    98  VAL98       0.0022
     37  N         15.7810   44.4080  118.4200 N.3   101  VAL101     -0.1231
     38  CA        15.6300   44.8460  117.0370 C.3   101  VAL101      0.1692
     39  C         16.2450   43.8570  116.0570 C.2   101  VAL101      0.2591
     40  O         15.5870   43.4650  115.1020 O.2   101  VAL101     -0.2718
     41  CB        16.1710   46.2960  116.8420 C.3   101  VAL101      0.0266
     42  CG1       16.3430   46.6540  115.3580 C.3   101  VAL101      0.0020
     43  CG2       15.2260   47.2860  117.5720 C.3   101  VAL101      0.0020
     44  N         17.4820   43.4550  116.3210 N.am  102  VAL102     -0.1980
     45  CA        18.2020   42.5920  115.4080 C.3   102  VAL102      0.1595
     46  C         17.5270   41.2450  115.2670 C.2   102  VAL102      0.2287
     47  O         17.3640   40.7690  114.1350 O.2   102  VAL102     -0.2864
     48  CB        19.6840   42.4560  115.7850 C.3   102  VAL102      0.0276
     49  CG1       20.4090   41.4810  114.8710 C.3   102  VAL102      0.0022
     50  CG2       20.3710   43.8100  115.6450 C.3   102  VAL102      0.0022
     51  N         14.3220   41.8480  113.1320 N.3   105  ILE105     -0.1231
     52  CA        14.6630   42.0300  111.7220 C.3   105  ILE105      0.1692
     53  C         15.0530   40.6870  111.0670 C.2   105  ILE105      0.2592
     54  O         14.5780   40.3550  109.9650 O.2   105  ILE105     -0.2718
     55  CB        15.7900   43.0910  111.5070 C.3   105  ILE105      0.0266
     56  CG1       15.3150   44.5180  111.8590 C.3   105  ILE105      0.0019
     57  CG2       16.3070   43.0940  110.0620 C.3   105  ILE105      0.0020
     58  CD1       13.9880   44.9650  111.2570 C.3   105  ILE105      0.0001
     59  N         15.8840   39.9200  111.7660 N.am  106  SER106     -0.1952
     60  CA        16.2950   38.5960  111.2880 C.3   106  SER106      0.1924
     61  C         15.1270   37.6480  111.0600 C.2   106  SER106      0.2314
     62  O         15.1740   36.8040  110.1520 O.2   106  SER106     -0.2863
     63  CB        17.2900   38.0070  112.2430 C.3   106  SER106      0.2116
     64  OG        18.3820   38.9140  112.3820 O.3   106  SER106     -0.2180
     65  N         13.7050   37.7790  107.6330 N.3   109  VAL109     -0.1231
     66  CA        14.5100   37.0830  106.6280 C.3   109  VAL109      0.1692
     67  C         14.2190   35.5610  106.6640 C.2   109  VAL109      0.2591
     68  O         14.0100   34.9080  105.6300 O.2   109  VAL109     -0.2718
     69  CB        15.9970   37.3600  106.8330 C.3   109  VAL109      0.0266
     70  CG1       16.8360   36.6590  105.7660 C.3   109  VAL109      0.0020
     71  CG2       16.2560   38.8610  106.7880 C.3   109  VAL109      0.0020
     72  N         14.1950   35.0010  107.8640 N.am  110  LEU110     -0.1980
     73  CA        13.8540   33.5900  108.0610 C.3   110  LEU110      0.1596
     74  C         12.4020   33.3090  107.6080 C.2   110  LEU110      0.2287
     75  O         12.1450   32.3480  106.8790 O.2   110  LEU110     -0.2864
     76  CB        14.0690   33.1780  109.5290 C.3   110  LEU110      0.0297
     77  CG        15.5000   33.1210  110.0440 C.3   110  LEU110      0.0022
     78  CD1       15.5200   32.9460  111.5600 C.3   110  LEU110      0.0001
     79  CD2       16.2870   32.0220  109.3550 C.3   110  LEU110      0.0001
     80  N         10.1620   28.5500  100.6780 N.3   117  HIS117     -0.1241
     81  CA        10.4360   27.1210  100.4830 C.3   117  HIS117      0.1621
     82  C          9.1390   26.3270  100.6870 C.2   117  HIS117      0.2264
     83  O          8.9500   25.2440  100.0980 O.2   117  HIS117     -0.2867
     84  CB        11.5860   26.6470  101.4010 C.3   117  HIS117      0.0745
     85  CG        12.9780   27.0250  100.9320 C.ar  117  HIS117      0.0817
     86  ND1       13.5450   26.4700   99.8100 N.ar  117  HIS117     -0.2268
     87  CD2       13.9390   27.8330  101.4720 C.ar  117  HIS117      0.1154
     88  CE1       14.7780   26.9450   99.6530 C.ar  117  HIS117      0.1986
     89  NE2       15.0650   27.7690  100.6600 N.ar  117  HIS117     -0.2212
     90  N         23.2070   18.0260   96.8180 N.3   131  PHE131     -0.1227
     91  CA        23.7540   18.5160   98.0970 C.3   131  PHE131      0.1736
     92  C         22.6530   18.7610   99.1140 C.2   131  PHE131      0.2595
     93  O         22.7270   18.2690  100.2300 O.2   131  PHE131     -0.2718
     94  CB        24.5900   19.7900   97.8920 C.3   131  PHE131      0.0547
     95  CG        25.2140   20.2950   99.1420 C.ar  131  PHE131     -0.0202
     96  CD1       26.3600   19.6860   99.6560 C.ar  131  PHE131     -0.0042
     97  CD2       24.6460   21.3590   99.8390 C.ar  131  PHE131     -0.0042
     98  CE1       26.9470   20.1440  100.8390 C.ar  131  PHE131     -0.0003
     99  CE2       25.2320   21.8120  101.0100 C.ar  131  PHE131     -0.0003
    100  CZ        26.3890   21.2110  101.5100 C.ar  131  PHE131     -0.0000
    101  N         21.6440   19.5300   98.7250 N.am  132  PHE132     -0.1976
    102  CA        20.5180   19.8660   99.6240 C.3   132  PHE132      0.1639
    103  C         19.4540   18.7570   99.7100 C.2   132  PHE132      0.2290
    104  O         18.7370   18.6340  100.7150 O.2   132  PHE132     -0.2864
    105  CB        19.8770   21.2000   99.2220 C.3   132  PHE132      0.0560
    106  CG        20.8150   22.3720   99.3500 C.ar  132  PHE132     -0.0200
    107  CD1       21.0900   22.9220  100.6010 C.ar  132  PHE132     -0.0042
    108  CD2       21.4410   22.8960   98.2320 C.ar  132  PHE132     -0.0042
    109  CE1       21.9630   23.9620  100.7400 C.ar  132  PHE132     -0.0003
    110  CE2       22.3070   23.9560   98.3570 C.ar  132  PHE132     -0.0003
    111  CZ        22.5730   24.4870   99.6180 C.ar  132  PHE132     -0.0000
    112  N         25.5810   20.7660  111.4120 N.3   149  HIS149     -0.1241
    113  CA        24.8940   21.3800  112.5110 C.3   149  HIS149      0.1621
    114  C         25.7450   21.2830  113.8070 C.2   149  HIS149      0.2264
    115  O         25.7690   22.2180  114.5990 O.2   149  HIS149     -0.2867
    116  CB        23.4510   20.8520  112.6270 C.3   149  HIS149      0.0745
    117  CG        22.6040   21.1110  111.4060 C.ar  149  HIS149      0.0817
    118  ND1       21.4670   20.3960  111.1260 N.ar  149  HIS149     -0.2268
    119  CD2       22.7370   22.0110  110.3930 C.ar  149  HIS149      0.1154
    120  CE1       20.9360   20.8440  109.9910 C.ar  149  HIS149      0.1986
    121  NE2       21.6620   21.8560  109.5390 N.ar  149  HIS149     -0.2212
@<TRIPOS>BOND
     1    90    91    1
     2    94    91    1
     3    94    95    1
     4    91    92    1
     5   108   110   ar
     6   108   106   ar
     7   110   111   ar
     8   101    92   am
     9   101   102    1
    10    92    93    2
    11    95    96   ar
    12    95    97   ar
    13   105   106    1
    14   105   102    1
    15   106   107   ar
    16   111   109   ar
    17   102   103    1
    18    88    86   ar
    19    88    89   ar
    20    96    98   ar
    21   103   104    2
    22    86    85   ar
    23    97    99   ar
    24    83    82    2
    25    81    80    1
    26    81    82    1
    27    81    84    1
    28   107   109   ar
    29    89    87   ar
    30    98   100   ar
    31    85    84    1
    32    85    87   ar
    33    99   100   ar
    34    68    67    2
    35    70    69    1
    36     7     5    1
    37    66    67    1
    38    66    69    1
    39    66    65    1
    40    67    72   am
    41    71    69    1
    42    75    74    2
    43     5     6    1
    44     5     2    1
    45    74    73    1
    46    72    73    1
    47    73    76    1
    48     2     1    1
    49     2     3    1
    50     3     4    2
    51    79    77    1
    52    76    77    1
    53   121   120   ar
    54   121   119   ar
    55    54    53    2
    56   120   118   ar
    57    77    78    1
    58    57    55    1
    59    62    61    2
    60   119   117   ar
    61    61    60    1
    62    53    52    1
    63    53    59   am
    64   118   117   ar
    65    58    56    1
    66    60    59    1
    67    60    63    1
    68   117   116    1
    69   112   113    1
    70    55    52    1
    71    55    56    1
    72    52    51    1
    73    63    64    1
    74   113   116    1
    75   113   114    1
    76   114   115    2
    77    47    46    2
    78    49    48    1
    79    40    39    2
    80    46    45    1
    81    42    41    1
    82    45    48    1
    83    45    44    1
    84    50    48    1
    85    39    44   am
    86    39    38    1
    87    41    38    1
    88    41    43    1
    89    38    37    1
    90    33    32    2
    91    35    34    1
    92    29    28   ar
    93    29    27   ar
    94    28    26   ar
    95    18    17   ar
    96    18    16   ar
    97    32    31    1
    98    36    34    1
    99    31    34    1
   100    31    30    1
   101    27    25   ar
   102    17    15   ar
   103    22    21    2
   104    26    24   ar
   105    16    14   ar
   106    30    21   am
   107    21    20    1
   108    25    24   ar
   109    24    23    1
   110    15    13   ar
   111    14    13   ar
   112    23    20    1
   113    13    12    1
   114    20    19    1
   115    11    10    2
   116    12     9    1
   117    10     9    1
   118     9     8    1
