@<TRIPOS>MOLECULE
tmp/5v2cC17.pdb
 95 91 0 0 0
SMALL
GASTEIGER

@<TRIPOS>ATOM
      1  N        -37.0020  -80.1400  174.7820 N.3     6  GLN6       -0.1231
      2  CA       -37.2210  -78.9500  173.9500 C.3     6  GLN6        0.1698
      3  C        -37.9460  -79.3030  172.6640 C.2     6  GLN6        0.2592
      4  O        -38.8080  -78.5420  172.1980 O.2     6  GLN6       -0.2718
      5  CB       -35.9240  -78.2470  173.6020 C.3     6  GLN6        0.0381
      6  CG       -36.2080  -76.9830  172.7230 C.3     6  GLN6        0.0905
      7  CD       -35.1070  -75.9370  172.6600 C.2     6  GLN6        0.2608
      8  OE1      -35.2230  -74.9110  171.9520 O.2     6  GLN6       -0.2717
      9  NE2      -34.0320  -76.1810  173.3630 N.am    6  GLN6       -0.0878
     10  N        -37.6100  -80.4650  172.0950 N.am    7  GLU7       -0.1966
     11  CA       -38.1510  -80.8570  170.7640 C.3     7  GLU7        0.1733
     12  C        -39.6810  -81.0480  170.8710 C.2     7  GLU7        0.2617
     13  O        -40.4390  -80.5900  170.0010 O.2     7  GLU7       -0.2715
     14  CB       -37.4090  -82.0600  170.1120 C.3     7  GLU7        0.0429
     15  CG       -36.4310  -82.8870  170.9860 C.3     7  GLU7        0.1163
     16  CD       -35.1470  -82.1510  171.4760 C.2     7  GLU7        0.3649
     17  OE1      -34.2310  -81.8730  170.6700 O.co2   7  GLU7       -0.2457
     18  OE2      -35.0350  -81.8660  172.6970 O.co2   7  GLU7       -0.2457
     19  N        -40.1610  -81.6700  171.9490 N.am    8  SER8       -0.1936
     20  CA       -41.5980  -81.8790  172.0960 C.3     8  SER8        0.2055
     21  C        -42.3610  -80.6190  172.6080 C.2     8  SER8        0.2644
     22  O        -43.4770  -80.3310  172.1530 O.2     8  SER8       -0.2714
     23  CB       -41.8450  -83.0830  173.0120 C.3     8  SER8        0.2130
     24  OG       -41.5180  -82.7290  174.3390 O.3     8  SER8       -0.2179
     25  N        -41.7750  -79.8890  173.5400 N.am    9  SER9       -0.1935
     26  CA       -42.4550  -78.7590  174.2130 C.3     9  SER9        0.2055
     27  C        -42.2800  -77.4210  173.5210 C.2     9  SER9        0.2644
     28  O        -43.0950  -76.5080  173.6870 O.2     9  SER9       -0.2714
     29  CB       -41.9270  -78.6580  175.6410 C.3     9  SER9        0.2130
     30  OG       -40.5940  -78.0920  175.7480 O.3     9  SER9       -0.2179
     31  N        -41.1740  -77.2710  172.8070 N.am   10  GLY10      -0.1939
     32  CA       -40.8080  -75.9880  172.1990 C.3    10  GLY10       0.2014
     33  C        -40.0650  -75.0270  173.1070 C.2    10  GLY10       0.2635
     34  O        -39.6690  -73.9190  172.6710 O.2    10  GLY10      -0.2714
     35  N        -39.8610  -75.4510  174.3560 N.am   11  PHE11      -0.2026
     36  CA       -39.1610  -74.6500  175.3450 C.3    11  PHE11       0.1326
     37  C        -37.8970  -75.3220  175.8140 C.3    11  PHE11       0.2039
     38  O        -37.9080  -76.5490  176.1980 O.3    11  PHE11      -0.2185
     39  CB       -40.0710  -74.4170  176.5310 C.3    11  PHE11       0.0507
     40  CG       -41.1820  -73.4660  176.2400 C.ar   11  PHE11      -0.0204
     41  CD1      -40.9260  -72.0920  176.0610 C.ar   11  PHE11      -0.0042
     42  CD2      -42.5050  -73.9290  176.1660 C.ar   11  PHE11      -0.0042
     43  CE1      -41.9840  -71.2330  175.8510 C.ar   11  PHE11      -0.0003
     44  CE2      -43.5400  -73.0850  175.9290 C.ar   11  PHE11      -0.0003
     45  CZ       -43.2950  -71.7330  175.7450 C.ar   11  PHE11      -0.0000
     46  N        -42.3030  -73.2270  181.5830 N.3    18  ALA18      -0.1245
     47  CA       -43.2670  -72.8980  180.5240 C.3    18  ALA18       0.1562
     48  C        -43.8630  -74.1620  179.8500 C.2    18  ALA18       0.2260
     49  O        -44.9600  -74.1220  179.2460 O.2    18  ALA18      -0.2867
     50  CB       -42.5880  -72.0150  179.4750 C.3    18  ALA18       0.0290
     51  N        -47.5880  -74.9190  181.0670 N.3    21  ILE21      -0.1231
     52  CA       -48.6430  -73.9590  180.8870 C.3    21  ILE21       0.1692
     53  C        -49.9860  -74.6850  180.7620 C.2    21  ILE21       0.2592
     54  O        -50.9590  -74.3130  181.4080 O.2    21  ILE21      -0.2718
     55  CB       -48.3540  -73.0180  179.6600 C.3    21  ILE21       0.0266
     56  CG1      -47.2760  -72.0140  180.0380 C.3    21  ILE21       0.0019
     57  CG2      -49.6450  -72.2990  179.2320 C.3    21  ILE21       0.0020
     58  CD1      -46.6950  -71.2440  178.8860 C.3    21  ILE21       0.0001
     59  N        -50.0140  -75.7490  179.9620 N.am   22  ASN22      -0.1974
     60  CA       -51.2840  -76.4900  179.7140 C.3    22  ASN22       0.1688
     61  C        -51.3360  -77.8870  180.3330 C.2    22  ASN22       0.2292
     62  O        -51.9950  -78.7770  179.8270 O.2    22  ASN22      -0.2864
     63  CB       -51.5290  -76.5640  178.2190 C.3    22  ASN22       0.1181
     64  CG       -51.6480  -75.1900  177.6010 C.2    22  ASN22       0.2629
     65  OD1      -52.3760  -74.3310  178.1120 O.2    22  ASN22      -0.2716
     66  ND2      -50.9160  -74.9630  176.5240 N.am   22  ASN22      -0.0877
     67  N        -44.7680  -60.5720  176.0390 N.3   425  ARG425     -0.1245
     68  CA       -44.7470  -61.9230  175.4080 C.3   425  ARG425      0.1563
     69  C        -46.1450  -62.4190  175.2270 C.2   425  ARG425      0.2260
     70  O        -46.4680  -62.9710  174.1660 O.2   425  ARG425     -0.2867
     71  CB       -43.9300  -62.9600  176.2150 C.3   425  ARG425      0.0307
     72  CG       -43.5140  -64.1370  175.3390 C.3   425  ARG425      0.0489
     73  CD       -42.7480  -65.2610  176.0540 C.3   425  ARG425      0.2205
     74  NE       -42.5350  -66.3880  175.1680 N.pl3 425  ARG425     -0.0865
     75  CZ       -43.4730  -67.2600  174.8130 C.cat 425  ARG425      0.5346
     76  NH1      -44.6680  -67.2130  175.3440 N.pl3 425  ARG425      0.1354
     77  NH2      -43.2020  -68.1960  173.9370 N.pl3 425  ARG425      0.1354
     78  N        -44.6490  -64.2720  168.5070 N.3   434  GLU434     -0.1231
     79  CA       -43.6430  -64.4090  169.5780 C.3   434  GLU434      0.1699
     80  C        -42.3560  -65.1910  169.1860 C.2   434  GLU434      0.2592
     81  O        -41.3270  -65.1280  169.8850 O.2   434  GLU434     -0.2718
     82  CB       -44.2650  -65.0060  170.8310 C.3   434  GLU434      0.0402
     83  CG       -44.4200  -66.5380  170.8820 C.3   434  GLU434      0.1161
     84  CD       -45.5310  -67.1760  170.0110 C.2   434  GLU434      0.3649
     85  OE1      -46.1160  -66.5230  169.0920 O.co2 434  GLU434     -0.2457
     86  OE2      -45.7880  -68.3790  170.2140 O.co2 434  GLU434     -0.2457
     87  N        -42.4060  -65.9410  168.1010 N.am  435  LYS435     -0.1980
     88  CA       -41.2320  -66.6930  167.6460 C.3   435  LYS435      0.1596
     89  C        -40.4470  -65.9930  166.5470 C.2   435  LYS435      0.2287
     90  O        -39.4360  -66.5310  166.0480 O.2   435  LYS435     -0.2864
     91  CB       -41.6460  -68.1200  167.1780 C.3   435  LYS435      0.0298
     92  CG       -42.4070  -68.8780  168.2500 C.3   435  LYS435      0.0038
     93  CD       -42.8630  -70.2430  167.7620 C.3   435  LYS435      0.0206
     94  CE       -43.5870  -70.9360  168.9220 C.3   435  LYS435      0.1093
     95  NZ       -44.1190  -72.2050  168.3900 N.3   435  LYS435     -0.1314
@<TRIPOS>BOND
     1    90    89    2
     2    89    88    1
     3    91    88    1
     4    91    92    1
     5    88    87    1
     6    93    92    1
     7    93    94    1
     8    87    80   am
     9    95    94    1
    10    78    79    1
    11    85    84   ar
    12    80    79    1
    13    80    81    2
    14    79    82    1
    15    13    12    2
    16    84    86   ar
    17    84    83    1
    18    14    11    1
    19    14    15    1
    20    17    16   ar
    21    11    12    1
    22    11    10    1
    23    82    83    1
    24    12    19   am
    25    15    16    1
    26    16    18   ar
    27    19    20    1
    28     8     7    2
    29    10     3   am
    30    20    21    1
    31    20    23    1
    32    22    21    2
    33     4     3    2
    34    32    31    1
    35    32    33    1
    36    21    25   am
    37     7     6    1
    38     7     9   am
    39     3     2    1
    40    34    33    2
    41     6     5    1
    42    31    27   am
    43    23    24    1
    44    33    35   am
    45    27    28    2
    46    27    26    1
    47    25    26    1
    48     5     2    1
    49    77    75    1
    50     2     1    1
    51    70    69    2
    52    26    29    1
    53    35    36    1
    54    75    74    2
    55    75    76    1
    56    74    73    1
    57    69    68    1
    58    72    73    1
    59    72    71    1
    60    36    37    1
    61    36    39    1
    62    68    67    1
    63    68    71    1
    64    29    30    1
    65    45    43   ar
    66    45    44   ar
    67    37    38    1
    68    43    41   ar
    69    44    42   ar
    70    41    40   ar
    71    42    40   ar
    72    40    39    1
    73    66    64   am
    74    64    65    2
    75    64    63    1
    76    63    60    1
    77    58    56    1
    78    57    55    1
    79    49    48    2
    80    50    47    1
    81    55    56    1
    82    55    52    1
    83    60    59    1
    84    60    61    1
    85    62    61    2
    86    48    47    1
    87    59    53   am
    88    47    46    1
    89    53    52    1
    90    53    54    2
    91    52    51    1
