@<TRIPOS>MOLECULE
tmp/5v2cU29.pdb
 182 180 0 0 0
SMALL
GASTEIGER

@<TRIPOS>ATOM
      1  N        -46.6720   16.3900  165.8870 N.3   192  TYR192     -0.1241
      2  CA       -46.4830   16.2970  167.3240 C.3   192  TYR192      0.1605
      3  C        -47.7900   16.0420  168.0650 C.2   192  TYR192      0.2264
      4  O        -47.7560   15.9470  169.2920 O.2   192  TYR192     -0.2867
      5  CB       -45.8470   17.5760  167.8140 C.3   192  TYR192      0.0534
      6  CG       -44.4580   17.7320  167.2650 C.ar  192  TYR192     -0.0201
      7  CD1      -43.4210   16.9770  167.7690 C.ar  192  TYR192     -0.0009
      8  CD2      -44.1870   18.5240  166.1550 C.ar  192  TYR192     -0.0009
      9  CE1      -42.0930   17.1220  167.2580 C.ar  192  TYR192      0.0417
     10  CE2      -42.8790   18.6520  165.6180 C.ar  192  TYR192      0.0417
     11  CZ       -41.8600   17.9450  166.1540 C.ar  192  TYR192      0.1957
     12  OH       -40.6050   18.0500  165.5430 O.3   192  TYR192     -0.2866
     13  N        -39.4850    2.1580  150.2080 N.3   245  PHE245     -0.1227
     14  CA       -38.4430    3.2070  150.3700 C.3   245  PHE245      0.1736
     15  C        -39.0470    4.5370  150.7510 C.2   245  PHE245      0.2595
     16  O        -38.4710    5.2640  151.5390 O.2   245  PHE245     -0.2718
     17  CB       -37.3260    3.2770  149.2910 C.3   245  PHE245      0.0547
     18  CG       -37.6980    4.0030  148.0070 C.ar  245  PHE245     -0.0202
     19  CD1      -37.9680    5.3790  147.9920 C.ar  245  PHE245     -0.0042
     20  CD2      -37.7320    3.3060  146.8030 C.ar  245  PHE245     -0.0042
     21  CE1      -38.3140    6.0170  146.7820 C.ar  245  PHE245     -0.0003
     22  CE2      -38.0210    3.9240  145.6070 C.ar  245  PHE245     -0.0003
     23  CZ       -38.3180    5.2880  145.5790 C.ar  245  PHE245     -0.0000
     24  N        -40.2540    4.7970  150.2820 N.am  246  PHE246     -0.1976
     25  CA       -40.9820    6.0070  150.7080 C.3   246  PHE246      0.1639
     26  C        -41.2280    5.9660  152.2390 C.2   246  PHE246      0.2290
     27  O        -40.8800    6.9150  152.9440 O.2   246  PHE246     -0.2864
     28  CB       -42.2710    6.1350  149.8920 C.3   246  PHE246      0.0560
     29  CG       -43.2580    7.1810  150.3860 C.ar  246  PHE246     -0.0200
     30  CD1      -42.8260    8.4050  150.8430 C.ar  246  PHE246     -0.0042
     31  CD2      -44.6170    6.9410  150.3630 C.ar  246  PHE246     -0.0042
     32  CE1      -43.7040    9.3740  151.3000 C.ar  246  PHE246     -0.0003
     33  CE2      -45.5220    7.9080  150.8460 C.ar  246  PHE246     -0.0003
     34  CZ       -45.0630    9.1180  151.2960 C.ar  246  PHE246     -0.0000
     35  N        -37.9340    6.4230  154.2100 N.3   249  PHE249     -0.1227
     36  CA       -37.5050    7.8190  154.3250 C.3   249  PHE249      0.1736
     37  C        -38.4110    8.5870  155.3290 C.2   249  PHE249      0.2595
     38  O        -37.9120    9.4240  156.0930 O.2   249  PHE249     -0.2718
     39  CB       -37.5320    8.5280  152.9970 C.3   249  PHE249      0.0547
     40  CG       -36.3390    8.2940  152.1380 C.ar  249  PHE249     -0.0202
     41  CD1      -35.0780    8.6350  152.6040 C.ar  249  PHE249     -0.0042
     42  CD2      -36.4650    7.7990  150.8420 C.ar  249  PHE249     -0.0042
     43  CE1      -33.9540    8.4380  151.8280 C.ar  249  PHE249     -0.0003
     44  CE2      -35.3200    7.5890  150.0500 C.ar  249  PHE249     -0.0003
     45  CZ       -34.0720    7.9340  150.5420 C.ar  249  PHE249     -0.0000
     46  N        -39.7180    8.3290  155.3030 N.am  250  VAL250     -0.1980
     47  CA       -40.5960    8.9910  156.2420 C.3   250  VAL250      0.1595
     48  C        -40.2260    8.6720  157.7120 C.2   250  VAL250      0.2287
     49  O        -40.1180    9.5940  158.5410 O.2   250  VAL250     -0.2864
     50  CB       -42.0670    8.6940  155.9540 C.3   250  VAL250      0.0276
     51  CG1      -42.9470    9.2300  157.0410 C.3   250  VAL250      0.0022
     52  CG2      -42.4640    9.3530  154.6250 C.3   250  VAL250      0.0022
     53  N        -37.3480    7.6650  158.7990 N.3   252  ALA252     -0.1231
     54  CA       -36.0480    8.3060  159.0980 C.3   252  ALA252      0.1694
     55  C        -36.2900    9.7910  159.4940 C.2   252  ALA252      0.2593
     56  O        -35.7500   10.2610  160.4900 O.2   252  ALA252     -0.2718
     57  CB       -35.0450    8.2130  157.9600 C.3   252  ALA252      0.0304
     58  N        -37.1120   10.5010  158.7380 N.am  253  GLY253     -0.1942
     59  CA       -37.3490   11.9360  159.0180 C.3   253  GLY253      0.2014
     60  C        -38.0710   12.2090  160.3260 C.2   253  GLY253      0.2639
     61  O        -37.6680   13.0900  161.0610 O.2   253  GLY253     -0.2714
     62  N        -39.1370   11.4530  160.6120 N.am  254  THR254     -0.1950
     63  CA       -39.8550   11.6170  161.8910 C.3   254  THR254      0.1897
     64  C        -38.9900   11.2790  163.1000 C.2   254  THR254      0.2313
     65  O        -39.1270   11.8570  164.1730 O.2   254  THR254     -0.2863
     66  CB       -41.2460   10.9230  161.9250 C.3   254  THR254      0.1794
     67  OG1      -41.1140    9.4920  161.7920 O.3   254  THR254     -0.2208
     68  CG2      -42.2020   11.5240  160.7910 C.3   254  THR254      0.0378
     69  N        -35.6540   11.7600  163.1000 N.3   256  TRP256     -0.1227
     70  CA       -34.6390   12.7910  163.2800 C.3   256  TRP256      0.1737
     71  C        -35.1950   14.1290  163.8040 C.2   256  TRP256      0.2595
     72  O        -34.5680   14.7540  164.6640 O.2   256  TRP256     -0.2718
     73  CB       -33.8520   13.0150  162.0170 C.3   256  TRP256      0.0564
     74  CG       -32.5730   13.6780  162.2120 C.ar  256  TRP256      0.0003
     75  CD1      -32.1810   14.8380  161.6360 C.ar  256  TRP256      0.0946
     76  CD2      -31.5050   13.2730  163.0440 C.ar  256  TRP256      0.0152
     77  NE1      -30.9030   15.1730  162.0110 N.ar  256  TRP256     -0.2442
     78  CE2      -30.4750   14.2660  162.9200 C.ar  256  TRP256      0.0810
     79  CE3      -31.2900   12.1900  163.8900 C.ar  256  TRP256      0.0012
     80  CZ2      -29.2360   14.1600  163.5610 C.ar  256  TRP256      0.0191
     81  CZ3      -30.0890   12.1430  164.5530 C.ar  256  TRP256      0.0001
     82  CH2      -29.0810   13.0980  164.3940 C.ar  256  TRP256      0.0015
     83  N        -36.3570   14.5320  163.2920 N.am  257  TYR257     -0.1976
     84  CA       -37.0430   15.8130  163.6740 C.3   257  TYR257      0.1639
     85  C        -37.9230   15.6900  164.9220 C.2   257  TYR257      0.2290
     86  O        -38.2030   16.6550  165.5920 O.2   257  TYR257     -0.2864
     87  CB       -37.9010   16.3130  162.4930 C.3   257  TYR257      0.0560
     88  CG       -37.0880   16.5580  161.2410 C.ar  257  TYR257     -0.0198
     89  CD1      -35.8930   17.2740  161.2930 C.ar  257  TYR257     -0.0009
     90  CD2      -37.4700   16.0030  160.0280 C.ar  257  TYR257     -0.0009
     91  CE1      -35.1250   17.4770  160.1810 C.ar  257  TYR257      0.0417
     92  CE2      -36.7030   16.1630  158.8720 C.ar  257  TYR257      0.0417
     93  CZ       -35.5190   16.9040  158.9570 C.ar  257  TYR257      0.1957
     94  OH       -34.7600   17.0430  157.8220 O.3   257  TYR257     -0.2866
     95  N        -33.7270   15.3140  170.4570 N.3   270  THR270     -0.1218
     96  CA       -33.3170   15.5100  169.0900 C.3   270  THR270      0.1862
     97  C        -32.1260   16.4870  169.0570 C.2   270  THR270      0.2287
     98  O        -31.8200   17.2130  170.0420 O.2   270  THR270     -0.2866
     99  CB       -34.4140   16.0900  168.2170 C.3   270  THR270      0.1770
    100  OG1      -34.6280   17.4410  168.5930 O.3   270  THR270     -0.2211
    101  CG2      -35.6850   15.2940  168.3220 C.3   270  THR270      0.0375
    102  N        -32.1190   19.1180  167.2910 N.3   272  TYR272     -0.1227
    103  CA       -32.6640   20.4320  167.1230 C.3   272  TYR272      0.1736
    104  C        -32.9460   21.1010  168.4500 C.2   272  TYR272      0.2595
    105  O        -32.8720   22.3470  168.5390 O.2   272  TYR272     -0.2718
    106  CB       -33.8760   20.4210  166.1710 C.3   272  TYR272      0.0548
    107  CG       -33.4460   19.8780  164.8150 C.ar  272  TYR272     -0.0200
    108  CD1      -32.7200   20.6670  163.9170 C.ar  272  TYR272     -0.0009
    109  CD2      -33.6570   18.5520  164.5040 C.ar  272  TYR272     -0.0009
    110  CE1      -32.2510   20.1790  162.7130 C.ar  272  TYR272      0.0417
    111  CE2      -33.2030   18.0070  163.3430 C.ar  272  TYR272      0.0417
    112  CZ       -32.5130   18.7940  162.4280 C.ar  272  TYR272      0.1957
    113  OH       -32.0700   18.1900  161.2860 O.3   272  TYR272     -0.2866
    114  N        -33.2310   20.2770  169.4600 N.am  273  GLN273     -0.1979
    115  CA       -33.4370   20.7510  170.8130 C.3   273  GLN273      0.1601
    116  C        -32.1640   21.3620  171.3690 C.2   273  GLN273      0.2287
    117  O        -32.2230   22.3630  172.0690 O.2   273  GLN273     -0.2864
    118  CB       -33.9910   19.6240  171.6950 C.3   273  GLN273      0.0394
    119  CG       -35.4620   19.2960  171.3060 C.3   273  GLN273      0.0908
    120  CD       -36.0440   18.0800  171.9850 C.2   273  GLN273      0.2608
    121  OE1      -35.3520   17.0450  172.1010 O.2   273  GLN273     -0.2717
    122  NE2      -37.3430   18.1560  172.3910 N.am  273  GLN273     -0.0878
    123  N        -31.5490   24.9010  169.2240 N.3   276  SER276     -0.1217
    124  CA       -32.3990   26.0370  169.6240 C.3   276  SER276      0.1889
    125  C        -32.3750   26.2930  171.1540 C.2   276  SER276      0.2288
    126  O        -33.1420   27.0890  171.6660 O.2   276  SER276     -0.2866
    127  CB       -33.8160   25.7270  169.2150 C.3   276  SER276      0.2089
    128  OG       -34.2780   24.5960  169.9380 O.3   276  SER276     -0.2183
    129  N        -33.6450   24.4900  173.4570 N.3   278  TYR278     -0.1241
    130  CA       -35.0570   24.2610  173.8540 C.3   278  TYR278      0.1605
    131  C        -35.2070   23.9880  175.3460 C.2   278  TYR278      0.2264
    132  O        -36.0940   24.5700  176.0140 O.2   278  TYR278     -0.2867
    133  CB       -35.5780   23.0690  173.0730 C.3   278  TYR278      0.0534
    134  CG       -36.9870   22.6330  173.3440 C.ar  278  TYR278     -0.0201
    135  CD1      -38.0680   23.3670  172.8400 C.ar  278  TYR278     -0.0009
    136  CD2      -37.2570   21.4330  174.0280 C.ar  278  TYR278     -0.0009
    137  CE1      -39.3220   22.9420  173.0300 C.ar  278  TYR278      0.0417
    138  CE2      -38.5600   21.0090  174.2220 C.ar  278  TYR278      0.0417
    139  CZ       -39.6040   21.7650  173.7550 C.ar  278  TYR278      0.1957
    140  OH       -40.9370   21.3770  174.0040 O.3   278  TYR278     -0.2866
    141  N        -32.1640    6.4220  162.6320 N.3   451  THR451     -0.1203
    142  CA       -32.2060    7.3220  161.5030 C.3   451  THR451      0.1994
    143  C        -31.2330    6.9130  160.4260 C.2   451  THR451      0.2617
    144  O        -31.5910    6.8700  159.2420 O.2   451  THR451     -0.2717
    145  CB       -32.0000    8.7810  161.9550 C.3   451  THR451      0.1784
    146  OG1      -33.0530    9.1310  162.8680 O.3   451  THR451     -0.2211
    147  CG2      -32.1350    9.7080  160.7230 C.3   451  THR451      0.0376
    148  N        -29.9840    6.6430  160.8330 N.am  452  PHE452     -0.1975
    149  CA       -28.9470    6.2370  159.9250 C.3   452  PHE452      0.1639
    150  C        -29.2990    4.9940  159.1280 C.2   452  PHE452      0.2290
    151  O        -29.2540    5.0240  157.8820 O.2   452  PHE452     -0.2864
    152  CB       -27.6670    6.0040  160.6740 C.3   452  PHE452      0.0560
    153  CG       -26.5350    5.4420  159.8240 C.ar  452  PHE452     -0.0200
    154  CD1      -26.0280    6.1590  158.7390 C.ar  452  PHE452     -0.0042
    155  CD2      -26.0050    4.1640  160.0990 C.ar  452  PHE452     -0.0042
    156  CE1      -24.9680    5.6780  157.9850 C.ar  452  PHE452     -0.0003
    157  CE2      -24.9670    3.6730  159.3420 C.ar  452  PHE452     -0.0003
    158  CZ       -24.4670    4.3920  158.2780 C.ar  452  PHE452     -0.0000
    159  N        -32.3310    5.6930  156.6230 N.3   455  ALA455     -0.1245
    160  CA       -32.0070    6.5350  155.5060 C.3   455  ALA455      0.1562
    161  C        -31.1060    5.7790  154.5350 C.2   455  ALA455      0.2260
    162  O        -31.2920    5.8870  153.3050 O.2   455  ALA455     -0.2867
    163  CB       -31.3370    7.8420  155.9590 C.3   455  ALA455      0.0290
    164  N        -32.3260    4.5760  150.6800 N.3   459  LEU459     -0.1245
    165  CA       -31.5620    4.9080  149.5090 C.3   459  LEU459      0.1561
    166  C        -31.2020    3.6420  148.6540 C.2   459  LEU459      0.2260
    167  O        -31.3880    3.6340  147.4330 O.2   459  LEU459     -0.2867
    168  CB       -30.2890    5.6700  149.9020 C.3   459  LEU459      0.0270
    169  CG       -29.6200    6.4000  148.7440 C.3   459  LEU459      0.0019
    170  CD1      -30.4420    7.5690  148.2650 C.3   459  LEU459      0.0001
    171  CD2      -28.2500    6.8970  149.1860 C.3   459  LEU459      0.0001
    172  N        -34.0950    2.3740  146.7400 N.3   462  PHE462     -0.1241
    173  CA       -34.3180    3.0730  145.4690 C.3   462  PHE462      0.1605
    174  C        -33.6840    2.3280  144.3150 C.2   462  PHE462      0.2264
    175  O        -34.3300    2.1510  143.2600 O.2   462  PHE462     -0.2867
    176  CB       -33.8880    4.5520  145.5480 C.3   462  PHE462      0.0534
    177  CG       -33.7700    5.2290  144.2080 C.ar  462  PHE462     -0.0203
    178  CD1      -34.9200    5.5540  143.5070 C.ar  462  PHE462     -0.0042
    179  CD2      -32.5590    5.4690  143.6530 C.ar  462  PHE462     -0.0042
    180  CE1      -34.8460    6.1350  142.2960 C.ar  462  PHE462     -0.0003
    181  CE2      -32.4330    6.0880  142.4090 C.ar  462  PHE462     -0.0003
    182  CZ       -33.5720    6.4090  141.7170 C.ar  462  PHE462     -0.0000
@<TRIPOS>BOND
     1   182   180   ar
     2   182   181   ar
     3   180   178   ar
     4   181   179   ar
     5   175   174    2
     6   178   177   ar
     7   179   177   ar
     8   177   176    1
     9   174   173    1
    10   173   176    1
    11   173   172    1
    12    23    22   ar
    13    23    21   ar
    14    22    20   ar
    15    21    19   ar
    16    20    18   ar
    17   167   166    2
    18    19    18   ar
    19    18    17    1
    20   170   169    1
    21   166   165    1
    22   169   171    1
    23   169   168    1
    24    17    14    1
    25   165   168    1
    26   165   164    1
    27    28    29    1
    28    28    25    1
    29    44    45   ar
    30    44    42   ar
    31    13    14    1
    32    24    25    1
    33    24    15   am
    34    31    29   ar
    35    31    33   ar
    36    14    15    1
    37    29    30   ar
    38    45    43   ar
    39    25    26    1
    40    15    16    2
    41    42    40   ar
    42    30    32   ar
    43    33    34   ar
    44    34    32   ar
    45    43    41   ar
    46    40    41   ar
    47    40    39    1
    48    26    27    2
    49    39    36    1
    50   162   161    2
    51    35    36    1
    52    36    37    1
    53   161   160    1
    54    52    50    1
    55    46    37   am
    56    46    47    1
    57    37    38    2
    58   160   163    1
    59   160   159    1
    60    50    47    1
    61    50    51    1
    62    47    48    1
    63    48    49    2
    64    94    93    1
    65   151   150    2
    66    57    54    1
    67   156   158   ar
    68   156   154   ar
    69   158   157   ar
    70    58    59    1
    71    58    55   am
    72   154   153   ar
    73    53    54    1
    74    92    93   ar
    75    92    90   ar
    76    93    91   ar
    77    59    60    1
    78    54    55    1
    79   150   149    1
    80   144   143    2
    81   157   155   ar
    82    55    56    2
    83   153   155   ar
    84   153   152    1
    85   149   152    1
    86   149   148    1
    87    90    88   ar
    88    91    89   ar
    89    60    62   am
    90    60    61    2
    91   143   148   am
    92   143   142    1
    93    62    63    1
    94   147   145    1
    95    68    66    1
    96    88    89   ar
    97    88    87    1
    98   113   112    1
    99   142   145    1
   100   142   141    1
   101    75    77   ar
   102    75    74   ar
   103    67    66    1
   104    63    66    1
   105    63    64    1
   106   145   146    1
   107    77    78   ar
   108    73    74    1
   109    73    70    1
   110    74    76   ar
   111   112   110   ar
   112   112   111   ar
   113    87    84    1
   114   110   108   ar
   115    78    76   ar
   116    78    80   ar
   117    76    79   ar
   118    69    70    1
   119    64    65    2
   120    70    71    1
   121    83    84    1
   122    83    71   am
   123   111   109   ar
   124    80    82   ar
   125    84    85    1
   126    71    72    2
   127    79    81   ar
   128   108   107   ar
   129    82    81   ar
   130   109   107   ar
   131   107   106    1
   132    85    86    2
   133    12    11    1
   134    10    11   ar
   135    10     8   ar
   136     1     2    1
   137    11     9   ar
   138     8     6   ar
   139   106   103    1
   140   103   102    1
   141   103   104    1
   142     9     7   ar
   143     6     7   ar
   144     6     5    1
   145     2     5    1
   146     2     3    1
   147     3     4    2
   148    99   101    1
   149    99   100    1
   150    99    96    1
   151   104   105    2
   152   104   114   am
   153    97    96    1
   154    97    98    2
   155    96    95    1
   156   127   124    1
   157   127   128    1
   158   123   124    1
   159   114   115    1
   160   124   125    1
   161   115   116    1
   162   115   118    1
   163   125   126    2
   164   119   118    1
   165   119   120    1
   166   116   117    2
   167   120   121    2
   168   120   122   am
   169   135   137   ar
   170   135   134   ar
   171   137   139   ar
   172   133   134    1
   173   133   130    1
   174   134   136   ar
   175   129   130    1
   176   139   140    1
   177   139   138   ar
   178   130   131    1
   179   136   138   ar
   180   131   132    2
