@<TRIPOS>MOLECULE
tmp/5v2cU13.pdb
 95 93 0 0 0
SMALL
GASTEIGER

@<TRIPOS>ATOM
      1  N        -48.2880   -9.7270  178.9540 N.3    90  TRP90      -0.1241
      2  CA       -47.6670   -8.8140  178.0090 C.3    90  TRP90       0.1605
      3  C        -46.6890   -7.8630  178.6410 C.2    90  TRP90       0.2264
      4  O        -46.7480   -6.6370  178.4380 O.2    90  TRP90      -0.2867
      5  CB       -48.7360   -8.0850  177.1800 C.3    90  TRP90       0.0550
      6  CG       -49.5830   -9.0350  176.3240 C.ar   90  TRP90       0.0003
      7  CD1      -50.9260   -9.2400  176.4310 C.ar   90  TRP90       0.0946
      8  CD2      -49.1540   -9.8940  175.2440 C.ar   90  TRP90       0.0152
      9  NE1      -51.3390  -10.1460  175.5280 N.ar   90  TRP90      -0.2442
     10  CE2      -50.2870  -10.5700  174.7760 C.ar   90  TRP90       0.0810
     11  CE3      -47.9180  -10.1580  174.6290 C.ar   90  TRP90       0.0012
     12  CZ2      -50.2290  -11.4940  173.7190 C.ar   90  TRP90       0.0191
     13  CZ3      -47.8600  -11.0620  173.5870 C.ar   90  TRP90       0.0001
     14  CH2      -48.9830  -11.7200  173.1400 C.ar   90  TRP90       0.0015
     15  N        -43.6160  -14.4840  172.7900 N.3    98  ALA98      -0.1245
     16  CA       -44.6120  -14.6140  171.7340 C.3    98  ALA98       0.1562
     17  C        -43.9480  -14.5830  170.3420 C.2    98  ALA98       0.2260
     18  O        -44.3490  -15.3310  169.4260 O.2    98  ALA98      -0.2867
     19  CB       -45.6080  -13.4640  171.8710 C.3    98  ALA98       0.0290
     20  N        -43.9490  -17.5210  167.6840 N.3   102  LEU102     -0.1245
     21  CA       -44.3760  -17.2130  166.3210 C.3   102  LEU102      0.1561
     22  C        -43.3530  -17.6330  165.2700 C.2   102  LEU102      0.2260
     23  O        -43.6960  -18.2170  164.2460 O.2   102  LEU102     -0.2867
     24  CB       -44.6550  -15.7010  166.2170 C.3   102  LEU102      0.0270
     25  CG       -45.0240  -15.1520  164.8360 C.3   102  LEU102      0.0019
     26  CD1      -46.2920  -15.8160  164.2560 C.3   102  LEU102      0.0001
     27  CD2      -45.1830  -13.6720  164.9400 C.3   102  LEU102      0.0001
     28  N        -43.4710  -21.4160  164.7100 N.3   105  LEU105     -0.1231
     29  CA       -44.6760  -21.7780  163.9640 C.3   105  LEU105      0.1693
     30  C        -44.5330  -21.4150  162.4640 C.2   105  LEU105      0.2591
     31  O        -44.9400  -22.1990  161.6040 O.2   105  LEU105     -0.2718
     32  CB       -45.9170  -21.1650  164.6040 C.3   105  LEU105      0.0284
     33  CG       -46.2380  -21.6050  166.0120 C.3   105  LEU105      0.0019
     34  CD1      -47.4950  -20.8550  166.4960 C.3   105  LEU105      0.0001
     35  CD2      -46.4810  -23.0880  166.0480 C.3   105  LEU105      0.0001
     36  N        -43.9630  -20.2410  162.1650 N.am  106  LEU106     -0.1980
     37  CA       -43.7260  -19.8240  160.8060 C.3   106  LEU106      0.1596
     38  C        -42.7060  -20.7270  160.1480 C.2   106  LEU106      0.2287
     39  O        -42.8630  -21.0430  158.9750 O.2   106  LEU106     -0.2864
     40  CB       -43.2470  -18.3510  160.7650 C.3   106  LEU106      0.0297
     41  CG       -44.3030  -17.3320  161.2440 C.3   106  LEU106      0.0022
     42  CD1      -43.6980  -15.9610  161.4320 C.3   106  LEU106      0.0001
     43  CD2      -45.4690  -17.2450  160.2660 C.3   106  LEU106      0.0001
     44  N        -42.1230  -23.9320  160.7730 N.3   108  LEU108     -0.1231
     45  CA       -42.8870  -25.1440  160.4720 C.3   108  LEU108      0.1693
     46  C        -43.8070  -25.0280  159.2680 C.2   108  LEU108      0.2591
     47  O        -43.8330  -25.8970  158.3950 O.2   108  LEU108     -0.2718
     48  CB       -43.6440  -25.5940  161.7150 C.3   108  LEU108      0.0284
     49  CG       -42.7750  -26.1210  162.8890 C.3   108  LEU108      0.0019
     50  CD1      -43.6440  -26.4270  164.0520 C.3   108  LEU108      0.0001
     51  CD2      -42.0100  -27.3630  162.4840 C.3   108  LEU108      0.0001
     52  N        -44.5490  -23.9350  159.2000 N.am  109  ALA109     -0.1980
     53  CA       -45.3780  -23.6360  158.0520 C.3   109  ALA109      0.1597
     54  C        -44.5880  -23.5480  156.7670 C.2   109  ALA109      0.2287
     55  O        -45.0440  -23.9840  155.7200 O.2   109  ALA109     -0.2864
     56  CB       -46.1060  -22.3240  158.3020 C.3   109  ALA109      0.0319
     57  N        -41.7490  -25.1440  156.0540 N.3   111  CYS111     -0.1221
     58  CA       -41.4820  -26.5190  155.6900 C.3   111  CYS111      0.1808
     59  C        -42.6440  -27.1670  154.9340 C.2   111  CYS111      0.2601
     60  O        -42.4700  -27.7930  153.8810 O.2   111  CYS111     -0.2717
     61  CB       -41.1610  -27.3350  156.9390 C.3   111  CYS111      0.0970
     62  SG       -39.6060  -26.8630  157.6720 S.3   111  CYS111     -0.0800
     63  N        -43.8340  -26.9890  155.4490 N.am  112  TRP112     -0.1976
     64  CA       -44.9960  -27.6180  154.8060 C.3   112  TRP112      0.1640
     65  C        -45.2310  -27.0340  153.4140 C.2   112  TRP112      0.2290
     66  O        -45.4590  -27.7620  152.4400 O.2   112  TRP112     -0.2864
     67  CB       -46.1900  -27.3720  155.6630 C.3   112  TRP112      0.0576
     68  CG       -47.4080  -28.1350  155.2020 C.ar  112  TRP112      0.0006
     69  CD1      -47.7630  -29.3870  155.6410 C.ar  112  TRP112      0.0946
     70  CD2      -48.4060  -27.7590  154.2230 C.ar  112  TRP112      0.0152
     71  NE1      -48.9230  -29.7940  155.0360 N.ar  112  TRP112     -0.2442
     72  CE2      -49.3100  -28.8480  154.1250 C.ar  112  TRP112      0.0810
     73  CE3      -48.6040  -26.6300  153.3980 C.ar  112  TRP112      0.0012
     74  CZ2      -50.4350  -28.8390  153.2990 C.ar  112  TRP112      0.0191
     75  CZ3      -49.7080  -26.6230  152.5350 C.ar  112  TRP112      0.0001
     76  CH2      -50.6140  -27.7350  152.4990 C.ar  112  TRP112      0.0015
     77  N        -42.5750  -28.3500  150.8810 N.3   115  VAL115     -0.1231
     78  CA       -42.8030  -29.7440  150.4630 C.3   115  VAL115      0.1692
     79  C        -44.0590  -29.8560  149.6100 C.2   115  VAL115      0.2592
     80  O        -44.0390  -30.4370  148.5610 O.2   115  VAL115     -0.2718
     81  CB       -42.9070  -30.6480  151.6880 C.3   115  VAL115      0.0266
     82  CG1      -43.3590  -32.0770  151.3280 C.3   115  VAL115      0.0020
     83  CG2      -41.5650  -30.7290  152.3400 C.3   115  VAL115      0.0020
     84  N        -45.1430  -29.3010  150.0920 N.am  116  TYR116     -0.1976
     85  CA       -46.4200  -29.3260  149.3850 C.3   116  TYR116      0.1639
     86  C        -46.6390  -28.0710  148.5030 C.2   116  TYR116      0.2290
     87  O        -47.6420  -27.3590  148.5850 O.2   116  TYR116     -0.2864
     88  CB       -47.5910  -29.5670  150.3830 C.3   116  TYR116      0.0560
     89  CG       -47.4560  -30.8450  151.1310 C.ar  116  TYR116     -0.0198
     90  CD1      -47.6730  -32.0730  150.4960 C.ar  116  TYR116     -0.0009
     91  CD2      -47.0580  -30.8660  152.4760 C.ar  116  TYR116     -0.0009
     92  CE1      -47.5290  -33.2690  151.1600 C.ar  116  TYR116      0.0417
     93  CE2      -46.9260  -32.1020  153.1520 C.ar  116  TYR116      0.0417
     94  CZ       -47.1710  -33.2680  152.4460 C.ar  116  TYR116      0.1957
     95  OH       -47.0360  -34.4620  153.0740 O.3   116  TYR116     -0.2866
@<TRIPOS>BOND
     1    86    87    2
     2    86    85    1
     3    80    79    2
     4    85    84    1
     5    85    88    1
     6    79    84   am
     7    79    78    1
     8    88    89    1
     9    78    77    1
    10    78    81    1
    11    90    89   ar
    12    90    92   ar
    13    89    91   ar
    14    92    94   ar
    15    82    81    1
    16    81    83    1
    17    66    65    2
    18    94    95    1
    19    94    93   ar
    20    91    93   ar
    21    76    75   ar
    22    76    74   ar
    23    75    73   ar
    24    74    72   ar
    25    73    70   ar
    26    65    64    1
    27    60    59    2
    28    72    70   ar
    29    72    71   ar
    30    70    68   ar
    31    64    63    1
    32    64    67    1
    33    59    63   am
    34    59    58    1
    35    71    69   ar
    36    68    69   ar
    37    68    67    1
    38    58    57    1
    39    58    61    1
    40    55    54    2
    41    54    53    1
    42    61    62    1
    43    53    56    1
    44    53    52    1
    45    47    46    2
    46    39    38    2
    47    52    46   am
    48    46    45    1
    49    38    37    1
    50    43    41    1
    51    45    44    1
    52    45    48    1
    53    40    37    1
    54    40    41    1
    55    37    36    1
    56    41    42    1
    57    31    30    2
    58    48    49    1
    59    36    30   am
    60    30    29    1
    61    51    49    1
    62    49    50    1
    63    29    32    1
    64    29    28    1
    65    23    22    2
    66    26    25    1
    67    32    33    1
    68    25    27    1
    69    25    24    1
    70    22    21    1
    71    33    35    1
    72    33    34    1
    73    24    21    1
    74    21    20    1
    75    18    17    2
    76    17    16    1
    77    16    19    1
    78    16    15    1
    79    14    13   ar
    80    14    12   ar
    81    13    11   ar
    82    12    10   ar
    83    11     8   ar
    84    10     8   ar
    85    10     9   ar
    86     8     6   ar
    87     9     7   ar
    88     6     7   ar
    89     6     5    1
    90     5     2    1
    91     2     3    1
    92     2     1    1
    93     4     3    2
