@<TRIPOS>MOLECULE
tmp/5v2cB24.pdb
 90 89 0 0 0
SMALL
GASTEIGER

@<TRIPOS>ATOM
      1  N         26.8920  -36.4910  161.4700 N.3   150  PHE150     -0.1241
      2  CA        28.3900  -36.4500  161.7570 C.3   150  PHE150      0.1605
      3  C         28.8830  -35.0310  161.7260 C.2   150  PHE150      0.2264
      4  O         29.5970  -34.5970  162.5970 O.2   150  PHE150     -0.2867
      5  CB        29.0950  -37.2150  160.7030 C.3   150  PHE150      0.0534
      6  CG        30.6240  -37.0480  160.7640 C.ar  150  PHE150     -0.0203
      7  CD1       31.2960  -37.6270  161.7610 C.ar  150  PHE150     -0.0042
      8  CD2       31.2410  -36.1410  159.9610 C.ar  150  PHE150     -0.0042
      9  CE1       32.6890  -37.4550  161.9080 C.ar  150  PHE150     -0.0003
     10  CE2       32.6560  -35.9590  160.0620 C.ar  150  PHE150     -0.0003
     11  CZ        33.3600  -36.5910  161.0560 C.ar  150  PHE150     -0.0000
     12  N         30.6780  -33.0080  164.6660 N.3   154  ALA154     -0.1231
     13  CA        32.1200  -32.7800  164.4870 C.3   154  ALA154      0.1694
     14  C         32.4950  -31.3190  164.2820 C.2   154  ALA154      0.2592
     15  O         33.6110  -30.8970  164.5600 O.2   154  ALA154     -0.2718
     16  CB        32.6070  -33.5780  163.2730 C.3   154  ALA154      0.0304
     17  N         31.6080  -30.5660  163.6750 N.am  155  PHE155     -0.1976
     18  CA        31.8340  -29.1380  163.3540 C.3   155  PHE155      0.1639
     19  C         30.9910  -28.1630  164.2310 C.2   155  PHE155      0.2290
     20  O         31.5690  -27.2520  164.8600 O.2   155  PHE155     -0.2864
     21  CB        31.6120  -28.8860  161.8470 C.3   155  PHE155      0.0560
     22  CG        32.5650  -29.6400  160.9950 C.ar  155  PHE155     -0.0200
     23  CD1       33.9230  -29.3970  161.1050 C.ar  155  PHE155     -0.0042
     24  CD2       32.1490  -30.6360  160.1670 C.ar  155  PHE155     -0.0042
     25  CE1       34.8230  -30.0770  160.3820 C.ar  155  PHE155     -0.0003
     26  CE2       33.0690  -31.3650  159.4110 C.ar  155  PHE155     -0.0003
     27  CZ        34.4400  -31.0840  159.4900 C.ar  155  PHE155     -0.0000
     28  N         31.2560  -29.0660  168.4580 N.3   158  THR158     -0.1218
     29  CA        32.6460  -28.8960  168.9420 C.3   158  THR158      0.1862
     30  C         33.1570  -27.4880  168.8480 C.2   158  THR158      0.2287
     31  O         34.2600  -27.1680  169.3650 O.2   158  THR158     -0.2866
     32  CB        33.6170  -29.7080  168.0770 C.3   158  THR158      0.1770
     33  OG1       33.4910  -29.2980  166.6830 O.3   158  THR158     -0.2211
     34  CG2       33.3430  -31.2370  168.2640 C.3   158  THR158      0.0375
     35  N         34.4150  -26.4450  166.1470 N.3   160  LEU160     -0.1245
     36  CA        35.4810  -26.5180  165.1310 C.3   160  LEU160      0.1561
     37  C         35.0720  -25.6800  163.8950 C.2   160  LEU160      0.2260
     38  O         35.8730  -24.9380  163.3510 O.2   160  LEU160     -0.2867
     39  CB        35.7370  -27.9730  164.7520 C.3   160  LEU160      0.0270
     40  CG        36.8390  -28.1710  163.6880 C.3   160  LEU160      0.0019
     41  CD1       38.1380  -27.5990  164.2500 C.3   160  LEU160      0.0001
     42  CD2       36.9720  -29.6390  163.3190 C.3   160  LEU160      0.0001
     43  N         31.7290  -24.2120  172.8630 N.3   179  PRO179     -0.2102
     44  CA        32.1500  -25.4010  172.2030 C.3   179  PRO179      0.1504
     45  C         32.2110  -26.5900  173.1790 C.2   179  PRO179      0.2576
     46  O         32.6000  -26.4170  174.2990 O.2   179  PRO179     -0.2718
     47  CB        33.5770  -25.0710  171.7850 C.3   179  PRO179      0.0282
     48  CG        33.7670  -23.6630  171.9760 C.3   179  PRO179      0.0208
     49  CD        32.8520  -23.2700  173.0490 C.3   179  PRO179      0.0893
     50  N         31.8980  -27.7830  172.7130 N.am  180  VAL180     -0.1966
     51  CA        31.8970  -28.9700  173.5890 C.3   180  VAL180      0.1727
     52  C         32.6810  -30.0910  172.8940 C.2   180  VAL180      0.2616
     53  O         32.4350  -30.4330  171.7150 O.2   180  VAL180     -0.2715
     54  CB        30.4590  -29.3980  173.9520 C.3   180  VAL180      0.0290
     55  CG1       30.4420  -30.6530  174.8190 C.3   180  VAL180      0.0023
     56  CG2       29.7600  -28.2670  174.6940 C.3   180  VAL180      0.0023
     57  N         33.6600  -30.6090  173.6120 N.am  181  ALA181     -0.1964
     58  CA        34.4310  -31.7620  173.1260 C.3   181  ALA181      0.1713
     59  C         33.7520  -33.0850  173.4100 C.2   181  ALA181      0.2458
     60  O         33.0030  -33.1930  174.3710 O.2   181  ALA181     -0.2730
     61  CB        35.8360  -31.7560  173.7120 C.3   181  ALA181      0.0333
     62  N         33.8940  -34.0580  172.4970 N.am  182  PRO182     -0.2727
     63  CA        33.2310  -35.3290  172.6690 C.3   182  PRO182      0.1402
     64  C         33.7330  -36.0330  173.9090 C.2   182  PRO182      0.2269
     65  O         34.9430  -35.9470  174.2290 O.2   182  PRO182     -0.2865
     66  CB        33.6450  -36.1260  171.4150 C.3   182  PRO182      0.0296
     67  CG        34.7050  -35.4020  170.8020 C.3   182  PRO182      0.0237
     68  CD        34.6000  -33.9700  171.2180 C.3   182  PRO182      0.0939
     69  N         34.3050  -39.7370  175.1790 N.3   184  TRP184     -0.1241
     70  CA        34.3940  -41.0770  174.6050 C.3   184  TRP184      0.1605
     71  C         34.4390  -42.2490  175.5810 C.2   184  TRP184      0.2264
     72  O         34.5090  -43.4120  175.1420 O.2   184  TRP184     -0.2867
     73  CB        35.6200  -41.1930  173.6980 C.3   184  TRP184      0.0550
     74  CG        35.5260  -40.3550  172.4830 C.ar  184  TRP184      0.0003
     75  CD1       36.3240  -39.2860  172.1590 C.ar  184  TRP184      0.0946
     76  CD2       34.5800  -40.4870  171.4220 C.ar  184  TRP184      0.0152
     77  NE1       35.9320  -38.7680  170.9660 N.ar  184  TRP184     -0.2442
     78  CE2       34.8560  -39.4600  170.4940 C.ar  184  TRP184      0.0810
     79  CE3       33.4990  -41.3360  171.1870 C.ar  184  TRP184      0.0012
     80  CZ2       34.1090  -39.2700  169.3270 C.ar  184  TRP184      0.0191
     81  CZ3       32.7590  -41.1450  170.0300 C.ar  184  TRP184      0.0001
     82  CH2       33.0830  -40.1260  169.1060 C.ar  184  TRP184      0.0015
     83  N         28.8580  -37.7210  166.4080 N.3   202  ILE202     -0.1245
     84  CA        30.0680  -38.1480  165.7080 C.3   202  ILE202      0.1561
     85  C         29.9690  -39.6320  165.3940 C.2   202  ILE202      0.2260
     86  O         30.1510  -40.0410  164.2340 O.2   202  ILE202     -0.2867
     87  CB        31.3110  -37.8590  166.5170 C.3   202  ILE202      0.0252
     88  CG1       31.5260  -36.3410  166.5290 C.3   202  ILE202      0.0019
     89  CG2       32.4740  -38.4990  165.7930 C.3   202  ILE202      0.0019
     90  CD1       32.6480  -35.7910  167.3700 C.3   202  ILE202      0.0001
@<TRIPOS>BOND
     1    26    27   ar
     2    26    24   ar
     3    27    25   ar
     4     8    10   ar
     5     8     6   ar
     6    10    11   ar
     7    24    22   ar
     8    25    23   ar
     9     5     6    1
    10     5     2    1
    11     6     7   ar
    12    22    23   ar
    13    22    21    1
    14    11     9   ar
    15     1     2    1
    16     3     2    1
    17     3     4    2
    18     7     9   ar
    19    21    18    1
    20    16    13    1
    21    42    40    1
    22    38    37    2
    23    18    17    1
    24    18    19    1
    25    17    14   am
    26    40    41    1
    27    40    39    1
    28    37    36    1
    29    19    20    2
    30    86    85    2
    31    14    13    1
    32    14    15    2
    33    13    12    1
    34    39    36    1
    35    36    35    1
    36    85    84    1
    37    84    83    1
    38    84    87    1
    39    89    87    1
    40    87    88    1
    41    88    90    1
    42    33    32    1
    43    32    34    1
    44    32    29    1
    45    28    29    1
    46    30    29    1
    47    30    31    2
    48    82    80   ar
    49    82    81   ar
    50    80    78   ar
    51    81    79   ar
    52    78    77   ar
    53    78    76   ar
    54    67    68    1
    55    67    66    1
    56    77    75   ar
    57    79    76   ar
    58    68    62    1
    59    66    63    1
    60    76    74   ar
    61    53    52    2
    62    47    48    1
    63    47    44    1
    64    48    49    1
    65    75    74   ar
    66    44    43    1
    67    44    45    1
    68    74    73    1
    69    62    63    1
    70    62    59   am
    71    63    64    1
    72    50    45   am
    73    50    51    1
    74    43    49    1
    75    52    51    1
    76    52    57   am
    77    58    59    1
    78    58    57    1
    79    58    61    1
    80    45    46    2
    81    59    60    2
    82    51    54    1
    83    73    70    1
    84    64    65    2
    85    54    56    1
    86    54    55    1
    87    70    69    1
    88    70    71    1
    89    72    71    2
