@<TRIPOS>MOLECULE
tmp/5v2cS03.pdb
 125 121 0 0 0
SMALL
GASTEIGER

@<TRIPOS>ATOM
      1  N        -39.0040  -88.2550  209.1500 N.3    16  SER16      -0.1217
      2  CA       -39.0450  -87.1570  208.1980 C.3    16  SER16       0.1889
      3  C        -37.9720  -87.3050  207.1240 C.2    16  SER16       0.2288
      4  O        -38.2860  -87.2020  205.9290 O.2    16  SER16      -0.2866
      5  CB       -38.9500  -85.8090  208.9160 C.3    16  SER16       0.2089
      6  OG       -40.1090  -85.6290  209.7540 O.3    16  SER16      -0.2183
      7  N        -38.8000  -90.2070  204.7850 N.3    19  MET19      -0.1230
      8  CA       -39.8760  -89.8160  203.8990 C.3    19  MET19       0.1702
      9  C        -39.3780  -88.8240  202.8260 C.2    19  MET19       0.2592
     10  O        -39.7910  -88.8990  201.6530 O.2    19  MET19      -0.2718
     11  CB       -41.0050  -89.1230  204.6840 C.3    19  MET19       0.0401
     12  CG       -41.7290  -89.9610  205.7520 C.3    19  MET19       0.0596
     13  SD       -42.8530  -91.0850  204.9860 S.3    19  MET19      -0.1393
     14  CE       -44.2330  -90.0520  204.5150 C.3    19  MET19       0.0692
     15  N        -38.5310  -87.8720  203.2300 N.am   20  VAL20      -0.1980
     16  CA       -37.9950  -86.8670  202.3000 C.3    20  VAL20       0.1595
     17  C        -37.2850  -87.5310  201.0990 C.2    20  VAL20       0.2287
     18  O        -37.5050  -87.1380  199.9450 O.2    20  VAL20      -0.2864
     19  CB       -37.1010  -85.8450  203.0480 C.3    20  VAL20       0.0276
     20  CG1      -36.0940  -85.2130  202.1290 C.3    20  VAL20       0.0022
     21  CG2      -37.9830  -84.7730  203.7180 C.3    20  VAL20       0.0022
     22  N        -40.2780  -90.7740  199.5190 N.3    23  VAL23      -0.1245
     23  CA       -41.5480  -90.4570  198.8300 C.3    23  VAL23       0.1561
     24  C        -41.2960  -90.1060  197.3620 C.2    23  VAL23       0.2260
     25  O        -41.9260  -90.6890  196.5060 O.2    23  VAL23      -0.2867
     26  CB       -42.3880  -89.3440  199.5220 C.3    23  VAL23       0.0252
     27  CG1      -43.5650  -88.9270  198.6480 C.3    23  VAL23       0.0019
     28  CG2      -42.8840  -89.7850  200.8870 C.3    23  VAL23       0.0019
     29  N        -42.4950  -92.4700  194.1970 N.3    27  TYR27      -0.1241
     30  CA       -43.3540  -91.9190  193.1590 C.3    27  TYR27       0.1605
     31  C        -42.7930  -92.0010  191.7410 C.2    27  TYR27       0.2264
     32  O        -43.5770  -92.1780  190.7800 O.2    27  TYR27      -0.2867
     33  CB       -43.6530  -90.4490  193.4380 C.3    27  TYR27       0.0534
     34  CG       -44.6450  -90.1350  194.5280 C.ar   27  TYR27      -0.0201
     35  CD1      -45.5530  -91.0820  195.0420 C.ar   27  TYR27      -0.0009
     36  CD2      -44.7390  -88.8260  194.9900 C.ar   27  TYR27      -0.0009
     37  CE1      -46.4800  -90.7240  196.0230 C.ar   27  TYR27       0.0417
     38  CE2      -45.6390  -88.4800  195.9580 C.ar   27  TYR27       0.0417
     39  CZ       -46.5050  -89.4130  196.4650 C.ar   27  TYR27       0.1957
     40  OH       -47.3760  -88.9670  197.4160 O.3    27  TYR27      -0.2866
     41  N        -44.6410 -100.1960  193.0660 N.3    33  TRP33      -0.1241
     42  CA       -45.5370  -99.1180  193.4260 C.3    33  TRP33       0.1605
     43  C        -46.6110  -99.5810  194.4620 C.2    33  TRP33       0.2264
     44  O        -46.9730  -98.8030  195.3490 O.2    33  TRP33      -0.2867
     45  CB       -46.1740  -98.4790  192.1780 C.3    33  TRP33       0.0550
     46  CG       -47.2570  -97.5180  192.5940 C.ar   33  TRP33       0.0003
     47  CD1      -48.6210  -97.6060  192.3090 C.ar   33  TRP33       0.0946
     48  CD2      -47.0880  -96.3680  193.4490 C.ar   33  TRP33       0.0152
     49  NE1      -49.2780  -96.5500  192.9580 N.ar   33  TRP33      -0.2442
     50  CE2      -48.3710  -95.7830  193.6350 C.ar   33  TRP33       0.0810
     51  CE3      -45.9730  -95.7760  194.0860 C.ar   33  TRP33       0.0012
     52  CZ2      -48.5740  -94.6280  194.4270 C.ar   33  TRP33       0.0191
     53  CZ3      -46.1730  -94.6360  194.8580 C.ar   33  TRP33       0.0001
     54  CH2      -47.4750  -94.0690  195.0160 C.ar   33  TRP33       0.0015
     55  N        -46.6940  -97.7470  197.9370 N.3    37  LYS37      -0.1245
     56  CA       -47.8450  -96.9420  198.2570 C.3    37  LYS37       0.1561
     57  C        -48.3340  -97.1720  199.6640 C.2    37  LYS37       0.2260
     58  O        -48.6750  -96.2000  200.3360 O.2    37  LYS37      -0.2867
     59  CB       -48.9620  -97.1970  197.2820 C.3    37  LYS37       0.0271
     60  CG       -50.1730  -96.3150  197.5000 C.3    37  LYS37       0.0035
     61  CD       -51.1010  -96.5530  196.3580 C.3    37  LYS37       0.0206
     62  CE       -52.4130  -95.8590  196.5870 C.3    37  LYS37       0.1093
     63  NZ       -53.3510  -96.1980  195.4890 N.3    37  LYS37      -0.1314
     64  N        -45.8950  -95.5190  202.2090 N.3    40  ILE40      -0.1231
     65  CA       -46.0880  -94.0720  202.2550 C.3    40  ILE40       0.1692
     66  C        -47.3180  -93.7670  203.1040 C.2    40  ILE40       0.2592
     67  O        -47.2840  -92.8380  203.9070 O.2    40  ILE40      -0.2718
     68  CB       -46.2300  -93.4600  200.8450 C.3    40  ILE40       0.0266
     69  CG1      -44.9090  -93.5910  200.0800 C.3    40  ILE40       0.0019
     70  CG2      -46.6500  -92.0040  200.9120 C.3    40  ILE40       0.0020
     71  CD1      -45.0610  -93.3780  198.5890 C.3    40  ILE40       0.0001
     72  N        -48.3870  -94.5480  202.9190 N.am   41  PHE41      -0.1976
     73  CA       -49.5340  -94.4490  203.8140 C.3    41  PHE41       0.1639
     74  C        -49.1320  -94.6530  205.2720 C.2    41  PHE41       0.2290
     75  O        -49.4890  -93.8300  206.1360 O.2    41  PHE41      -0.2864
     76  CB       -50.6210  -95.4530  203.4460 C.3    41  PHE41       0.0560
     77  CG       -51.6860  -94.8980  202.5610 C.ar   41  PHE41      -0.0200
     78  CD1      -52.5710  -93.9210  203.0410 C.ar   41  PHE41      -0.0042
     79  CD2      -51.8430  -95.3740  201.2420 C.ar   41  PHE41      -0.0042
     80  CE1      -53.5860  -93.4270  202.2140 C.ar   41  PHE41      -0.0003
     81  CE2      -52.8510  -94.8850  200.4170 C.ar   41  PHE41      -0.0003
     82  CZ       -53.7230  -93.9140  200.9010 C.ar   41  PHE41      -0.0000
     83  N        -46.8820  -91.8510  206.4950 N.3    44  SER44      -0.1217
     84  CA       -47.6770  -90.6150  206.6370 C.3    44  SER44       0.1889
     85  C        -48.5080  -90.6330  207.8950 C.2    44  SER44       0.2288
     86  O        -48.4870  -89.6730  208.6460 O.2    44  SER44      -0.2866
     87  CB       -48.6320  -90.4060  205.4510 C.3    44  SER44       0.2089
     88  OG       -47.9190  -90.1960  204.2480 O.3    44  SER44      -0.2183
     89  N        -46.0820  -90.4290  210.8270 N.3    47  TRP47      -0.1227
     90  CA       -45.5600  -89.0440  210.9240 C.3    47  TRP47       0.1737
     91  C        -46.5530  -88.1110  211.6320 C.2    47  TRP47       0.2595
     92  O        -46.1920  -87.4090  212.5780 O.2    47  TRP47      -0.2718
     93  CB       -45.2420  -88.5220  209.5300 C.3    47  TRP47       0.0564
     94  CG       -44.4840  -87.2140  209.5210 C.ar   47  TRP47       0.0003
     95  CD1      -43.1160  -87.0390  209.5540 C.ar   47  TRP47       0.0946
     96  CD2      -45.0590  -85.9120  209.4660 C.ar   47  TRP47       0.0152
     97  NE1      -42.8200  -85.6990  209.5300 N.ar   47  TRP47      -0.2442
     98  CE2      -43.9940  -84.9830  209.4640 C.ar   47  TRP47       0.0810
     99  CE3      -46.3790  -85.4420  209.3730 C.ar   47  TRP47       0.0012
    100  CZ2      -44.2110  -83.5950  209.4060 C.ar   47  TRP47       0.0191
    101  CZ3      -46.5980  -84.0610  209.3040 C.ar   47  TRP47       0.0001
    102  CH2      -45.5120  -83.1530  209.3030 C.ar   47  TRP47       0.0015
    103  N        -47.7990  -88.1270  211.1810 N.am   48  ILE48      -0.1980
    104  CA       -48.8610  -87.3650  211.8380 C.3    48  ILE48       0.1595
    105  C        -48.9830  -87.7360  213.3270 C.2    48  ILE48       0.2287
    106  O        -49.1320  -86.8310  214.1600 O.2    48  ILE48      -0.2864
    107  CB       -50.2190  -87.5650  211.1220 C.3    48  ILE48       0.0276
    108  CG1      -50.1560  -86.9440  209.7180 C.3    48  ILE48       0.0022
    109  CG2      -51.3740  -86.9430  211.9070 C.3    48  ILE48       0.0022
    110  CD1      -51.2820  -87.3130  208.8220 C.3    48  ILE48       0.0001
    111  N        -46.0900  -86.2540  215.3180 N.3    51  VAL51      -0.1231
    112  CA       -46.2920  -84.8170  215.5040 C.3    51  VAL51       0.1692
    113  C        -47.2220  -84.5820  216.6940 C.2    51  VAL51       0.2591
    114  O        -46.9130  -83.7090  217.5240 O.2    51  VAL51      -0.2718
    115  CB       -46.8750  -84.1090  214.2420 C.3    51  VAL51       0.0266
    116  CG1      -47.2740  -82.6600  214.5300 C.3    51  VAL51       0.0020
    117  CG2      -45.8820  -84.1190  213.0910 C.3    51  VAL51       0.0020
    118  N        -48.3520  -85.3300  216.7700 N.am   52  LEU52      -0.1980
    119  CA       -49.3290  -85.1090  217.8520 C.3    52  LEU52       0.1596
    120  C        -48.7510  -85.5170  219.2030 C.2    52  LEU52       0.2287
    121  O        -48.9310  -84.8260  220.2040 O.2    52  LEU52      -0.2864
    122  CB       -50.6660  -85.8010  217.5740 C.3    52  LEU52       0.0297
    123  CG       -51.3620  -85.3080  216.3010 C.3    52  LEU52       0.0022
    124  CD1      -52.5480  -86.2440  215.9370 C.3    52  LEU52       0.0001
    125  CD2      -51.8180  -83.8490  216.3490 C.3    52  LEU52       0.0001
@<TRIPOS>BOND
     1    32    31    2
     2    31    30    1
     3    45    46    1
     4    45    42    1
     5    47    46   ar
     6    47    49   ar
     7    46    48   ar
     8    49    50   ar
     9    41    42    1
    10    30    33    1
    11    30    29    1
    12    42    43    1
    13    33    34    1
    14    48    50   ar
    15    48    51   ar
    16    50    52   ar
    17    51    53   ar
    18    52    54   ar
    19    43    44    2
    20    34    36   ar
    21    34    35   ar
    22    53    54   ar
    23    36    38   ar
    24    35    37   ar
    25    63    62    1
    26    38    39   ar
    27    37    39   ar
    28    61    62    1
    29    61    60    1
    30    39    40    1
    31    25    24    2
    32    59    60    1
    33    59    56    1
    34    24    23    1
    35    55    56    1
    36    56    57    1
    37    71    69    1
    38    27    26    1
    39    23    22    1
    40    23    26    1
    41    26    28    1
    42    57    58    2
    43    18    17    2
    44    69    68    1
    45    81    82   ar
    46    81    79   ar
    47    68    70    1
    48    68    65    1
    49    82    80   ar
    50    17    16    1
    51    79    77   ar
    52    10     9    2
    53    20    19    1
    54    64    65    1
    55    80    78   ar
    56    65    66    1
    57    16    19    1
    58    16    15    1
    59    77    78   ar
    60    77    76    1
    61     9    15   am
    62     9     8    1
    63    72    66   am
    64    72    73    1
    65    19    21    1
    66    66    67    2
    67    76    73    1
    68    73    74    1
    69     8    11    1
    70     8     7    1
    71    88    87    1
    72    14    13    1
    73    11    12    1
    74    13    12    1
    75    74    75    2
    76    87    84    1
    77     4     3    2
    78    83    84    1
    79    84    85    1
    80     3     2    1
    81    85    86    2
    82     2     5    1
    83     2     1    1
    84   110   108    1
    85     5     6    1
    86   102   101   ar
    87   102   100   ar
    88   101    99   ar
    89    99    96   ar
    90   100    98   ar
    91    98    96   ar
    92    98    97   ar
    93    96    94   ar
    94    94    93    1
    95    94    95   ar
    96    93    90    1
    97    97    95   ar
    98   108   107    1
    99    89    90    1
   100    90    91    1
   101   107   104    1
   102   107   109    1
   103   103    91   am
   104   103   104    1
   105    91    92    2
   106   104   105    1
   107   117   115    1
   108   105   106    2
   109   115   116    1
   110   115   112    1
   111   111   112    1
   112   112   113    1
   113   124   123    1
   114   123   125    1
   115   123   122    1
   116   113   118   am
   117   113   114    2
   118   118   119    1
   119   122   119    1
   120   119   120    1
   121   120   121    2
