@<TRIPOS>MOLECULE
tmp/5v2cU12.pdb
 107 104 0 0 0
SMALL
GASTEIGER

@<TRIPOS>ATOM
      1  N        -40.2800  -15.7690  159.6880 N.3    27  ALA27      -0.1231
      2  CA       -39.7880  -16.4990  160.8620 C.3    27  ALA27       0.1694
      3  C        -38.4590  -15.8870  161.3470 C.2    27  ALA27       0.2592
      4  O        -38.2660  -15.6900  162.5540 O.2    27  ALA27      -0.2718
      5  CB       -39.6170  -17.9980  160.5740 C.3    27  ALA27       0.0304
      6  N        -37.5790  -15.5730  160.3880 N.am   28  LEU28      -0.1966
      7  CA       -36.2940  -14.9850  160.7240 C.3    28  LEU28       0.1728
      8  C        -36.4680  -13.6230  161.3940 C.2    28  LEU28       0.2616
      9  O        -35.8060  -13.3370  162.3600 O.2    28  LEU28      -0.2715
     10  CB       -35.4320  -14.8680  159.5130 C.3    28  LEU28       0.0311
     11  CG       -34.7910  -16.2050  159.0900 C.3    28  LEU28       0.0022
     12  CD1      -34.3870  -16.1660  157.5920 C.3    28  LEU28       0.0001
     13  CD2      -33.5820  -16.6310  159.9680 C.3    28  LEU28       0.0001
     14  N        -37.3610  -12.8130  160.8440 N.am   29  VAL29      -0.1977
     15  CA       -37.5860  -11.4600  161.3610 C.3    29  VAL29       0.1596
     16  C        -38.2050  -11.4830  162.7520 C.2    29  VAL29       0.2287
     17  O        -37.7700  -10.7620  163.6450 O.2    29  VAL29      -0.2864
     18  CB       -38.3970  -10.6000  160.3830 C.3    29  VAL29       0.0276
     19  CG1      -38.6570   -9.2110  160.9620 C.3    29  VAL29       0.0022
     20  CG2      -37.6430  -10.4380  159.0740 C.3    29  VAL29       0.0022
     21  N        -38.0190  -13.9650  164.8110 N.3    31  GLY31      -0.1210
     22  CA       -37.0540  -14.4910  165.7130 C.3    31  GLY31       0.1956
     23  C        -35.9480  -13.4550  166.0950 C.2    31  GLY31       0.2611
     24  O        -35.4620  -13.4450  167.2030 O.2    31  GLY31      -0.2717
     25  N        -35.5780  -12.5950  165.1560 N.am   32  TRP32      -0.1976
     26  CA       -34.7320  -11.4830  165.4480 C.3    32  TRP32       0.1640
     27  C        -35.3750  -10.6020  166.5440 C.2    32  TRP32       0.2290
     28  O        -34.7150  -10.2600  167.5190 O.2    32  TRP32      -0.2864
     29  CB       -34.4140  -10.6400  164.1810 C.3    32  TRP32       0.0576
     30  CG       -33.6180   -9.4740  164.5550 C.ar   32  TRP32       0.0006
     31  CD1      -32.2320   -9.4380  164.7210 C.ar   32  TRP32       0.0946
     32  CD2      -34.1050   -8.1860  164.9720 C.ar   32  TRP32       0.0152
     33  NE1      -31.8680   -8.1690  165.1890 N.ar   32  TRP32      -0.2442
     34  CE2      -32.9740   -7.3920  165.3160 C.ar   32  TRP32       0.0810
     35  CE3      -35.3700   -7.5830  164.9920 C.ar   32  TRP32       0.0012
     36  CZ2      -33.0960   -6.0550  165.7340 C.ar   32  TRP32       0.0191
     37  CZ3      -35.4680   -6.2590  165.4410 C.ar   32  TRP32       0.0001
     38  CH2      -34.3690   -5.5420  165.8140 C.ar   32  TRP32       0.0015
     39  N        -35.2360  -12.4200  169.9050 N.3    35  SER35      -0.1217
     40  CA       -33.8450  -12.5020  170.3680 C.3    35  SER35       0.1889
     41  C        -33.3510  -11.1670  170.8570 C.2    35  SER35       0.2288
     42  O        -32.6630  -11.0630  171.8770 O.2    35  SER35      -0.2866
     43  CB       -32.9490  -12.9110  169.2200 C.3    35  SER35       0.2089
     44  OG       -33.3750  -14.1460  168.7090 O.3    35  SER35      -0.2183
     45  N        -40.7750  -15.4010  169.6020 N.3   100  ILE100     -0.1231
     46  CA       -40.0360  -16.6710  169.4390 C.3   100  ILE100      0.1692
     47  C        -40.9510  -17.8530  169.0420 C.2   100  ILE100      0.2591
     48  O        -40.6300  -18.6680  168.1440 O.2   100  ILE100     -0.2718
     49  CB       -39.2710  -17.0260  170.7290 C.3   100  ILE100      0.0266
     50  CG1      -38.1460  -16.0320  171.0500 C.3   100  ILE100      0.0019
     51  CG2      -38.6360  -18.4060  170.5980 C.3   100  ILE100      0.0020
     52  CD1      -37.0770  -15.9660  169.9710 C.3   100  ILE100      0.0001
     53  N        -42.0780  -17.9660  169.7120 N.am  101  VAL101     -0.1980
     54  CA       -43.0340  -19.0100  169.4050 C.3   101  VAL101      0.1595
     55  C        -43.5850  -18.7500  167.9990 C.2   101  VAL101      0.2287
     56  O        -43.6530  -19.6680  167.1750 O.2   101  VAL101     -0.2864
     57  CB       -44.1420  -19.0900  170.4570 C.3   101  VAL101      0.0276
     58  CG1      -45.1520  -20.1620  170.0500 C.3   101  VAL101      0.0022
     59  CG2      -43.5350  -19.4810  171.8090 C.3   101  VAL101      0.0022
     60  N        -42.0780  -17.3130  165.5150 N.3   103  SER103     -0.1202
     61  CA       -40.9940  -17.6880  164.6450 C.3   103  SER103      0.2020
     62  C        -40.9830  -19.1930  164.3550 C.2   103  SER103      0.2619
     63  O        -40.8720  -19.6390  163.1880 O.2   103  SER103     -0.2717
     64  CB       -39.6620  -17.2430  165.2550 C.3   103  SER103      0.2103
     65  OG       -38.5710  -17.5960  164.4030 O.3   103  SER103     -0.2182
     66  N        -41.1060  -19.9690  165.4130 N.am  104  GLY104     -0.1942
     67  CA       -41.1430  -21.4440  165.2730 C.3   104  GLY104      0.2014
     68  C        -42.3070  -21.9690  164.4450 C.2   104  GLY104      0.2638
     69  O        -42.1770  -22.8390  163.5960 O.2   104  GLY104     -0.2714
     70  N        -43.4710  -21.4160  164.7100 N.am  105  LEU105     -0.1977
     71  CA       -44.6760  -21.7780  163.9640 C.3   105  LEU105      0.1596
     72  C        -44.5330  -21.4150  162.4640 C.2   105  LEU105      0.2287
     73  O        -44.9400  -22.1990  161.6040 O.2   105  LEU105     -0.2864
     74  CB       -45.9170  -21.1650  164.6040 C.3   105  LEU105      0.0297
     75  CG       -46.2380  -21.6050  166.0120 C.3   105  LEU105      0.0022
     76  CD1      -47.4950  -20.8550  166.4960 C.3   105  LEU105      0.0001
     77  CD2      -46.4810  -23.0880  166.0480 C.3   105  LEU105      0.0001
     78  N        -41.6640  -21.1350  160.8700 N.3   107  PHE107     -0.1227
     79  CA       -40.7010  -22.0690  160.3340 C.3   107  PHE107      0.1736
     80  C        -41.3350  -23.3910  159.8910 C.2   107  PHE107      0.2595
     81  O        -41.1190  -23.9100  158.7690 O.2   107  PHE107     -0.2718
     82  CB       -39.5900  -22.2930  161.3620 C.3   107  PHE107      0.0547
     83  CG       -38.5810  -23.3240  161.0000 C.ar  107  PHE107     -0.0202
     84  CD1      -38.7810  -24.6560  161.3950 C.ar  107  PHE107     -0.0042
     85  CD2      -37.3890  -22.9670  160.3900 C.ar  107  PHE107     -0.0042
     86  CE1      -37.8610  -25.6620  161.0900 C.ar  107  PHE107     -0.0003
     87  CE2      -36.4290  -23.9670  160.0980 C.ar  107  PHE107     -0.0003
     88  CZ       -36.6750  -25.3250  160.4590 C.ar  107  PHE107     -0.0000
     89  N        -42.1230  -23.9320  160.7730 N.am  108  LEU108     -0.1980
     90  CA       -42.8870  -25.1440  160.4720 C.3   108  LEU108      0.1596
     91  C        -43.8070  -25.0280  159.2680 C.2   108  LEU108      0.2287
     92  O        -43.8330  -25.8970  158.3950 O.2   108  LEU108     -0.2864
     93  CB       -43.6440  -25.5940  161.7150 C.3   108  LEU108      0.0297
     94  CG       -42.7750  -26.1210  162.8890 C.3   108  LEU108      0.0022
     95  CD1      -43.6440  -26.4270  164.0520 C.3   108  LEU108      0.0001
     96  CD2      -42.0100  -27.3630  162.4840 C.3   108  LEU108      0.0001
     97  N        -30.9540    2.3600  154.1760 N.3   457  PHE457     -0.1241
     98  CA       -31.7180    1.2970  153.5680 C.3   457  PHE457      0.1605
     99  C        -32.7190    1.8820  152.5370 C.2   457  PHE457      0.2264
    100  O        -32.9020    1.3340  151.4470 O.2   457  PHE457     -0.2867
    101  CB       -32.4310    0.4690  154.6240 C.3   457  PHE457      0.0534
    102  CG       -31.5330   -0.4370  155.4630 C.ar  457  PHE457     -0.0203
    103  CD1      -30.3450   -0.9310  155.0100 C.ar  457  PHE457     -0.0042
    104  CD2      -31.9380   -0.8070  156.7250 C.ar  457  PHE457     -0.0042
    105  CE1      -29.5580   -1.7790  155.8180 C.ar  457  PHE457     -0.0003
    106  CE2      -31.1760   -1.6420  157.5300 C.ar  457  PHE457     -0.0003
    107  CZ       -29.9760   -2.1290  157.0710 C.ar  457  PHE457     -0.0000
@<TRIPOS>BOND
     1   100    99    2
     2    99    98    1
     3    98    97    1
     4    98   101    1
     5   101   102    1
     6   103   102   ar
     7   103   105   ar
     8   102   104   ar
     9   105   107   ar
    10   104   106   ar
    11   107   106   ar
    12    12    11    1
    13    92    91    2
    14    81    80    2
    15    20    18    1
    16    11    10    1
    17    11    13    1
    18    91    90    1
    19    10     7    1
    20     1     2    1
    21    80    79    1
    22    80    89   am
    23    87    85   ar
    24    87    88   ar
    25    79    78    1
    26    79    82    1
    27    18    19    1
    28    18    15    1
    29     6     7    1
    30     6     3   am
    31    85    83   ar
    32    88    86   ar
    33    90    89    1
    34    90    93    1
    35     5     2    1
    36     7     8    1
    37    14    15    1
    38    14     8   am
    39     2     3    1
    40    83    82    1
    41    83    84   ar
    42    86    84   ar
    43     3     4    2
    44    15    16    1
    45     8     9    2
    46    73    72    2
    47    93    94    1
    48    72    71    1
    49    96    94    1
    50    16    17    2
    51    94    95    1
    52    63    62    2
    53    69    68    2
    54    71    74    1
    55    71    70    1
    56    29    30    1
    57    29    26    1
    58    62    61    1
    59    62    66   am
    60    65    64    1
    61    68    70   am
    62    68    67    1
    63    30    31   ar
    64    30    32   ar
    65    74    75    1
    66    61    64    1
    67    61    60    1
    68    31    33   ar
    69    21    22    1
    70    32    35   ar
    71    32    34   ar
    72    35    37   ar
    73    25    26    1
    74    25    23   am
    75    33    34   ar
    76    67    66    1
    77    34    36   ar
    78    37    38   ar
    79    26    27    1
    80    22    23    1
    81    36    38   ar
    82    75    77    1
    83    75    76    1
    84    23    24    2
    85    27    28    2
    86    56    55    2
    87    55    54    1
    88    48    47    2
    89    44    43    1
    90    47    46    1
    91    47    53   am
    92    43    40    1
    93    54    53    1
    94    54    57    1
    95    46    45    1
    96    46    49    1
    97    39    40    1
    98    52    50    1
    99    58    57    1
   100    40    41    1
   101    57    59    1
   102    51    49    1
   103    49    50    1
   104    41    42    2
