@<TRIPOS>MOLECULE
tmp/5v2cV13.pdb
 124 115 0 0 0
SMALL
GASTEIGER

@<TRIPOS>ATOM
      1  N          8.9760   24.5960  106.2380 N.3    37  ALA37      -0.1245
      2  CA         8.4210   24.5230  107.5830 C.3    37  ALA37       0.1562
      3  C          9.4450   24.8210  108.6520 C.2    37  ALA37       0.2260
      4  O          9.1600   25.5390  109.6010 O.2    37  ALA37      -0.2867
      5  CB         7.8220   23.1300  107.8440 C.3    37  ALA37       0.0290
      6  N         10.6830   28.6860  108.4620 N.3    40  ALA40      -0.1231
      7  CA         9.5660   29.5020  108.9690 C.3    40  ALA40       0.1694
      8  C          9.4390   29.3910  110.4830 C.2    40  ALA40       0.2592
      9  O          9.1990   30.3910  111.1450 O.2    40  ALA40      -0.2718
     10  CB         8.2430   29.0860  108.2950 C.3    40  ALA40       0.0304
     11  N          9.5910   28.1670  111.0050 N.am   41  HIS41      -0.1976
     12  CA         9.4600   27.9360  112.4400 C.3    41  HIS41       0.1656
     13  C         10.5900   28.6320  113.1730 C.2    41  HIS41       0.2291
     14  O         10.3880   29.3050  114.2060 O.2    41  HIS41      -0.2864
     15  CB         9.4100   26.4430  112.8170 C.3    41  HIS41       0.0771
     16  CG         9.1870   26.2100  114.2900 C.ar   41  HIS41       0.0820
     17  ND1       10.2310   26.1140  115.1620 N.ar   41  HIS41      -0.2267
     18  CD2        8.0580   26.0740  115.0460 C.ar   41  HIS41       0.1154
     19  CE1        9.7770   25.9160  116.3960 C.ar   41  HIS41       0.1986
     20  NE2        8.4510   25.9110  116.3710 N.ar   41  HIS41      -0.2212
     21  N         12.0520   31.1830  112.1520 N.3    43  GLY43      -0.1210
     22  CA        11.5660   32.5450  112.1610 C.3    43  GLY43       0.1956
     23  C         10.6790   32.9210  113.3450 C.2    43  GLY43       0.2611
     24  O         10.8520   33.9920  113.9010 O.2    43  GLY43      -0.2717
     25  N          9.7060   32.0630  113.6690 N.am   44  LEU44      -0.1979
     26  CA         8.8210   32.2990  114.8020 C.3    44  LEU44       0.1596
     27  C          9.5720   32.4050  116.0890 C.2    44  LEU44       0.2287
     28  O          9.2250   33.2730  116.9210 O.2    44  LEU44      -0.2864
     29  CB         7.7730   31.2040  114.9710 C.3    44  LEU44       0.0297
     30  CG         6.7210   31.0510  113.8880 C.3    44  LEU44       0.0022
     31  CD1        6.0700   29.6890  114.0650 C.3    44  LEU44       0.0001
     32  CD2        5.7030   32.1870  113.8760 C.3    44  LEU44       0.0001
     33  N         11.4840   35.6900  115.9470 N.3    47  PHE47      -0.1241
     34  CA        10.4970   36.7200  116.0510 C.3    47  PHE47       0.1605
     35  C         10.1330   36.9810  117.5120 C.2    47  PHE47       0.2264
     36  O         10.0640   38.1390  117.9600 O.2    47  PHE47      -0.2867
     37  CB         9.2350   36.2960  115.2930 C.3    47  PHE47       0.0534
     38  CG         8.1710   37.3770  115.2150 C.ar   47  PHE47      -0.0203
     39  CD1        7.3590   37.6710  116.3040 C.ar   47  PHE47      -0.0042
     40  CD2        7.9800   38.0910  114.0480 C.ar   47  PHE47      -0.0042
     41  CE1        6.3960   38.6590  116.2400 C.ar   47  PHE47      -0.0003
     42  CE2        7.0080   39.0590  113.9700 C.ar   47  PHE47      -0.0003
     43  CZ         6.2140   39.3500  115.0690 C.ar   47  PHE47      -0.0000
     44  N         11.6390   43.6100  122.9730 N.3    54  LEU54      -0.1245
     45  CA        11.1190   44.9810  122.8140 C.3    54  LEU54       0.1561
     46  C          9.9850   45.3240  123.7700 C.2    54  LEU54       0.2260
     47  O          9.9130   46.4370  124.2960 O.2    54  LEU54      -0.2867
     48  CB        10.7140   45.2690  121.3620 C.3    54  LEU54       0.0270
     49  CG        11.9670   45.1900  120.4080 C.3    54  LEU54       0.0019
     50  CD1       11.6240   45.3820  118.9380 C.3    54  LEU54       0.0001
     51  CD2       13.0930   46.1320  120.7710 C.3    54  LEU54       0.0001
     52  N         17.8560   46.9430  123.5670 N.3    97  PHE97      -0.1241
     53  CA        17.1390   47.3850  122.3720 C.3    97  PHE97       0.1605
     54  C         17.7360   46.7780  121.0930 C.2    97  PHE97       0.2264
     55  O         16.9860   46.2540  120.2240 O.2    97  PHE97      -0.2867
     56  CB        17.1570   48.9370  122.3240 C.3    97  PHE97       0.0534
     57  CG        16.3710   49.5210  121.2100 C.ar   97  PHE97      -0.0203
     58  CD1       15.0080   49.3090  121.1330 C.ar   97  PHE97      -0.0042
     59  CD2       16.9810   50.3030  120.2570 C.ar   97  PHE97      -0.0042
     60  CE1       14.2490   49.8580  120.1070 C.ar   97  PHE97      -0.0003
     61  CE2       16.2390   50.8530  119.2380 C.ar   97  PHE97      -0.0003
     62  CZ        14.8620   50.6320  119.1560 C.ar   97  PHE97      -0.0000
     63  N         15.7810   44.4080  118.4200 N.3   101  VAL101     -0.1245
     64  CA        15.6300   44.8460  117.0370 C.3   101  VAL101      0.1561
     65  C         16.2450   43.8570  116.0570 C.2   101  VAL101      0.2260
     66  O         15.5870   43.4650  115.1020 O.2   101  VAL101     -0.2867
     67  CB        16.1710   46.2960  116.8420 C.3   101  VAL101      0.0252
     68  CG1       16.3430   46.6540  115.3580 C.3   101  VAL101      0.0019
     69  CG2       15.2260   47.2860  117.5720 C.3   101  VAL101      0.0019
     70  N         14.3740   40.6820  115.6840 N.3   104  LEU104     -0.1231
     71  CA        13.0810   40.9040  114.9910 C.3   104  LEU104      0.1693
     72  C         13.2680   41.1280  113.5060 C.2   104  LEU104      0.2591
     73  O         12.4430   40.6790  112.7180 O.2   104  LEU104     -0.2718
     74  CB        12.3320   42.0830  115.5900 C.3   104  LEU104      0.0284
     75  CG        10.9160   42.3840  115.0720 C.3   104  LEU104      0.0019
     76  CD1        9.9550   41.2540  115.3790 C.3   104  LEU104      0.0001
     77  CD2       10.3360   43.7070  115.6150 C.3   104  LEU104      0.0001
     78  N         14.3220   41.8480  113.1320 N.am  105  ILE105     -0.1980
     79  CA        14.6630   42.0300  111.7220 C.3   105  ILE105      0.1595
     80  C         15.0530   40.6870  111.0670 C.2   105  ILE105      0.2287
     81  O         14.5780   40.3550  109.9650 O.2   105  ILE105     -0.2864
     82  CB        15.7900   43.0910  111.5070 C.3   105  ILE105      0.0276
     83  CG1       15.3150   44.5180  111.8590 C.3   105  ILE105      0.0022
     84  CG2       16.3070   43.0940  110.0620 C.3   105  ILE105      0.0022
     85  CD1       13.9880   44.9650  111.2570 C.3   105  ILE105      0.0001
     86  N         14.0780   37.8100  111.8730 N.3   107  SER107     -0.1202
     87  CA        12.8890   36.9490  111.8060 C.3   107  SER107      0.2020
     88  C         12.1510   37.1460  110.5020 C.2   107  SER107      0.2618
     89  O         11.4800   36.2180  110.0360 O.2   107  SER107     -0.2717
     90  CB        11.9490   37.1580  113.0010 C.3   107  SER107      0.2103
     91  OG        11.0750   38.2580  112.8360 O.3   107  SER107     -0.2182
     92  N         12.2630   38.3480  109.9190 N.am  108  ALA108     -0.1979
     93  CA        11.6500   38.6170  108.6220 C.3   108  ALA108      0.1597
     94  C         12.3790   37.8820  107.5170 C.2   108  ALA108      0.2287
     95  O         11.7430   37.4010  106.5870 O.2   108  ALA108     -0.2864
     96  CB        11.6020   40.1210  108.3330 C.3   108  ALA108      0.0319
     97  N         11.4680   34.1690  108.0050 N.3   111  GLY111     -0.1225
     98  CA        10.0720   34.0640  107.5500 C.3   111  GLY111      0.1811
     99  C          9.9060   34.0550  106.0170 C.2   111  GLY111      0.2280
    100  O          9.1480   33.2610  105.4270 O.2   111  GLY111     -0.2866
    101  N         11.2800   30.7750  104.6900 N.3   114  GLY114     -0.1210
    102  CA        10.3910   29.6820  105.0500 C.3   114  GLY114      0.1956
    103  C          9.1120   29.6480  104.2160 C.2   114  GLY114      0.2611
    104  O          8.6880   28.5730  103.7240 O.2   114  GLY114     -0.2717
    105  N          8.5190   30.8310  104.0310 N.am  115  VAL115     -0.1979
    106  CA         7.3390   30.9570  103.2130 C.3   115  VAL115      0.1595
    107  C          7.7070   30.6010  101.7630 C.2   115  VAL115      0.2287
    108  O          6.9280   29.8890  101.0400 O.2   115  VAL115     -0.2864
    109  CB         6.7250   32.3610  103.3230 C.3   115  VAL115      0.0276
    110  CG1        5.5280   32.5200  102.3740 C.3   115  VAL115      0.0022
    111  CG2        6.2780   32.6140  104.7660 C.3   115  VAL115      0.0022
    112  N          8.2310   26.8750  101.5020 N.3   118  ALA118     -0.1231
    113  CA         6.9940   26.2050  101.8480 C.3   118  ALA118      0.1694
    114  C          5.9460   26.2100  100.7560 C.2   118  ALA118      0.2591
    115  O          5.2230   25.2310  100.5850 O.2   118  ALA118     -0.2718
    116  CB         6.3800   26.7610  103.1550 C.3   118  ALA118      0.0304
    117  N          5.7890   27.3230  100.0570 N.am  119  ILE119     -0.1980
    118  CA         4.6830   27.3860   99.1040 C.3   119  ILE119      0.1595
    119  C          5.1140   27.6180   97.6490 C.2   119  ILE119      0.2287
    120  O          4.3730   27.2690   96.7650 O.2   119  ILE119     -0.2864
    121  CB         3.5310   28.3180   99.5750 C.3   119  ILE119      0.0276
    122  CG1        4.0160   29.7250   99.7590 C.3   119  ILE119      0.0022
    123  CG2        2.9440   27.8430  100.9240 C.3   119  ILE119      0.0022
    124  CD1        2.8790   30.7080   99.9330 C.3   119  ILE119      0.0001
@<TRIPOS>BOND
     1   120   119    2
     2   119   118    1
     3   118   121    1
     4   118   117    1
     5   121   122    1
     6   121   123    1
     7   122   124    1
     8   117   114   am
     9   115   114    2
    10   114   113    1
    11   108   107    2
    12   112   113    1
    13   107   106    1
    14   113   116    1
    15   110   109    1
    16   106   109    1
    17   106   105    1
    18   109   111    1
    19   104   103    2
    20   105   103   am
    21   103   102    1
    22   101   102    1
    23   100    99    2
    24    99    98    1
    25     1     2    1
    26    95    94    2
    27    94    93    1
    28    98    97    1
    29     2     5    1
    30     2     3    1
    31    10     7    1
    32    96    93    1
    33     6     7    1
    34    93    92    1
    35     3     4    2
    36     7     8    1
    37    92    88   am
    38    81    80    2
    39    89    88    2
    40    84    82    1
    41     8    11   am
    42     8     9    2
    43    88    87    1
    44    11    12    1
    45    80    79    1
    46    85    83    1
    47    82    79    1
    48    82    83    1
    49    79    78    1
    50    87    86    1
    51    87    90    1
    52    21    22    1
    53    22    23    1
    54    12    15    1
    55    12    13    1
    56    73    72    2
    57    15    16    1
    58    91    90    1
    59    78    72   am
    60    13    14    2
    61    23    25   am
    62    23    24    2
    63    72    71    1
    64    25    26    1
    65    32    30    1
    66    30    31    1
    67    30    29    1
    68    42    40   ar
    69    42    43   ar
    70    40    38   ar
    71    16    18   ar
    72    16    17   ar
    73    26    29    1
    74    26    27    1
    75    71    74    1
    76    71    70    1
    77    18    20   ar
    78    43    41   ar
    79    75    76    1
    80    75    74    1
    81    75    77    1
    82    66    65    2
    83    17    19   ar
    84    38    37    1
    85    38    39   ar
    86    37    34    1
    87    68    67    1
    88    33    34    1
    89    34    35    1
    90    65    64    1
    91    27    28    2
    92    41    39   ar
    93    20    19   ar
    94    67    64    1
    95    67    69    1
    96    64    63    1
    97    35    36    2
    98    50    49    1
    99    62    61   ar
   100    62    60   ar
   101    61    59   ar
   102    60    58   ar
   103    55    54    2
   104    59    57   ar
   105    49    51    1
   106    49    48    1
   107    54    53    1
   108    58    57   ar
   109    57    56    1
   110    48    45    1
   111    56    53    1
   112    53    52    1
   113    45    44    1
   114    45    46    1
   115    46    47    2
