@<TRIPOS>MOLECULE
tmp/5v2cU08.pdb
 99 97 0 0 0
SMALL
GASTEIGER

@<TRIPOS>ATOM
      1  N        -27.5440  -21.2380  136.9210 N.3     2  LEU2       -0.1245
      2  CA       -27.8430  -19.8970  137.3850 C.3     2  LEU2        0.1561
      3  C        -26.5940  -19.3000  138.0640 C.2     2  LEU2        0.2260
      4  O        -25.9260  -19.9440  138.8870 O.2     2  LEU2       -0.2867
      5  CB       -28.9460  -19.8990  138.4270 C.3     2  LEU2        0.0270
      6  CG       -30.3700  -20.1560  138.0520 C.3     2  LEU2        0.0019
      7  CD1      -31.2310  -20.3450  139.2920 C.3     2  LEU2        0.0001
      8  CD2      -30.8910  -18.9990  137.1720 C.3     2  LEU2        0.0001
      9  N        -24.7960  -16.8930  140.9450 N.3     4  TRP4       -0.1241
     10  CA       -25.0550  -16.8080  142.3820 C.3     4  TRP4        0.1605
     11  C        -26.1060  -15.7640  142.7220 C.2     4  TRP4        0.2264
     12  O        -26.9440  -15.9750  143.5880 O.2     4  TRP4       -0.2867
     13  CB       -23.7660  -16.5390  143.1230 C.3     4  TRP4        0.0550
     14  CG       -23.1760  -15.1880  143.0100 C.ar    4  TRP4        0.0003
     15  CD1      -22.2050  -14.8110  142.1750 C.ar    4  TRP4        0.0946
     16  CD2      -23.5410  -14.0200  143.7620 C.ar    4  TRP4        0.0152
     17  NE1      -21.9030  -13.4720  142.3410 N.ar    4  TRP4       -0.2442
     18  CE2      -22.7420  -12.9520  143.2850 C.ar    4  TRP4        0.0810
     19  CE3      -24.4740  -13.7620  144.7840 C.ar    4  TRP4        0.0012
     20  CZ2      -22.8410  -11.6480  143.8050 C.ar    4  TRP4        0.0191
     21  CZ3      -24.5790  -12.4710  145.2860 C.ar    4  TRP4        0.0001
     22  CH2      -23.7600  -11.4360  144.8020 C.ar    4  TRP4        0.0015
     23  N        -30.0440  -17.0140  142.2360 N.3     7  VAL7       -0.1231
     24  CA       -30.4920  -18.3010  142.7840 C.3     7  VAL7        0.1692
     25  C        -31.9660  -18.2510  143.1810 C.2     7  VAL7        0.2592
     26  O        -32.6780  -19.2070  142.9220 O.2     7  VAL7       -0.2718
     27  CB       -29.6320  -18.8370  143.9540 C.3     7  VAL7        0.0266
     28  CG1      -28.2460  -19.2940  143.4510 C.3     7  VAL7        0.0020
     29  CG2      -29.5040  -17.8310  145.1050 C.3     7  VAL7        0.0020
     30  N        -32.4580  -17.1260  143.7090 N.am    8  HIS8       -0.1976
     31  CA       -33.8260  -17.0930  144.1950 C.3     8  HIS8        0.1656
     32  C        -34.8620  -16.9440  143.1080 C.2     8  HIS8        0.2291
     33  O        -36.0990  -17.0570  143.3560 O.2     8  HIS8       -0.2864
     34  CB       -33.9270  -16.0570  145.2930 C.3     8  HIS8        0.0771
     35  CG       -33.0900  -16.3950  146.5250 C.ar    8  HIS8        0.0820
     36  ND1      -32.6860  -15.4390  147.4270 N.ar    8  HIS8       -0.2267
     37  CD2      -32.5900  -17.5830  147.0040 C.ar    8  HIS8        0.1154
     38  CE1      -31.9820  -16.0110  148.4080 C.ar    8  HIS8        0.1986
     39  NE2      -31.9470  -17.3240  148.2100 N.ar    8  HIS8       -0.2212
     40  N        -35.6770  -19.0630  141.0590 N.3    10  VAL10      -0.1231
     41  CA       -36.4070  -20.3210  140.9150 C.3    10  VAL10       0.1692
     42  C        -37.8290  -20.2340  141.5070 C.2    10  VAL10       0.2591
     43  O        -38.6560  -21.0670  141.2420 O.2    10  VAL10      -0.2718
     44  CB       -35.6930  -21.5210  141.5620 C.3    10  VAL10       0.0266
     45  CG1      -34.3600  -21.8060  140.8470 C.3    10  VAL10       0.0020
     46  CG2      -35.5140  -21.3750  143.1270 C.3    10  VAL10       0.0020
     47  N        -38.0860  -19.2340  142.3290 N.am   11  LEU11      -0.1980
     48  CA       -39.3870  -19.0470  142.9550 C.3    11  LEU11       0.1596
     49  C        -40.4060  -18.2970  142.1150 C.2    11  LEU11       0.2287
     50  O        -41.5810  -18.2920  142.4350 O.2    11  LEU11      -0.2864
     51  CB       -39.1960  -18.2680  144.2690 C.3    11  LEU11       0.0297
     52  CG       -38.2730  -18.8820  145.2990 C.3    11  LEU11       0.0022
     53  CD1      -38.0810  -17.9120  146.4390 C.3    11  LEU11       0.0001
     54  CD2      -38.8620  -20.1960  145.7810 C.3    11  LEU11       0.0001
     55  N        -40.6910  -19.4290  151.1680 N.3    21  ALA21      -0.1245
     56  CA       -39.5590  -18.4980  151.3740 C.3    21  ALA21       0.1562
     57  C        -39.9890  -17.2520  152.1620 C.2    21  ALA21       0.2260
     58  O        -39.2890  -16.7880  153.0620 O.2    21  ALA21      -0.2867
     59  CB       -39.0010  -18.1190  150.0420 C.3    21  ALA21       0.0290
     60  N        -40.3220  -18.2170  155.7150 N.3    24  MET24      -0.1230
     61  CA       -39.0370  -18.3060  156.3520 C.3    24  MET24       0.1702
     62  C        -38.4760  -16.9350  156.7140 C.2    24  MET24       0.2592
     63  O        -37.9370  -16.7800  157.7850 O.2    24  MET24      -0.2718
     64  CB       -38.0430  -19.0270  155.4700 C.3    24  MET24       0.0401
     65  CG       -36.7050  -19.3850  156.1690 C.3    24  MET24       0.0596
     66  SD       -36.8180  -20.4670  157.6230 S.3    24  MET24      -0.1393
     67  CE       -37.6360  -21.9190  156.9660 C.3    24  MET24       0.0692
     68  N        -38.5870  -15.9800  155.7840 N.am   25  HIS25      -0.1976
     69  CA       -38.1580  -14.6060  156.0430 C.3    25  HIS25       0.1656
     70  C        -38.9150  -14.0770  157.2630 C.2    25  HIS25       0.2291
     71  O        -38.2990  -13.4680  158.1430 O.2    25  HIS25      -0.2864
     72  CB       -38.3180  -13.6750  154.7980 C.3    25  HIS25       0.0771
     73  CG       -37.7810  -12.2730  154.9990 C.ar   25  HIS25       0.0820
     74  ND1      -38.5930  -11.2210  155.4000 N.ar   25  HIS25      -0.2267
     75  CD2      -36.5140  -11.7640  154.8930 C.ar   25  HIS25       0.1154
     76  CE1      -37.8480  -10.1120  155.5040 C.ar   25  HIS25       0.1986
     77  NE2      -36.5650  -10.4070  155.2320 N.ar   25  HIS25      -0.2212
     78  N        -37.5790  -15.5730  160.3880 N.3    28  LEU28      -0.1245
     79  CA       -36.2940  -14.9850  160.7240 C.3    28  LEU28       0.1561
     80  C        -36.4680  -13.6230  161.3940 C.2    28  LEU28       0.2260
     81  O        -35.8060  -13.3370  162.3600 O.2    28  LEU28      -0.2867
     82  CB       -35.4320  -14.8680  159.5130 C.3    28  LEU28       0.0270
     83  CG       -34.7910  -16.2050  159.0900 C.3    28  LEU28       0.0019
     84  CD1      -34.3870  -16.1660  157.5920 C.3    28  LEU28       0.0001
     85  CD2      -33.5820  -16.6310  159.9680 C.3    28  LEU28       0.0001
     86  N        -43.1070  -25.6140  151.5000 N.3   114  TRP114     -0.1241
     87  CA       -42.0140  -26.0130  150.6020 C.3   114  TRP114      0.1605
     88  C        -42.2200  -27.4100  150.0160 C.2   114  TRP114      0.2264
     89  O        -42.0460  -27.6290  148.8150 O.2   114  TRP114     -0.2867
     90  CB       -40.6690  -25.9480  151.3000 C.3   114  TRP114      0.0550
     91  CG       -39.5180  -26.2240  150.4410 C.ar  114  TRP114      0.0003
     92  CD1      -38.8830  -27.4440  150.2690 C.ar  114  TRP114      0.0946
     93  CD2      -38.7830  -25.2820  149.6540 C.ar  114  TRP114      0.0152
     94  NE1      -37.8450  -27.3210  149.4130 N.ar  114  TRP114     -0.2442
     95  CE2      -37.7500  -26.0040  149.0020 C.ar  114  TRP114      0.0810
     96  CE3      -38.9050  -23.9190  149.4090 C.ar  114  TRP114      0.0012
     97  CZ2      -36.8270  -25.3740  148.1230 C.ar  114  TRP114      0.0191
     98  CZ3      -37.9990  -23.3070  148.5550 C.ar  114  TRP114      0.0001
     99  CH2      -36.9630  -24.0280  147.9240 C.ar  114  TRP114      0.0015
@<TRIPOS>BOND
     1     1     2    1
     2     8     6    1
     3     2     3    1
     4     2     5    1
     5     6     5    1
     6     6     7    1
     7     3     4    2
     8    45    44    1
     9    41    40    1
    10    41    42    1
    11    41    44    1
    12     9    10    1
    13    43    42    2
    14    42    47   am
    15    44    46    1
    16    49    50    2
    17    49    48    1
    18    15    17   ar
    19    15    14   ar
    20    23    24    1
    21    47    48    1
    22    17    18   ar
    23    10    11    1
    24    10    13    1
    25    11    12    2
    26    24    25    1
    27    24    27    1
    28    26    25    2
    29    48    51    1
    30    14    13    1
    31    14    16   ar
    32    32    33    2
    33    32    31    1
    34    25    30   am
    35    18    16   ar
    36    18    20   ar
    37    28    27    1
    38    30    31    1
    39    16    19   ar
    40    20    22   ar
    41    27    29    1
    42    31    34    1
    43    51    52    1
    44    19    21   ar
    45    22    21   ar
    46    34    35    1
    47    52    54    1
    48    52    53    1
    49    35    37   ar
    50    35    36   ar
    51    37    39   ar
    52    36    38   ar
    53    99    97   ar
    54    99    98   ar
    55    97    95   ar
    56    39    38   ar
    57    98    96   ar
    58    89    88    2
    59    95    94   ar
    60    95    93   ar
    61    96    93   ar
    62    94    92   ar
    63    93    91   ar
    64    88    87    1
    65    59    56    1
    66    92    91   ar
    67    91    90    1
    68    87    90    1
    69    87    86    1
    70    55    56    1
    71    56    57    1
    72    57    58    2
    73    72    73    1
    74    72    69    1
    75    75    73   ar
    76    75    77   ar
    77    73    74   ar
    78    77    76   ar
    79    74    76   ar
    80    64    65    1
    81    64    61    1
    82    60    61    1
    83    68    69    1
    84    68    62   am
    85    69    70    1
    86    65    66    1
    87    61    62    1
    88    62    63    2
    89    67    66    1
    90    70    71    2
    91    84    83    1
    92    83    82    1
    93    83    85    1
    94    82    79    1
    95    78    79    1
    96    79    80    1
    97    80    81    2
