@<TRIPOS>MOLECULE
tmp/5v2cV27.pdb
 183 174 0 0 0
SMALL
GASTEIGER

@<TRIPOS>ATOM
      1  N         11.7730   28.4980  112.6170 N.3    42  ALA42      -0.1245
      2  CA        12.9110   29.1870  113.1810 C.3    42  ALA42       0.1562
      3  C         12.6910   30.6940  113.2050 C.2    42  ALA42       0.2260
      4  O         13.0620   31.3850  114.1560 O.2    42  ALA42      -0.2867
      5  CB        14.1720   28.8480  112.4470 C.3    42  ALA42       0.0290
      6  N         10.5790   31.5290  116.2530 N.3    45  ILE45      -0.1231
      7  CA        11.4220   31.5610  117.4630 C.3    45  ILE45       0.1692
      8  C         12.1340   32.9220  117.5620 C.2    45  ILE45       0.2591
      9  O         12.1290   33.5740  118.5760 O.2    45  ILE45      -0.2718
     10  CB        12.4740   30.4250  117.4740 C.3    45  ILE45       0.0266
     11  CG1       11.7880   29.0310  117.4850 C.3    45  ILE45       0.0019
     12  CG2       13.4410   30.5610  118.6590 C.3    45  ILE45       0.0020
     13  CD1       12.7690   27.8790  117.5270 C.3    45  ILE45       0.0001
     14  N         12.7680   33.2970  116.4820 N.am   46  VAL46      -0.1980
     15  CA        13.5570   34.5070  116.3960 C.3    46  VAL46       0.1595
     16  C         12.6610   35.7530  116.5420 C.2    46  VAL46       0.2287
     17  O         13.0240   36.7120  117.2370 O.2    46  VAL46      -0.2864
     18  CB        14.3980   34.5080  115.1350 C.3    46  VAL46       0.0276
     19  CG1       15.0900   35.8580  114.9380 C.3    46  VAL46       0.0022
     20  CG2       15.4770   33.4440  115.2570 C.3    46  VAL46       0.0022
     21  N          9.8530   35.9030  118.2310 N.3    48  TRP48      -0.1227
     22  CA         9.5180   35.9900  119.6290 C.3    48  TRP48       0.1737
     23  C         10.6440   36.6010  120.4510 C.2    48  TRP48       0.2595
     24  O         10.3800   37.5240  121.2040 O.2    48  TRP48      -0.2718
     25  CB         9.0740   34.6280  120.1980 C.3    48  TRP48       0.0564
     26  CG         8.7070   34.7490  121.6670 C.ar   48  TRP48       0.0003
     27  CD1        7.4910   35.0990  122.1780 C.ar   48  TRP48       0.0946
     28  CD2        9.5640   34.5340  122.7870 C.ar   48  TRP48       0.0152
     29  NE1        7.5390   35.1120  123.5370 N.ar   48  TRP48      -0.2442
     30  CE2        8.7940   34.7590  123.9470 C.ar   48  TRP48       0.0810
     31  CE3       10.8970   34.1370  122.9290 C.ar   48  TRP48       0.0012
     32  CZ2        9.3080   34.6120  125.2270 C.ar   48  TRP48       0.0191
     33  CZ3       11.4090   34.0210  124.2160 C.ar   48  TRP48       0.0001
     34  CH2       10.6220   34.2530  125.3370 C.ar   48  TRP48       0.0015
     35  N         11.8810   36.1040  120.2800 N.am   49  ALA49      -0.1980
     36  CA        13.0000   36.6770  120.9790 C.3    49  ALA49       0.1597
     37  C         13.0660   38.1790  120.7380 C.2    49  ALA49       0.2287
     38  O         13.2160   38.9590  121.7060 O.2    49  ALA49      -0.2864
     39  CB        14.2970   36.0150  120.5820 C.3    49  ALA49       0.0319
     40  N         11.6470   40.9110  123.6430 N.3    53  THR53      -0.1218
     41  CA        12.6550   41.8210  124.2160 C.3    53  THR53       0.1862
     42  C         12.1920   43.2550  124.1100 C.2    53  THR53       0.2287
     43  O         12.3420   44.0260  125.0650 O.2    53  THR53      -0.2866
     44  CB        13.9900   41.6670  123.5180 C.3    53  THR53       0.1770
     45  OG1       14.4260   40.3430  123.7350 O.3    53  THR53      -0.2211
     46  CG2       15.0590   42.5670  124.0950 C.3    53  THR53       0.0375
     47  N         13.8260   37.7450  129.3660 N.3    73  LEU73      -0.1245
     48  CA        14.8510   37.9370  128.3140 C.3    73  LEU73       0.1561
     49  C         15.9540   38.9560  128.6560 C.2    73  LEU73       0.2260
     50  O         17.1490   38.6920  128.4460 O.2    73  LEU73      -0.2867
     51  CB        14.1910   38.2450  126.9750 C.3    73  LEU73       0.0270
     52  CG        13.2490   37.1490  126.4800 C.3    73  LEU73       0.0019
     53  CD1       12.8800   37.3650  125.0140 C.3    73  LEU73       0.0001
     54  CD2       13.8040   35.7300  126.6660 C.3    73  LEU73       0.0001
     55  N         18.6400   37.4360  130.6040 N.3    76  HIS76      -0.1226
     56  CA        19.6110   36.6920  129.7640 C.3    76  HIS76       0.1752
     57  C         20.6700   37.5950  129.1390 C.2    76  HIS76       0.2595
     58  O         21.8660   37.2780  129.1380 O.2    76  HIS76      -0.2718
     59  CB        18.9040   35.8820  128.6750 C.3    76  HIS76       0.0759
     60  CG        18.3060   34.6040  129.1800 C.ar   76  HIS76       0.0818
     61  ND1       17.0640   34.5500  129.7580 N.ar   76  HIS76      -0.2268
     62  CD2       18.8020   33.3410  129.2260 C.ar   76  HIS76       0.1154
     63  CE1       16.8100   33.2980  130.1290 C.ar   76  HIS76       0.1986
     64  NE2       17.8600   32.5510  129.8340 N.ar   76  HIS76      -0.2212
     65  N         20.2180   38.7330  128.6160 N.am   77  ILE77      -0.1980
     66  CA        21.1450   39.6920  127.9930 C.3    77  ILE77       0.1595
     67  C         22.0990   40.2920  129.0270 C.2    77  ILE77       0.2287
     68  O         23.3050   40.4330  128.8020 O.2    77  ILE77      -0.2864
     69  CB        20.3800   40.7890  127.2230 C.3    77  ILE77       0.0276
     70  CG1       19.5530   40.1540  126.1290 C.3    77  ILE77       0.0022
     71  CG2       21.3750   41.7000  126.5640 C.3    77  ILE77       0.0022
     72  CD1       18.3630   40.9610  125.7460 C.3    77  ILE77       0.0001
     73  N         25.0580   38.2320  130.1840 N.3    80  LEU80      -0.1245
     74  CA        26.1660   38.2620  129.2450 C.3    80  LEU80       0.1561
     75  C         27.0330   39.5160  129.3670 C.2    80  LEU80       0.2260
     76  O         27.9950   39.6690  128.6320 O.2    80  LEU80      -0.2867
     77  CB        25.6050   38.1130  127.8260 C.3    80  LEU80       0.0270
     78  CG        25.1610   36.6760  127.5260 C.3    80  LEU80       0.0019
     79  CD1       24.3250   36.6570  126.2620 C.3    80  LEU80       0.0001
     80  CD2       26.3560   35.7380  127.3880 C.3    80  LEU80       0.0001
     81  N         25.8790   42.7670  129.0590 N.3    82  TRP82      -0.1241
     82  CA        25.3500   43.8850  128.3100 C.3    82  TRP82       0.1605
     83  C         24.3410   44.6590  129.1290 C.2    82  TRP82       0.2264
     84  O         23.4130   44.0680  129.6830 O.2    82  TRP82      -0.2867
     85  CB        24.6970   43.4000  126.9950 C.3    82  TRP82       0.0550
     86  CG        25.6920   43.1870  125.8700 C.ar   82  TRP82       0.0003
     87  CD1       26.7100   44.0230  125.5210 C.ar   82  TRP82       0.0946
     88  CD2       25.7140   42.1250  124.9140 C.ar   82  TRP82       0.0152
     89  NE1       27.4170   43.5100  124.4460 N.ar   82  TRP82      -0.2442
     90  CE2       26.8090   42.3600  124.0400 C.ar   82  TRP82       0.0810
     91  CE3       24.9630   40.9730  124.7360 C.ar   82  TRP82       0.0012
     92  CZ2       27.1640   41.4720  123.0130 C.ar   82  TRP82       0.0191
     93  CZ3       25.3090   40.0860  123.7000 C.ar   82  TRP82       0.0001
     94  CH2       26.3980   40.3450  122.8600 C.ar   82  TRP82       0.0015
     95  N         19.5740   44.0060  120.7930 N.3    99  VAL99      -0.1245
     96  CA        19.2840   42.5770  120.7500 C.3    99  VAL99       0.1561
     97  C         17.8860   42.3230  120.2120 C.2    99  VAL99       0.2260
     98  O         17.6890   41.4780  119.3520 O.2    99  VAL99      -0.2867
     99  CB        19.4610   41.9080  122.1310 C.3    99  VAL99       0.0252
    100  CG1       18.9560   40.4680  122.1270 C.3    99  VAL99       0.0019
    101  CG2       20.9230   41.8780  122.5000 C.3    99  VAL99       0.0019
    102  N         17.1060   40.6500  116.3810 N.3   103  HIS103     -0.1241
    103  CA        16.3750   39.3880  116.3160 C.3   103  HIS103      0.1621
    104  C         15.1020   39.6080  115.4570 C.2   103  HIS103      0.2264
    105  O         14.8130   38.8510  114.5670 O.2   103  HIS103     -0.2867
    106  CB        16.0720   38.7540  117.7330 C.3   103  HIS103      0.0745
    107  CG        17.1970   37.9130  118.3350 C.ar  103  HIS103      0.0817
    108  ND1       18.1780   38.4520  119.1220 N.ar  103  HIS103     -0.2268
    109  CD2       17.4390   36.5680  118.3260 C.ar  103  HIS103      0.1154
    110  CE1       19.0070   37.4930  119.5300 C.ar  103  HIS103      0.1986
    111  NE2       18.5730   36.3200  119.0910 N.ar  103  HIS103     -0.2212
    112  N         14.1950   35.0010  107.8640 N.3   110  LEU110     -0.1245
    113  CA        13.8540   33.5900  108.0610 C.3   110  LEU110      0.1561
    114  C         12.4020   33.3090  107.6080 C.2   110  LEU110      0.2260
    115  O         12.1450   32.3480  106.8790 O.2   110  LEU110     -0.2867
    116  CB        14.0690   33.1780  109.5290 C.3   110  LEU110      0.0270
    117  CG        15.5000   33.1210  110.0440 C.3   110  LEU110      0.0019
    118  CD1       15.5200   32.9460  111.5600 C.3   110  LEU110      0.0001
    119  CD2       16.2870   32.0220  109.3550 C.3   110  LEU110      0.0001
    120  N         26.8170   24.5390  116.1020 N.3   153  LEU153     -0.1245
    121  CA        26.6570   24.6110  117.5560 C.3   153  LEU153      0.1561
    122  C         27.9920   24.8720  118.2900 C.2   153  LEU153      0.2260
    123  O         28.0170   25.6350  119.2650 O.2   153  LEU153     -0.2867
    124  CB        25.9740   23.3420  118.1060 C.3   153  LEU153      0.0270
    125  CG        24.5140   23.1930  117.6970 C.3   153  LEU153      0.0019
    126  CD1       23.9990   21.7770  117.9580 C.3   153  LEU153      0.0001
    127  CD2       23.6730   24.2160  118.4520 C.3   153  LEU153      0.0001
    128  N         31.1450   31.4410  120.7140 N.3   159  LEU159     -0.1245
    129  CA        30.6850   32.8410  120.7470 C.3   159  LEU159      0.1561
    130  C         30.5510   33.3320  122.2000 C.2   159  LEU159      0.2260
    131  O         30.9710   34.4670  122.5180 O.2   159  LEU159     -0.2867
    132  CB        29.3780   33.0570  119.9640 C.3   159  LEU159      0.0270
    133  CG        29.4980   32.9480  118.4420 C.3   159  LEU159      0.0019
    134  CD1       28.1260   33.2110  117.7970 C.3   159  LEU159      0.0001
    135  CD2       30.5710   33.8860  117.8920 C.3   159  LEU159      0.0001
    136  N         32.6030   25.7720  128.0050 N.3   222  HIS222     -0.1241
    137  CA        32.1680   26.0920  126.6410 C.3   222  HIS222      0.1621
    138  C         33.3240   25.9940  125.6340 C.2   222  HIS222      0.2264
    139  O         33.0890   25.7200  124.4560 O.2   222  HIS222     -0.2867
    140  CB        31.4300   27.4450  126.5940 C.3   222  HIS222      0.0745
    141  CG        30.0130   27.3620  127.0740 C.ar  222  HIS222      0.0817
    142  ND1       29.6730   27.4990  128.3980 N.ar  222  HIS222     -0.2268
    143  CD2       28.8620   27.0880  126.4050 C.ar  222  HIS222      0.1154
    144  CE1       28.3550   27.3490  128.5140 C.ar  222  HIS222      0.1986
    145  NE2       27.8270   27.1070  127.3140 N.ar  222  HIS222     -0.2212
    146  N         15.6690   16.7140  123.8390 N.3   264  LEU264     -0.1245
    147  CA        15.1270   18.0110  124.2570 C.3   264  LEU264      0.1561
    148  C         14.3880   17.9290  125.5860 C.2   264  LEU264      0.2260
    149  O         14.4790   18.8390  126.3970 O.2   264  LEU264     -0.2867
    150  CB        14.2600   18.6300  123.1880 C.3   264  LEU264      0.0270
    151  CG        15.0020   19.7400  122.3780 C.3   264  LEU264      0.0019
    152  CD1       16.2710   19.2740  121.7410 C.3   264  LEU264      0.0001
    153  CD2       14.0800   20.3300  121.3600 C.3   264  LEU264      0.0001
    154  N         16.9570   17.9760  128.2830 N.3   267  MET267     -0.1245
    155  CA        17.5190   19.2920  128.3920 C.3   267  MET267      0.1570
    156  C         16.5260   20.2080  129.1180 C.2   267  MET267      0.2261
    157  O         16.9130   20.9620  129.9960 O.2   267  MET267     -0.2867
    158  CB        17.8760   19.8080  127.0020 C.3   267  MET267      0.0387
    159  CG        19.1420   19.1940  126.3960 C.3   267  MET267      0.0595
    160  SD        19.6080   19.8490  124.7730 S.3   267  MET267     -0.1393
    161  CE        19.4890   18.5120  123.7140 C.3   267  MET267      0.0692
    162  N         22.3630   32.0800  136.4360 N.3   282  TYR282     -0.1241
    163  CA        21.0900   32.7990  136.6360 C.3   282  TYR282      0.1605
    164  C         21.2490   33.7110  137.8580 C.2   282  TYR282      0.2264
    165  O         20.8380   33.3490  138.9800 O.2   282  TYR282     -0.2867
    166  CB        19.8890   31.8510  136.8030 C.3   282  TYR282      0.0534
    167  CG        19.7030   31.0020  135.5780 C.ar  282  TYR282     -0.0201
    168  CD1       18.8500   31.3940  134.5440 C.ar  282  TYR282     -0.0009
    169  CD2       20.3650   29.7800  135.4380 C.ar  282  TYR282     -0.0009
    170  CE1       18.6750   30.6040  133.3970 C.ar  282  TYR282      0.0417
    171  CE2       20.1740   28.9970  134.2840 C.ar  282  TYR282      0.0417
    172  CZ        19.3350   29.4140  133.2840 C.ar  282  TYR282      0.1957
    173  OH        19.1610   28.6560  132.1490 O.3   282  TYR282     -0.2866
    174  N          9.3170   25.1750  131.7050 N.3   415  HIS415     -0.1241
    175  CA        10.2150   24.2190  131.1290 C.3   415  HIS415      0.1621
    176  C          9.9370   22.8130  131.6240 C.2   415  HIS415      0.2264
    177  O         10.2180   21.8430  130.9040 O.2   415  HIS415     -0.2867
    178  CB        11.6810   24.6880  131.1780 C.3   415  HIS415      0.0745
    179  CG        11.9330   25.7530  130.1520 C.ar  415  HIS415      0.0817
    180  ND1       11.7670   27.1010  130.3950 N.ar  415  HIS415     -0.2268
    181  CD2       12.1850   25.6480  128.8250 C.ar  415  HIS415      0.1154
    182  CE1       11.9910   27.7810  129.2690 C.ar  415  HIS415      0.1986
    183  NE2       12.2610   26.9240  128.2990 N.ar  415  HIS415     -0.2212
@<TRIPOS>BOND
     1   115   114    2
     2   114   113    1
     3   112   113    1
     4   113   116    1
     5   119   117    1
     6   116   117    1
     7   117   118    1
     8     5     2    1
     9     1     2    1
    10     2     3    1
    11     3     4    2
    12   105   104    2
    13    19    18    1
    14    18    20    1
    15    18    15    1
    16   104   103    1
    17   120   121    1
    18     6     7    1
    19   103   102    1
    20   103   106    1
    21    15    14    1
    22    15    16    1
    23    14     8   am
    24    16    17    2
    25     7    10    1
    26     7     8    1
    27    10    11    1
    28    10    12    1
    29    11    13    1
    30   121   124    1
    31   121   122    1
    32     8     9    2
    33   125   126    1
    34   125   124    1
    35   125   127    1
    36   106   107    1
    37   134   133    1
    38   135   133    1
    39    21    22    1
    40   122   123    2
    41   109   107   ar
    42   109   111   ar
    43   107   108   ar
    44   133   132    1
    45   111   110   ar
    46   108   110   ar
    47    98    97    2
    48    22    25    1
    49    22    23    1
    50   132   129    1
    51    25    26    1
    52    97    96    1
    53    35    23   am
    54    35    36    1
    55    23    24    2
    56    39    36    1
    57   128   129    1
    58    37    36    1
    59    37    38    2
    60   129   130    1
    61    96    95    1
    62    96    99    1
    63   153   151    1
    64    26    27   ar
    65    26    28   ar
    66   152   151    1
    67   100    99    1
    68    99   101    1
    69    27    29   ar
    70   130   131    2
    71   151   150    1
    72    28    31   ar
    73    28    30   ar
    74    94    92   ar
    75    94    93   ar
    76    31    33   ar
    77    92    90   ar
    78   150   147    1
    79    44    45    1
    80    44    46    1
    81    44    41    1
    82    29    30   ar
    83    40    41    1
    84    93    91   ar
    85   161   160    1
    86   146   147    1
    87    30    32   ar
    88    90    89   ar
    89    90    88   ar
    90    42    41    1
    91    42    43    2
    92    33    34   ar
    93   147   148    1
    94    89    87   ar
    95   139   138    2
    96    91    88   ar
    97   160   159    1
    98    88    86   ar
    99    53    52    1
   100    32    34   ar
   101    87    86   ar
   102   148   149    2
   103   138   137    1
   104    72    70    1
   105    86    85    1
   106    70    69    1
   107    79    78    1
   108   159   158    1
   109   143   141   ar
   110   143   145   ar
   111    52    54    1
   112    52    51    1
   113    71    69    1
   114   140   137    1
   115   140   141    1
   116   137   136    1
   117    51    48    1
   118    85    82    1
   119   158   155    1
   120   141   142   ar
   121    69    66    1
   122   145   144   ar
   123    80    78    1
   124    78    77    1
   125    77    74    1
   126    66    65    1
   127    66    67    1
   128   154   155    1
   129   183   181   ar
   130   183   182   ar
   131    82    81    1
   132    82    83    1
   133    48    49    1
   134    48    47    1
   135   155   156    1
   136   142   144   ar
   137    50    49    2
   138    65    57   am
   139    76    75    2
   140    59    60    1
   141    59    56    1
   142    68    67    2
   143   181   179   ar
   144   156   157    2
   145    83    84    2
   146    58    57    2
   147    57    56    1
   148    60    62   ar
   149    60    61   ar
   150    62    64   ar
   151    74    75    1
   152    74    73    1
   153   182   180   ar
   154    61    63   ar
   155    56    55    1
   156    64    63   ar
   157   179   180   ar
   158   179   178    1
   159   177   176    2
   160   175   178    1
   161   175   176    1
   162   175   174    1
   163   173   172    1
   164   172   170   ar
   165   172   171   ar
   166   170   168   ar
   167   171   169   ar
   168   168   167   ar
   169   169   167   ar
   170   167   166    1
   171   162   163    1
   172   163   166    1
   173   163   164    1
   174   164   165    2
