@<TRIPOS>MOLECULE
tmp/5v2cU04.pdb
 166 156 0 0 0
SMALL
GASTEIGER

@<TRIPOS>ATOM
      1  N        -42.6160  -19.7840  146.9410 N.3    18  LEU18      -0.1245
      2  CA       -42.4860  -18.3780  147.2590 C.3    18  LEU18       0.1561
      3  C        -43.0600  -18.0950  148.6460 C.2    18  LEU18       0.2260
      4  O        -42.4480  -17.3890  149.4560 O.2    18  LEU18      -0.2867
      5  CB       -43.1740  -17.4920  146.2150 C.3    18  LEU18       0.0270
      6  CG       -43.0870  -15.9620  146.4930 C.3    18  LEU18       0.0019
      7  CD1      -41.6690  -15.4780  146.2850 C.3    18  LEU18       0.0001
      8  CD2      -43.9800  -15.2150  145.5600 C.3    18  LEU18       0.0001
      9  N        -41.1620  -16.7210  151.8320 N.3    22  HIS22      -0.1241
     10  CA       -41.7280  -15.6270  152.5730 C.3    22  HIS22       0.1621
     11  C        -41.9730  -15.9890  154.0580 C.2    22  HIS22       0.2264
     12  O        -41.7030  -15.1780  154.9330 O.2    22  HIS22      -0.2867
     13  CB       -42.9680  -15.0000  151.8740 C.3    22  HIS22       0.0745
     14  CG       -42.5930  -14.2120  150.6440 C.ar   22  HIS22       0.0817
     15  ND1      -43.5110  -13.7640  149.7410 N.ar   22  HIS22      -0.2268
     16  CD2      -41.3780  -13.7900  150.1740 C.ar   22  HIS22       0.1154
     17  CE1      -42.8910  -13.0880  148.7680 C.ar   22  HIS22       0.1986
     18  NE2      -41.5920  -13.0600  149.0090 N.ar   22  HIS22      -0.2212
     19  N        -50.9830  -16.6070  139.6790 N.3   132  LEU132     -0.1245
     20  CA       -51.5020  -15.8030  140.8180 C.3   132  LEU132      0.1561
     21  C        -52.2640  -14.6330  140.2370 C.2   132  LEU132      0.2260
     22  O        -51.7140  -13.9140  139.4250 O.2   132  LEU132     -0.2867
     23  CB       -50.3120  -15.2590  141.6440 C.3   132  LEU132      0.0270
     24  CG       -49.5860  -16.3160  142.4670 C.3   132  LEU132      0.0019
     25  CD1      -48.3460  -15.6940  143.0840 C.3   132  LEU132      0.0001
     26  CD2      -50.5180  -16.8850  143.5080 C.3   132  LEU132      0.0001
     27  N        -52.8420  -11.4120  140.6760 N.3   134  LEU134     -0.1231
     28  CA       -52.2710  -10.3570  141.5090 C.3   134  LEU134      0.1678
     29  C        -53.2340   -9.1410  141.7910 C.2   134  LEU134      0.2434
     30  O        -53.2960   -8.6470  142.9060 O.2   134  LEU134     -0.2733
     31  CB       -50.9160   -9.9540  140.9220 C.3   134  LEU134      0.0284
     32  CG       -49.8950  -11.0820  140.9110 C.3   134  LEU134      0.0019
     33  CD1      -48.7570  -10.5710  140.0470 C.3   134  LEU134      0.0001
     34  CD2      -49.3860  -11.4660  142.2990 C.3   134  LEU134      0.0001
     35  N        -54.0140   -8.7140  140.8090 N.am  135  PRO135     -0.2729
     36  CA       -54.9380   -7.6210  141.1220 C.3   135  PRO135      0.1401
     37  C        -55.9510   -7.9670  142.1810 C.2   135  PRO135      0.2269
     38  O        -56.2090   -7.1270  143.0520 O.2   135  PRO135     -0.2865
     39  CB       -55.6260   -7.3230  139.7790 C.3   135  PRO135      0.0296
     40  CG       -54.6360   -7.8040  138.7410 C.3   135  PRO135      0.0237
     41  CD       -53.9330   -8.9900  139.3590 C.3   135  PRO135      0.0939
     42  N        -55.5560  -10.3680  144.5930 N.3   137  MET137     -0.1230
     43  CA       -54.7980  -10.5350  145.8050 C.3   137  MET137      0.1702
     44  C        -54.5480   -9.1810  146.4430 C.2   137  MET137      0.2592
     45  O        -54.5700   -9.0710  147.6550 O.2   137  MET137     -0.2718
     46  CB       -53.4310  -11.1710  145.5270 C.3   137  MET137      0.0401
     47  CG       -53.5400  -12.6520  145.2300 C.3   137  MET137      0.0596
     48  SD       -52.1010  -13.3180  144.3830 S.3   137  MET137     -0.1393
     49  CE       -50.7610  -12.6980  145.3880 C.3   137  MET137      0.0692
     50  N        -54.2650   -8.1780  145.6150 N.am  138  PHE138     -0.1976
     51  CA       -54.0220   -6.8340  146.1530 C.3   138  PHE138      0.1639
     52  C        -55.2420   -6.3320  146.9280 C.2   138  PHE138      0.2290
     53  O        -55.1060   -5.7890  148.0210 O.2   138  PHE138     -0.2864
     54  CB       -53.6480   -5.8150  145.0620 C.3   138  PHE138      0.0560
     55  CG       -53.4560   -4.4360  145.6090 C.ar  138  PHE138     -0.0200
     56  CD1      -52.4400   -4.1810  146.5110 C.ar  138  PHE138     -0.0042
     57  CD2      -54.3540   -3.4030  145.2960 C.ar  138  PHE138     -0.0042
     58  CE1      -52.3070   -2.9300  147.0870 C.ar  138  PHE138     -0.0003
     59  CE2      -54.2180   -2.1420  145.8450 C.ar  138  PHE138     -0.0003
     60  CZ       -53.1900   -1.9010  146.7500 C.ar  138  PHE138     -0.0000
     61  N        -55.5510   -8.3920  150.1690 N.3   141  HIS141     -0.1226
     62  CA       -54.5500   -7.9520  151.1360 C.3   141  HIS141      0.1752
     63  C        -54.8170   -6.4970  151.6100 C.2   141  HIS141      0.2595
     64  O        -54.6140   -6.1710  152.7880 O.2   141  HIS141     -0.2718
     65  CB       -53.1210   -8.2230  150.6340 C.3   141  HIS141      0.0759
     66  CG       -52.8140   -9.6790  150.4100 C.ar  141  HIS141      0.0818
     67  ND1      -51.7310  -10.0990  149.6510 N.ar  141  HIS141     -0.2268
     68  CD2      -53.4260  -10.8110  150.8560 C.ar  141  HIS141      0.1154
     69  CE1      -51.7200  -11.4250  149.6190 C.ar  141  HIS141      0.1986
     70  NE2      -52.7110  -11.9000  150.3730 N.ar  141  HIS141     -0.2212
     71  N        -55.3650   -5.6540  150.7410 N.am  142  LEU142     -0.1980
     72  CA       -55.6130   -4.2250  151.1070 C.3   142  LEU142      0.1596
     73  C        -56.8010   -4.1330  152.0700 C.2   142  LEU142      0.2287
     74  O        -56.7600   -3.3930  153.0540 O.2   142  LEU142     -0.2864
     75  CB       -55.8600   -3.3560  149.8730 C.3   142  LEU142      0.0297
     76  CG       -56.0880   -1.8510  150.0750 C.3   142  LEU142      0.0022
     77  CD1      -54.9150   -1.1760  150.7810 C.3   142  LEU142      0.0001
     78  CD2      -56.3680   -1.1400  148.7410 C.3   142  LEU142      0.0001
     79  N        -57.7360   -6.5100  154.1880 N.3   144  LEU144     -0.1231
     80  CA       -57.2050   -6.9870  155.4760 C.3   144  LEU144      0.1693
     81  C        -56.3490   -5.8960  156.1290 C.2   144  LEU144      0.2591
     82  O        -56.4150   -5.6820  157.3170 O.2   144  LEU144     -0.2718
     83  CB       -56.3470   -8.2330  155.2770 C.3   144  LEU144      0.0284
     84  CG       -57.1750   -9.4140  154.7720 C.3   144  LEU144      0.0019
     85  CD1      -56.2840  -10.5270  154.2510 C.3   144  LEU144      0.0001
     86  CD2      -58.0720   -9.9810  155.8410 C.3   144  LEU144      0.0001
     87  N        -55.5130   -5.2420  155.3400 N.am  145  ALA145     -0.1980
     88  CA       -54.6570   -4.2030  155.8930 C.3   145  ALA145      0.1597
     89  C        -55.4950   -3.0400  156.4810 C.2   145  ALA145      0.2287
     90  O        -55.2080   -2.5370  157.5880 O.2   145  ALA145     -0.2864
     91  CB       -53.6250   -3.7170  154.8710 C.3   145  ALA145      0.0319
     92  N        -57.1820   -4.1740  159.7910 N.3   148  LEU148     -0.1245
     93  CA       -56.1760   -4.1320  160.8850 C.3   148  LEU148      0.1561
     94  C        -55.7970   -2.7150  161.3030 C.2   148  LEU148      0.2260
     95  O        -55.7480   -2.4050  162.5010 O.2   148  LEU148     -0.2867
     96  CB       -54.9570   -4.9280  160.4920 C.3   148  LEU148      0.0270
     97  CG       -53.8930   -5.1150  161.5520 C.3   148  LEU148      0.0019
     98  CD1      -54.4960   -5.6960  162.8370 C.3   148  LEU148      0.0001
     99  CD2      -52.8910   -6.0780  160.9610 C.3   148  LEU148      0.0001
    100  N        -48.5020   -1.7840  133.1250 N.3   228  LEU228     -0.1245
    101  CA       -47.7860   -2.1620  134.3330 C.3   228  LEU228      0.1561
    102  C        -47.4810   -3.6790  134.4390 C.2   228  LEU228      0.2260
    103  O        -46.9870   -4.1230  135.4740 O.2   228  LEU228     -0.2867
    104  CB       -48.5840   -1.6750  135.5180 C.3   228  LEU228      0.0270
    105  CG       -48.6500   -0.1550  135.6880 C.3   228  LEU228      0.0019
    106  CD1      -49.5080    0.2390  136.8820 C.3   228  LEU228      0.0001
    107  CD2      -47.2400    0.3430  135.8640 C.3   228  LEU228      0.0001
    108  N        -49.2450   -6.5530  134.6560 N.3   230  MET230     -0.1245
    109  CA       -49.8640   -7.0260  135.8430 C.3   230  MET230      0.1570
    110  C        -49.9120   -8.5440  135.9770 C.2   230  MET230      0.2261
    111  O        -50.3040   -9.0570  137.0290 O.2   230  MET230     -0.2867
    112  CB       -51.2800   -6.4720  135.9490 C.3   230  MET230      0.0387
    113  CG       -51.2640   -5.0050  136.3190 C.3   230  MET230      0.0595
    114  SD       -52.9010   -4.4220  136.7560 S.3   230  MET230     -0.1393
    115  CE       -52.7060   -2.6650  136.7390 C.3   230  MET230      0.0692
    116  N        -45.3370  -11.0410  138.3640 N.3   233  ILE233     -0.1245
    117  CA       -45.1780  -10.7380  139.7700 C.3   233  ILE233      0.1561
    118  C        -44.0370   -9.7400  140.0600 C.2   233  ILE233      0.2260
    119  O        -44.0390   -9.0700  141.0960 O.2   233  ILE233     -0.2867
    120  CB       -44.9750  -12.0620  140.5440 C.3   233  ILE233      0.0252
    121  CG1      -45.1510  -11.8440  142.0510 C.3   233  ILE233      0.0019
    122  CG2      -43.6170  -12.7280  140.1680 C.3   233  ILE233      0.0019
    123  CD1      -45.2500  -13.1420  142.8110 C.3   233  ILE233      0.0001
    124  N        -43.6130   -7.0300  138.7790 N.3   235  THR235     -0.1203
    125  CA       -44.1680   -5.6710  138.8180 C.3   235  THR235      0.1994
    126  C        -44.5540   -5.2900  140.2080 C.2   235  THR235      0.2617
    127  O        -44.3480   -4.1480  140.6310 O.2   235  THR235     -0.2717
    128  CB       -45.3250   -5.4120  137.8560 C.3   235  THR235      0.1784
    129  OG1      -45.3830   -3.9860  137.5670 O.3   235  THR235     -0.2211
    130  CG2      -46.7160   -5.9090  138.4110 C.3   235  THR235      0.0376
    131  N        -45.0730   -6.2470  140.9490 N.am  236  VAL236     -0.1979
    132  CA       -45.4490   -5.9540  142.3520 C.3   236  VAL236      0.1595
    133  C        -44.1730   -5.7220  143.1100 C.2   236  VAL236      0.2287
    134  O        -44.0830   -4.8590  143.9560 O.2   236  VAL236     -0.2864
    135  CB       -46.2270   -7.1080  142.9180 C.3   236  VAL236      0.0276
    136  CG1      -46.6290   -6.9130  144.3680 C.3   236  VAL236      0.0022
    137  CG2      -47.5100   -7.3280  142.0610 C.3   236  VAL236      0.0022
    138  N        -43.0600   -2.0250  142.4960 N.3   239  SER239     -0.1202
    139  CA       -43.8420   -0.9970  143.1230 C.3   239  SER239      0.2020
    140  C        -43.8550   -1.1320  144.6460 C.2   239  SER239      0.2619
    141  O        -43.8900   -0.1200  145.3420 O.2   239  SER239     -0.2717
    142  CB       -45.2550   -0.9660  142.5520 C.3   239  SER239      0.2103
    143  OG       -45.7660   -2.2430  142.3260 O.3   239  SER239     -0.2182
    144  N        -43.7700   -2.3730  145.1720 N.am  240  SER240     -0.1951
    145  CA       -43.7370   -2.5710  146.6080 C.3   240  SER240      0.1924
    146  C        -42.4580   -2.0010  147.1760 C.2   240  SER240      0.2314
    147  O        -42.4600   -1.3960  148.2320 O.2   240  SER240     -0.2863
    148  CB       -43.8920   -4.0520  146.9660 C.3   240  SER240      0.2116
    149  OG       -45.2300   -4.4910  146.6730 O.3   240  SER240     -0.2180
    150  N        -40.7460    0.5130  145.9240 N.3   242  ALA242     -0.1231
    151  CA       -40.9590    1.9890  145.9490 C.3   242  ALA242      0.1694
    152  C        -41.7550    2.4340  147.1570 C.2   242  ALA242      0.2592
    153  O        -41.3720    3.3820  147.8170 O.2   242  ALA242     -0.2718
    154  CB       -41.6330    2.4600  144.6720 C.3   242  ALA242      0.0304
    155  N        -42.8580    1.7510  147.4590 N.am  243  ALA243     -0.1966
    156  CA       -43.6440    2.0990  148.6430 C.3   243  ALA243      0.1728
    157  C        -42.8230    2.0100  149.9060 C.2   243  ALA243      0.2616
    158  O        -42.9500    2.8310  150.7920 O.2   243  ALA243     -0.2715
    159  CB       -44.8840    1.2170  148.7820 C.3   243  ALA243      0.0334
    160  N        -42.0410    0.9550  150.0110 N.am  244  VAL244     -0.1977
    161  CA       -41.2260    0.7070  151.1750 C.3   244  VAL244      0.1596
    162  C        -40.1150    1.7380  151.3130 C.2   244  VAL244      0.2287
    163  O        -39.8490    2.1720  152.4410 O.2   244  VAL244     -0.2864
    164  CB       -40.7060   -0.7640  151.1070 C.3   244  VAL244      0.0276
    165  CG1      -39.5470   -0.9920  152.0210 C.3   244  VAL244      0.0022
    166  CG2      -41.8800   -1.7350  151.3870 C.3   244  VAL244      0.0022
@<TRIPOS>BOND
     1   100   101    1
     2   101   102    1
     3   101   104    1
     4   102   103    2
     5   108   109    1
     6   104   105    1
     7   105   107    1
     8   105   106    1
     9   109   112    1
    10   109   110    1
    11   112   113    1
    12   110   111    2
    13   113   114    1
    14   115   114    1
    15   129   128    1
    16   128   130    1
    17   128   125    1
    18   116   117    1
    19    40    41    1
    20    40    39    1
    21   124   125    1
    22   125   126    1
    23    41    35    1
    24    22    21    2
    25    19    20    1
    26   117   118    1
    27   117   120    1
    28    39    36    1
    29    33    32    1
    30   118   119    2
    31   122   120    1
    32   126   127    2
    33   126   131   am
    34    21    20    1
    35   120   121    1
    36    27    28    1
    37    35    36    1
    38    35    29   am
    39    20    23    1
    40    32    31    1
    41    32    34    1
    42    31    28    1
    43   131   132    1
    44    36    37    1
    45    28    29    1
    46    23    24    1
    47    29    30    2
    48   121   123    1
    49   137   135    1
    50    37    38    2
    51   143   142    1
    52   132   135    1
    53   132   133    1
    54    24    25    1
    55    24    26    1
    56   138   139    1
    57   142   139    1
    58   135   136    1
    59   133   134    2
    60   139   140    1
    61    48    47    1
    62    48    49    1
    63    42    43    1
    64   140   144   am
    65   140   141    2
    66   154   151    1
    67    54    55    1
    68    54    51    1
    69   144   145    1
    70    47    46    1
    71    57    55   ar
    72    57    59   ar
    73    46    43    1
    74     8     6    1
    75    55    56   ar
    76    50    51    1
    77    50    44   am
    78    43    44    1
    79    59    60   ar
    80   150   151    1
    81   151   152    1
    82    51    52    1
    83     5     6    1
    84     5     2    1
    85     7     6    1
    86    44    45    2
    87    56    58   ar
    88   145   148    1
    89   145   146    1
    90   149   148    1
    91    60    58   ar
    92    52    53    2
    93     1     2    1
    94   152   155   am
    95   152   153    2
    96   146   147    2
    97     2     3    1
    98   155   156    1
    99   156   159    1
   100   156   157    1
   101     3     4    2
   102    78    76    1
   103    17    18   ar
   104    17    15   ar
   105    18    16   ar
   106    69    67   ar
   107    69    70   ar
   108    67    66   ar
   109    15    14   ar
   110    75    76    1
   111    75    72    1
   112   157   160   am
   113   157   158    2
   114   160   161    1
   115    76    77    1
   116    61    62    1
   117    16    14   ar
   118    70    68   ar
   119    66    65    1
   120    66    68   ar
   121    65    62    1
   122    14    13    1
   123    71    72    1
   124    71    63   am
   125   164   161    1
   126   164   166    1
   127   164   165    1
   128    72    73    1
   129    62    63    1
   130   161   162    1
   131   162   163    2
   132    63    64    2
   133     9    10    1
   134    13    10    1
   135    73    74    2
   136    10    11    1
   137    11    12    2
   138    79    80    1
   139    85    84    1
   140    84    83    1
   141    84    86    1
   142    91    88    1
   143    83    80    1
   144    87    88    1
   145    87    81   am
   146    80    81    1
   147    88    89    1
   148    81    82    2
   149    89    90    2
   150    92    93    1
   151    96    93    1
   152    96    97    1
   153    93    94    1
   154    99    97    1
   155    94    95    2
   156    97    98    1
