@<TRIPOS>MOLECULE
tmp/5v2cU06.pdb
 169 161 0 0 0
SMALL
GASTEIGER

@<TRIPOS>ATOM
      1  N        -32.4580  -17.1260  143.7090 N.3     8  HIS8       -0.1226
      2  CA       -33.8260  -17.0930  144.1950 C.3     8  HIS8        0.1752
      3  C        -34.8620  -16.9440  143.1080 C.2     8  HIS8        0.2596
      4  O        -36.0990  -17.0570  143.3560 O.2     8  HIS8       -0.2718
      5  CB       -33.9270  -16.0570  145.2930 C.3     8  HIS8        0.0759
      6  CG       -33.0900  -16.3950  146.5250 C.ar    8  HIS8        0.0818
      7  ND1      -32.6860  -15.4390  147.4270 N.ar    8  HIS8       -0.2268
      8  CD2      -32.5900  -17.5830  147.0040 C.ar    8  HIS8        0.1154
      9  CE1      -31.9820  -16.0110  148.4080 C.ar    8  HIS8        0.1986
     10  NE2      -31.9470  -17.3240  148.2100 N.ar    8  HIS8       -0.2212
     11  N        -34.4090  -16.7320  141.8800 N.am    9  THR9       -0.1953
     12  CA       -35.3370  -16.6330  140.7470 C.3     9  THR9        0.1897
     13  C        -36.1190  -17.9500  140.4750 C.2     9  THR9        0.2313
     14  O        -37.1410  -17.9330  139.7760 O.2     9  THR9       -0.2863
     15  CB       -34.6770  -16.1790  139.4400 C.3     9  THR9        0.1794
     16  OG1      -33.7180  -17.1320  139.0080 O.3     9  THR9       -0.2208
     17  CG2      -33.9990  -14.8330  139.5640 C.3     9  THR9        0.0378
     18  N        -38.0860  -19.2340  142.3290 N.3    11  LEU11      -0.1231
     19  CA       -39.3870  -19.0470  142.9550 C.3    11  LEU11       0.1693
     20  C        -40.4060  -18.2970  142.1150 C.2    11  LEU11       0.2591
     21  O        -41.5810  -18.2920  142.4350 O.2    11  LEU11      -0.2718
     22  CB       -39.1960  -18.2680  144.2690 C.3    11  LEU11       0.0284
     23  CG       -38.2730  -18.8820  145.2990 C.3    11  LEU11       0.0019
     24  CD1      -38.0810  -17.9120  146.4390 C.3    11  LEU11       0.0001
     25  CD2      -38.8620  -20.1960  145.7810 C.3    11  LEU11       0.0001
     26  N        -39.9890  -17.7050  141.0190 N.am   12  ILE12      -0.1980
     27  CA       -40.8590  -16.7630  140.2680 C.3    12  ILE12       0.1595
     28  C        -42.1570  -17.3980  139.7980 C.2    12  ILE12       0.2287
     29  O        -43.2110  -16.7600  139.8520 O.2    12  ILE12      -0.2864
     30  CB       -40.1180  -16.1550  139.0640 C.3    12  ILE12       0.0276
     31  CG1      -39.0710  -15.1930  139.6200 C.3    12  ILE12       0.0022
     32  CG2      -41.0680  -15.3280  138.2100 C.3    12  ILE12       0.0022
     33  CD1      -37.9910  -14.8210  138.6840 C.3    12  ILE12       0.0001
     34  N        -42.6160  -19.7840  146.9410 N.3    18  LEU18      -0.1245
     35  CA       -42.4860  -18.3780  147.2590 C.3    18  LEU18       0.1561
     36  C        -43.0600  -18.0950  148.6460 C.2    18  LEU18       0.2260
     37  O        -42.4480  -17.3890  149.4560 O.2    18  LEU18      -0.2867
     38  CB       -43.1740  -17.4920  146.2150 C.3    18  LEU18       0.0270
     39  CG       -43.0870  -15.9620  146.4930 C.3    18  LEU18       0.0019
     40  CD1      -41.6690  -15.4780  146.2850 C.3    18  LEU18       0.0001
     41  CD2      -43.9800  -15.2150  145.5600 C.3    18  LEU18       0.0001
     42  N        -40.6910  -19.4290  151.1680 N.3    21  ALA21      -0.1231
     43  CA       -39.5590  -18.4980  151.3740 C.3    21  ALA21       0.1694
     44  C        -39.9890  -17.2520  152.1620 C.2    21  ALA21       0.2592
     45  O        -39.2890  -16.7880  153.0620 O.2    21  ALA21      -0.2718
     46  CB       -39.0010  -18.1190  150.0420 C.3    21  ALA21       0.0304
     47  N        -41.1620  -16.7210  151.8320 N.am   22  HIS22      -0.1976
     48  CA       -41.7280  -15.6270  152.5730 C.3    22  HIS22       0.1656
     49  C        -41.9730  -15.9890  154.0580 C.2    22  HIS22       0.2291
     50  O        -41.7030  -15.1780  154.9330 O.2    22  HIS22      -0.2864
     51  CB       -42.9680  -15.0000  151.8740 C.3    22  HIS22       0.0771
     52  CG       -42.5930  -14.2120  150.6440 C.ar   22  HIS22       0.0820
     53  ND1      -43.5110  -13.7640  149.7410 N.ar   22  HIS22      -0.2267
     54  CD2      -41.3780  -13.7900  150.1740 C.ar   22  HIS22       0.1154
     55  CE1      -42.8910  -13.0880  148.7680 C.ar   22  HIS22       0.1986
     56  NE2      -41.5920  -13.0600  149.0090 N.ar   22  HIS22      -0.2212
     57  N        -38.5870  -15.9800  155.7840 N.3    25  HIS25      -0.1226
     58  CA       -38.1580  -14.6060  156.0430 C.3    25  HIS25       0.1752
     59  C        -38.9150  -14.0770  157.2630 C.2    25  HIS25       0.2596
     60  O        -38.2990  -13.4680  158.1430 O.2    25  HIS25      -0.2718
     61  CB       -38.3180  -13.6750  154.7980 C.3    25  HIS25       0.0759
     62  CG       -37.7810  -12.2730  154.9990 C.ar   25  HIS25       0.0818
     63  ND1      -38.5930  -11.2210  155.4000 N.ar   25  HIS25      -0.2268
     64  CD2      -36.5140  -11.7640  154.8930 C.ar   25  HIS25       0.1154
     65  CE1      -37.8480  -10.1120  155.5040 C.ar   25  HIS25       0.1986
     66  NE2      -36.5650  -10.4070  155.2320 N.ar   25  HIS25      -0.2212
     67  N        -40.2400  -14.2970  157.3090 N.am   26  THR26      -0.1953
     68  CA       -41.0230  -13.8290  158.4390 C.3    26  THR26       0.1897
     69  C        -40.5840  -14.4690  159.7520 C.2    26  THR26       0.2313
     70  O        -40.5200  -13.7880  160.7980 O.2    26  THR26      -0.2863
     71  CB       -42.5350  -14.0720  158.1760 C.3    26  THR26       0.1794
     72  OG1      -42.8360  -13.5790  156.8350 O.3    26  THR26      -0.2208
     73  CG2      -43.3980  -13.3580  159.2210 C.3    26  THR26       0.0378
     74  N        -37.3610  -12.8130  160.8440 N.3    29  VAL29      -0.1245
     75  CA       -37.5860  -11.4600  161.3610 C.3    29  VAL29       0.1561
     76  C        -38.2050  -11.4830  162.7520 C.2    29  VAL29       0.2260
     77  O        -37.7700  -10.7620  163.6450 O.2    29  VAL29      -0.2867
     78  CB       -38.3970  -10.6000  160.3830 C.3    29  VAL29       0.0252
     79  CG1      -38.6570   -9.2110  160.9620 C.3    29  VAL29       0.0019
     80  CG2      -37.6430  -10.4380  159.0740 C.3    29  VAL29       0.0019
     81  N        -45.3370  -11.0410  138.3640 N.3   233  ILE233     -0.1231
     82  CA       -45.1780  -10.7380  139.7700 C.3   233  ILE233      0.1692
     83  C        -44.0370   -9.7400  140.0600 C.2   233  ILE233      0.2591
     84  O        -44.0390   -9.0700  141.0960 O.2   233  ILE233     -0.2718
     85  CB       -44.9750  -12.0620  140.5440 C.3   233  ILE233      0.0266
     86  CG1      -45.1510  -11.8440  142.0510 C.3   233  ILE233      0.0019
     87  CG2      -43.6170  -12.7280  140.1680 C.3   233  ILE233      0.0020
     88  CD1      -45.2500  -13.1420  142.8110 C.3   233  ILE233      0.0001
     89  N        -43.0500   -9.6170  139.1580 N.am  234  GLU234     -0.1979
     90  CA       -41.9450   -8.7310  139.4440 C.3   234  GLU234      0.1602
     91  C        -42.4400   -7.2740  139.3720 C.2   234  GLU234      0.2287
     92  O        -41.7700   -6.3870  139.8940 O.2   234  GLU234     -0.2864
     93  CB       -40.8180   -8.9350  138.4790 C.3   234  GLU234      0.0415
     94  CG       -39.5010   -8.3040  138.9410 C.3   234  GLU234      0.1163
     95  CD       -38.2880   -8.8960  138.2690 C.2   234  GLU234      0.3649
     96  OE1      -37.1610   -8.4710  138.6530 O.co2 234  GLU234     -0.2457
     97  OE2      -38.4570   -9.6900  137.3170 O.co2 234  GLU234     -0.2457
     98  N        -45.0730   -6.2470  140.9490 N.3   236  VAL236     -0.1231
     99  CA       -45.4490   -5.9540  142.3520 C.3   236  VAL236      0.1692
    100  C        -44.1730   -5.7220  143.1100 C.2   236  VAL236      0.2591
    101  O        -44.0830   -4.8590  143.9560 O.2   236  VAL236     -0.2718
    102  CB       -46.2270   -7.1080  142.9180 C.3   236  VAL236      0.0266
    103  CG1      -46.6290   -6.9130  144.3680 C.3   236  VAL236      0.0020
    104  CG2      -47.5100   -7.3280  142.0610 C.3   236  VAL236      0.0020
    105  N        -43.1570   -6.5230  142.8420 N.am  237  LEU237     -0.1980
    106  CA       -41.9440   -6.3050  143.5770 C.3   237  LEU237      0.1596
    107  C        -41.4080   -4.8740  143.3840 C.2   237  LEU237      0.2287
    108  O        -40.9680   -4.2450  144.3200 O.2   237  LEU237     -0.2864
    109  CB       -40.8930   -7.3450  143.2230 C.3   237  LEU237      0.0297
    110  CG       -39.5710   -7.2540  143.9880 C.3   237  LEU237      0.0022
    111  CD1      -39.6950   -7.2480  145.5100 C.3   237  LEU237      0.0001
    112  CD2      -38.6250   -8.3990  143.5160 C.3   237  LEU237      0.0001
    113  N        -43.7700   -2.3730  145.1720 N.3   240  SER240     -0.1202
    114  CA       -43.7370   -2.5710  146.6080 C.3   240  SER240      0.2020
    115  C        -42.4580   -2.0010  147.1760 C.2   240  SER240      0.2618
    116  O        -42.4600   -1.3960  148.2320 O.2   240  SER240     -0.2717
    117  CB       -43.8920   -4.0520  146.9660 C.3   240  SER240      0.2103
    118  OG       -45.2300   -4.4910  146.6730 O.3   240  SER240     -0.2182
    119  N        -41.3610   -2.2230  146.4610 N.am  241  ILE241     -0.1979
    120  CA       -40.0830   -1.6840  146.8810 C.3   241  ILE241      0.1595
    121  C        -40.1250   -0.1170  146.9270 C.2   241  ILE241      0.2287
    122  O        -39.6090    0.4870  147.8710 O.2   241  ILE241     -0.2864
    123  CB       -38.9150   -2.1660  146.0220 C.3   241  ILE241      0.0276
    124  CG1      -38.5460   -3.6570  146.3260 C.3   241  ILE241      0.0022
    125  CG2      -37.6440   -1.3340  146.2980 C.3   241  ILE241      0.0022
    126  CD1      -37.5290   -4.2200  145.3150 C.3   241  ILE241      0.0001
    127  N        -42.0410    0.9550  150.0110 N.3   244  VAL244     -0.1245
    128  CA       -41.2260    0.7070  151.1750 C.3   244  VAL244      0.1561
    129  C        -40.1150    1.7380  151.3130 C.2   244  VAL244      0.2260
    130  O        -39.8490    2.1720  152.4410 O.2   244  VAL244     -0.2867
    131  CB       -40.7060   -0.7640  151.1070 C.3   244  VAL244      0.0252
    132  CG1      -39.5470   -0.9920  152.0210 C.3   244  VAL244      0.0019
    133  CG2      -41.8800   -1.7350  151.3870 C.3   244  VAL244      0.0019
    134  N        -41.8020    4.8650  152.7240 N.3   247  ALA247     -0.1245
    135  CA       -42.0100    4.6630  154.1130 C.3   247  ALA247      0.1562
    136  C        -40.7280    4.7660  154.9410 C.2   247  ALA247      0.2260
    137  O        -40.7380    5.3610  156.0620 O.2   247  ALA247     -0.2867
    138  CB       -42.6950    3.3070  154.3320 C.3   247  ALA247      0.0290
    139  N        -32.1560    3.6020  158.5180 N.3   454  HIS454     -0.1241
    140  CA       -33.3450    3.6880  157.6800 C.3   454  HIS454      0.1621
    141  C        -33.1500    4.6420  156.4870 C.2   454  HIS454      0.2264
    142  O        -33.6420    4.3550  155.4230 O.2   454  HIS454     -0.2867
    143  CB       -34.6130    3.9460  158.5220 C.3   454  HIS454      0.0745
    144  CG       -35.0200    2.7520  159.3170 C.ar  454  HIS454      0.0817
    145  ND1      -34.4210    2.3860  160.5040 N.ar  454  HIS454     -0.2268
    146  CD2      -35.8930    1.7560  158.9970 C.ar  454  HIS454      0.1154
    147  CE1      -34.9370    1.2130  160.8820 C.ar  454  HIS454      0.1986
    148  NE2      -35.8110    0.7820  159.9610 N.ar  454  HIS454     -0.2212
    149  N        -32.8200    0.8890  148.6680 N.3   461  PHE461     -0.1241
    150  CA       -34.1040    0.4090  148.1350 C.3   461  PHE461      0.1605
    151  C        -34.5420    1.1320  146.8930 C.2   461  PHE461      0.2264
    152  O        -35.2680    0.5490  146.0530 O.2   461  PHE461     -0.2867
    153  CB       -35.1640    0.3040  149.2120 C.3   461  PHE461      0.0534
    154  CG       -35.1910   -1.0500  149.8680 C.ar  461  PHE461     -0.0203
    155  CD1      -34.1050   -1.5120  150.5540 C.ar  461  PHE461     -0.0042
    156  CD2      -36.3140   -1.8420  149.8250 C.ar  461  PHE461     -0.0042
    157  CE1      -34.1030   -2.7600  151.1560 C.ar  461  PHE461     -0.0003
    158  CE2      -36.2950   -3.1210  150.4380 C.ar  461  PHE461     -0.0003
    159  CZ       -35.1910   -3.5910  151.0700 C.ar  461  PHE461     -0.0000
    160  N        -35.6980   -3.6180  139.5900 N.3   468  HIS468     -0.1241
    161  CA       -36.8560   -4.5400  139.3760 C.3   468  HIS468      0.1621
    162  C        -37.9190   -3.9210  138.4530 C.2   468  HIS468      0.2264
    163  O        -38.5350   -4.6130  137.6880 O.2   468  HIS468     -0.2867
    164  CB       -37.3930   -5.0610  140.7270 C.3   468  HIS468      0.0745
    165  CG       -36.4460   -5.9790  141.4360 C.ar  468  HIS468      0.0817
    166  ND1      -36.1850   -7.2590  140.9840 N.ar  468  HIS468     -0.2268
    167  CD2      -35.7320   -5.8280  142.5930 C.ar  468  HIS468      0.1154
    168  CE1      -35.3270   -7.8500  141.8220 C.ar  468  HIS468      0.1986
    169  NE2      -35.0160   -7.0070  142.8060 N.ar  468  HIS468     -0.2212
@<TRIPOS>BOND
     1    97    95   ar
     2   163   162    2
     3    32    30    1
     4    95    96   ar
     5    95    94    1
     6    81    82    1
     7   162   161    1
     8    93    94    1
     9    93    90    1
    10    33    31    1
    11    16    15    1
    12    30    31    1
    13    30    27    1
    14    89    90    1
    15    89    83   am
    16    91    90    1
    17    91    92    2
    18   161   160    1
    19   161   164    1
    20    15    17    1
    21    15    12    1
    22    82    83    1
    23    82    85    1
    24    14    13    2
    25    28    29    2
    26    28    27    1
    27    83    84    2
    28    87    85    1
    29    27    26    1
    30    13    12    1
    31    85    86    1
    32   164   165    1
    33    12    11    1
    34    98    99    1
    35   166   165   ar
    36   166   168   ar
    37    26    20   am
    38   165   167   ar
    39   168   169   ar
    40    11     3   am
    41    86    88    1
    42   104   102    1
    43    20    21    2
    44    20    19    1
    45    18    19    1
    46    99   102    1
    47    99   100    1
    48   167   169   ar
    49   105   100   am
    50   105   106    1
    51   102   103    1
    52    19    22    1
    53     3     4    2
    54     3     2    1
    55   100   101    2
    56   109   106    1
    57   109   110    1
    58   107   106    1
    59   107   108    2
    60   112   110    1
    61     1     2    1
    62   110   111    1
    63     2     5    1
    64    22    23    1
    65   113   114    1
    66     5     6    1
    67    23    25    1
    68    23    24    1
    69   126   124    1
    70    41    39    1
    71   123   125    1
    72   123   124    1
    73   123   120    1
    74   152   151    2
    75    38    39    1
    76    38    35    1
    77    40    39    1
    78   119   120    1
    79   119   115   am
    80     6     8   ar
    81     6     7   ar
    82   114   117    1
    83   114   115    1
    84   118   117    1
    85   120   121    1
    86   151   150    1
    87   121   122    2
    88    34    35    1
    89     8    10   ar
    90   115   116    2
    91    35    36    1
    92     7     9   ar
    93   150   149    1
    94   150   153    1
    95    10     9   ar
    96    36    37    2
    97    55    56   ar
    98    55    53   ar
    99    56    54   ar
   100   153   154    1
   101    53    52   ar
   102   156   154   ar
   103   156   158   ar
   104   154   155   ar
   105   127   128    1
   106    46    43    1
   107    54    52   ar
   108   158   159   ar
   109   155   157   ar
   110    52    51    1
   111   159   157   ar
   112   131   128    1
   113   131   133    1
   114   131   132    1
   115    42    43    1
   116   128   129    1
   117   129   130    2
   118    43    44    1
   119    47    44   am
   120    47    48    1
   121    51    48    1
   122    44    45    2
   123    48    49    1
   124   134   135    1
   125    49    50    2
   126   135   138    1
   127   135   136    1
   128    61    62    1
   129    61    58    1
   130    64    62   ar
   131    64    66   ar
   132   136   137    2
   133    62    63   ar
   134    66    65   ar
   135    63    65   ar
   136   142   141    2
   137    57    58    1
   138    58    59    1
   139   141   140    1
   140    72    71    1
   141    59    67   am
   142    59    60    2
   143    67    68    1
   144   140   139    1
   145   140   143    1
   146    71    68    1
   147    71    73    1
   148    68    69    1
   149   143   144    1
   150   146   144   ar
   151   146   148   ar
   152    80    78    1
   153   144   145   ar
   154    69    70    2
   155   148   147   ar
   156    78    79    1
   157    78    75    1
   158   145   147   ar
   159    74    75    1
   160    75    76    1
   161    76    77    2
