@<TRIPOS>MOLECULE
tmp/5v2cV32.pdb
 180 179 0 0 0
SMALL
GASTEIGER

@<TRIPOS>ATOM
      1  N         -2.6860   10.6930  105.6500 N.3    18  PHE18      -0.1241
      2  CA        -2.6820   11.3420  106.9720 C.3    18  PHE18       0.1605
      3  C         -3.8220   12.3170  106.9900 C.2    18  PHE18       0.2264
      4  O         -3.9980   13.0410  106.0330 O.2    18  PHE18      -0.2867
      5  CB        -1.3750   12.0790  107.2020 C.3    18  PHE18       0.0534
      6  CG        -0.2320   11.1580  107.5330 C.ar   18  PHE18      -0.0203
      7  CD1       -0.1670   10.5380  108.7740 C.ar   18  PHE18      -0.0042
      8  CD2        0.7810   10.9270  106.5910 C.ar   18  PHE18      -0.0042
      9  CE1        0.9040    9.7280  109.0680 C.ar   18  PHE18      -0.0003
     10  CE2        1.8270   10.0720  106.8570 C.ar   18  PHE18      -0.0003
     11  CZ         1.8950    9.4750  108.1050 C.ar   18  PHE18      -0.0000
     12  N         -5.9300   15.6930  108.3900 N.3    20  TRP20      -0.1227
     13  CA        -5.5210   17.0940  108.5740 C.3    20  TRP20       0.1737
     14  C         -4.8340   17.3290  109.9000 C.2    20  TRP20       0.2595
     15  O         -3.8840   18.1150  109.9730 O.2    20  TRP20      -0.2718
     16  CB        -6.7460   18.0320  108.4590 C.3    20  TRP20       0.0564
     17  CG        -7.7300   17.9130  109.5690 C.ar   20  TRP20       0.0003
     18  CD1       -8.8280   17.1000  109.6250 C.ar   20  TRP20       0.0946
     19  CD2       -7.6750   18.5980  110.8220 C.ar   20  TRP20       0.0152
     20  NE1       -9.4740   17.2520  110.8360 N.ar   20  TRP20      -0.2442
     21  CE2       -8.7740   18.1590  111.5900 C.ar   20  TRP20       0.0810
     22  CE3       -6.8070   19.5290  111.3700 C.ar   20  TRP20       0.0012
     23  CZ2       -9.0270   18.6480  112.8680 C.ar   20  TRP20       0.0191
     24  CZ3       -7.0660   20.0090  112.6380 C.ar   20  TRP20       0.0001
     25  CH2       -8.1770   19.5740  113.3610 C.ar   20  TRP20       0.0015
     26  N         -5.3150   16.6530  110.9460 N.am   21  TRP21      -0.1962
     27  CA        -4.7980   16.8510  112.3040 C.3    21  TRP21       0.1771
     28  C         -3.4170   16.2170  112.4800 C.2    21  TRP21       0.2619
     29  O         -2.7330   16.4910  113.4610 O.2    21  TRP21      -0.2715
     30  CB        -5.7760   16.3440  113.3550 C.3    21  TRP21       0.0590
     31  CG        -6.3070   14.9560  113.0840 C.ar   21  TRP21       0.0006
     32  CD1       -7.5140   14.6400  112.5900 C.ar   21  TRP21       0.0946
     33  CD2       -5.6380   13.7160  113.3290 C.ar   21  TRP21       0.0152
     34  NE1       -7.6720   13.2770  112.4960 N.ar   21  TRP21      -0.2442
     35  CE2       -6.5220   12.6830  112.9440 C.ar   21  TRP21       0.0810
     36  CE3       -4.3830   13.3740  113.8130 C.ar   21  TRP21       0.0012
     37  CZ2       -6.1870   11.3390  113.0270 C.ar   21  TRP21       0.0191
     38  CZ3       -4.0610   12.0060  113.9220 C.ar   21  TRP21       0.0001
     39  CH2       -4.9510   11.0240  113.4940 C.ar   21  TRP21       0.0015
     40  N         -3.0000   15.3860  111.5090 N.am   22  ALA22      -0.1963
     41  CA        -1.6180   14.9440  111.3860 C.3    22  ALA22       0.1728
     42  C         -0.9850   15.4550  110.0840 C.2    22  ALA22       0.2617
     43  O         -0.0620   14.8540  109.4950 O.2    22  ALA22      -0.2715
     44  CB        -1.5440   13.4410  111.5070 C.3    22  ALA22       0.0334
     45  N         -1.4420   16.6190  109.6630 N.am   23  GLY23      -0.1940
     46  CA        -1.0640   17.1660  108.4070 C.3    23  GLY23       0.2014
     47  C          0.4290   17.3030  108.1710 C.2    23  GLY23       0.2639
     48  O          0.8840   17.0690  107.0660 O.2    23  GLY23      -0.2714
     49  N          1.1940   17.6830  109.1980 N.am   24  ASN24      -0.1958
     50  CA         2.6360   17.8400  109.0330 C.3    24  ASN24       0.1819
     51  C          3.4110   16.5550  108.7530 C.2    24  ASN24       0.2621
     52  O          4.5580   16.6010  108.2610 O.2    24  ASN24      -0.2715
     53  CB         3.2060   18.6940  110.1830 C.3    24  ASN24       0.1195
     54  CG         2.6260   20.1420  110.1630 C.2    24  ASN24       0.2630
     55  OD1        2.2940   20.6680  109.0920 O.2    24  ASN24      -0.2716
     56  ND2        2.4820   20.7590  111.3310 N.am   24  ASN24      -0.0877
     57  N          2.7660   15.4090  108.9930 N.am   25  ALA25      -0.1977
     58  CA         3.3390   14.1100  108.6240 C.3    25  ALA25       0.1597
     59  C          3.3810   13.8910  107.0840 C.2    25  ALA25       0.2287
     60  O          4.1450   13.0580  106.5780 O.2    25  ALA25      -0.2864
     61  CB         2.5600   12.9820  109.2950 C.3    25  ALA25       0.0319
     62  N          6.9560   14.3880  105.4740 N.3    28  ILE28      -0.1245
     63  CA         8.1150   13.5440  105.8270 C.3    28  ILE28       0.1561
     64  C          9.0610   13.4070  104.6660 C.2    28  ILE28       0.2260
     65  O         10.2850   13.5720  104.8430 O.2    28  ILE28      -0.2867
     66  CB         7.6840   12.1490  106.3630 C.3    28  ILE28       0.0252
     67  CG1        7.0170   12.3290  107.7410 C.3    28  ILE28       0.0019
     68  CG2        8.8650   11.1710  106.4610 C.3    28  ILE28       0.0019
     69  CD1        6.1460   11.2070  108.2390 C.3    28  ILE28       0.0001
     70  N         10.6290   24.2410  108.5030 N.3    38  HIS38      -0.1241
     71  CA        11.6630   24.3760  109.4780 C.3    38  HIS38       0.1621
     72  C         12.2170   25.7900  109.5400 C.2    38  HIS38       0.2264
     73  O         12.4570   26.3260  110.6320 O.2    38  HIS38      -0.2867
     74  CB        12.7480   23.3190  109.2820 C.3    38  HIS38       0.0745
     75  CG        12.3980   21.9560  109.8170 C.ar   38  HIS38       0.0817
     76  ND1       12.3230   20.8290  109.0330 N.ar   38  HIS38      -0.2268
     77  CD2       12.1920   21.5210  111.0760 C.ar   38  HIS38       0.1154
     78  CE1       12.0010   19.7690  109.7840 C.ar   38  HIS38       0.1986
     79  NE2       11.9170   20.1600  111.0320 N.ar   38  HIS38      -0.2212
     80  N         11.0070    9.7990  111.3030 N.3   254  GLU254     -0.1245
     81  CA        10.2590    9.8060  112.5530 C.3   254  GLU254      0.1567
     82  C         11.0980    9.2870  113.7210 C.2   254  GLU254      0.2260
     83  O         11.0100    9.8060  114.7990 O.2   254  GLU254     -0.2867
     84  CB         8.9490    9.0600  112.4480 C.3   254  GLU254      0.0388
     85  CG         8.0840    9.1830  113.7300 C.3   254  GLU254      0.1160
     86  CD         6.6770    8.6270  113.5480 C.2   254  GLU254      0.3649
     87  OE1        6.4760    7.6650  112.7400 O.co2 254  GLU254     -0.2457
     88  OE2        5.7900    9.1470  114.2620 O.co2 254  GLU254     -0.2457
     89  N         13.3700   12.1430  114.6080 N.3   257  LEU257     -0.1245
     90  CA        12.5910   13.1240  115.3810 C.3   257  LEU257      0.1561
     91  C         12.4420   12.6450  116.8470 C.2   257  LEU257      0.2260
     92  O         12.6460   13.3890  117.7980 O.2   257  LEU257     -0.2867
     93  CB        11.2250   13.3190  114.7640 C.3   257  LEU257      0.0270
     94  CG        10.2650   14.1830  115.5610 C.3   257  LEU257      0.0019
     95  CD1       10.8230   15.5970  115.7860 C.3   257  LEU257      0.0001
     96  CD2        8.8580   14.1980  114.9150 C.3   257  LEU257      0.0001
     97  N         13.4930   14.4580  120.3610 N.3   261  LEU261     -0.1245
     98  CA        12.4960   14.7390  121.3800 C.3   261  LEU261      0.1561
     99  C         12.9370   14.2940  122.7420 C.2   261  LEU261      0.2260
    100  O         12.7150   15.0020  123.7310 O.2   261  LEU261     -0.2867
    101  CB        11.1450   14.1260  121.0320 C.3   261  LEU261      0.0270
    102  CG        10.4650   14.7810  119.8360 C.3   261  LEU261      0.0019
    103  CD1        9.2720   13.9530  119.3880 C.3   261  LEU261      0.0001
    104  CD2        9.9860   16.1980  120.1310 C.3   261  LEU261      0.0001
    105  N         15.6690   16.7140  123.8390 N.3   264  LEU264     -0.1245
    106  CA        15.1270   18.0110  124.2570 C.3   264  LEU264      0.1561
    107  C         14.3880   17.9290  125.5860 C.2   264  LEU264      0.2260
    108  O         14.4790   18.8390  126.3970 O.2   264  LEU264     -0.2867
    109  CB        14.2600   18.6300  123.1880 C.3   264  LEU264      0.0270
    110  CG        15.0020   19.7400  122.3780 C.3   264  LEU264      0.0019
    111  CD1       16.2710   19.2740  121.7410 C.3   264  LEU264      0.0001
    112  CD2       14.0800   20.3300  121.3600 C.3   264  LEU264      0.0001
    113  N          5.9450   17.0790  128.1690 N.3   421  PHE421     -0.1227
    114  CA         5.2590   16.7560  126.9140 C.3   421  PHE421      0.1736
    115  C          6.2110   16.2580  125.8460 C.2   421  PHE421      0.2595
    116  O          5.8380   15.4380  125.0170 O.2   421  PHE421     -0.2718
    117  CB         4.4150   17.9080  126.3920 C.3   421  PHE421      0.0547
    118  CG         3.0570   18.0130  127.1040 C.ar  421  PHE421     -0.0202
    119  CD1        2.1970   16.9120  127.1530 C.ar  421  PHE421     -0.0042
    120  CD2        2.6780   19.1700  127.8030 C.ar  421  PHE421     -0.0042
    121  CE1        0.9560   16.9790  127.8200 C.ar  421  PHE421     -0.0003
    122  CE2        1.4400   19.2550  128.4310 C.ar  421  PHE421     -0.0003
    123  CZ         0.5790   18.1700  128.4540 C.ar  421  PHE421     -0.0000
    124  N          7.4460   16.7240  125.8990 N.am  422  PHE422     -0.1976
    125  CA         8.4480   16.2720  124.9910 C.3   422  PHE422      0.1639
    126  C          8.8620   14.8170  125.2560 C.2   422  PHE422      0.2290
    127  O          9.1770   14.0960  124.2830 O.2   422  PHE422     -0.2864
    128  CB         9.6030   17.2910  124.9170 C.3   422  PHE422      0.0560
    129  CG         9.3600   18.3560  123.8780 C.ar  422  PHE422     -0.0200
    130  CD1        8.2380   19.2230  123.9570 C.ar  422  PHE422     -0.0042
    131  CD2       10.1830   18.4640  122.7820 C.ar  422  PHE422     -0.0042
    132  CE1        7.9790   20.1320  122.9600 C.ar  422  PHE422     -0.0003
    133  CE2        9.9180   19.4380  121.7850 C.ar  422  PHE422     -0.0003
    134  CZ         8.8190   20.2250  121.8640 C.ar  422  PHE422     -0.0000
    135  N          6.5990   12.6970  126.4360 N.3   424  VAL424     -0.1231
    136  CA         5.4570   12.0420  125.8350 C.3   424  VAL424      0.1692
    137  C          5.6130   11.9020  124.3140 C.2   424  VAL424      0.2592
    138  O          5.3770   10.8400  123.7210 O.2   424  VAL424     -0.2718
    139  CB         4.1640   12.7600  126.1980 C.3   424  VAL424      0.0266
    140  CG1        2.9930   12.1710  125.4060 C.3   424  VAL424      0.0020
    141  CG2        3.9540   12.6890  127.7150 C.3   424  VAL424      0.0020
    142  N          6.0360   12.9910  123.6810 N.am  425  GLY425     -0.1957
    143  CA         6.3700   12.9900  122.2700 C.3   425  GLY425      0.1869
    144  C          7.4570   12.0410  121.8960 C.2   425  GLY425      0.2309
    145  O          7.3130   11.3650  120.8670 O.2   425  GLY425     -0.2863
    146  N          5.7610    8.6300  121.9770 N.3   428  TRP428     -0.1227
    147  CA         4.8070    8.5030  120.9040 C.3   428  TRP428      0.1737
    148  C          5.5490    8.2240  119.6020 C.2   428  TRP428      0.2595
    149  O          5.2280    7.2940  118.8810 O.2   428  TRP428     -0.2718
    150  CB         4.0310    9.8190  120.7640 C.3   428  TRP428      0.0564
    151  CG         2.9710    9.7730  119.6900 C.ar  428  TRP428      0.0003
    152  CD1        3.1450   10.0410  118.3480 C.ar  428  TRP428      0.0946
    153  CD2        1.6270    9.3280  119.8290 C.ar  428  TRP428      0.0152
    154  NE1        1.9910    9.8300  117.6800 N.ar  428  TRP428     -0.2442
    155  CE2        1.0280    9.4070  118.5550 C.ar  428  TRP428      0.0810
    156  CE3        0.8460    8.9580  120.9070 C.ar  428  TRP428      0.0012
    157  CZ2       -0.3070    9.0660  118.3340 C.ar  428  TRP428      0.0191
    158  CZ3       -0.4800    8.6120  120.6890 C.ar  428  TRP428      0.0001
    159  CH2       -1.0450    8.6730  119.4290 C.ar  428  TRP428      0.0015
    160  N          6.4880    9.0980  119.2620 N.am  429  HIS429     -0.1975
    161  CA         7.1540    9.0380  117.9770 C.3   429  HIS429      0.1656
    162  C          8.1500    7.8170  117.9790 C.2   429  HIS429      0.2291
    163  O          8.3170    7.1680  116.9340 O.2   429  HIS429     -0.2864
    164  CB         7.8010   10.3980  117.5430 C.3   429  HIS429      0.0771
    165  CG         6.8050   11.4500  117.1610 C.ar  429  HIS429      0.0820
    166  ND1        6.0250   11.3470  116.0140 N.ar  429  HIS429     -0.2267
    167  CD2        6.4770   12.6470  117.7430 C.ar  429  HIS429      0.1154
    168  CE1        5.2620   12.4360  115.9090 C.ar  429  HIS429      0.1986
    169  NE2        5.4930   13.2470  116.9570 N.ar  429  HIS429     -0.2212
    170  N          5.9880    4.7960  117.4600 N.3   432  ARG432     -0.1245
    171  CA         5.4490    4.8100  116.1170 C.3   432  ARG432      0.1563
    172  C          6.5270    4.4450  115.0700 C.2   432  ARG432      0.2260
    173  O          6.2740    3.6820  114.0980 O.2   432  ARG432     -0.2867
    174  CB         4.8120    6.1640  115.7620 C.3   432  ARG432      0.0307
    175  CG         3.8300    6.0120  114.5860 C.3   432  ARG432      0.0489
    176  CD         3.1830    7.2860  114.1160 C.3   432  ARG432      0.2205
    177  NE         2.2760    6.9800  113.0150 N.pl3 432  ARG432     -0.0865
    178  CZ         2.6980    6.7650  111.7560 C.cat 432  ARG432      0.5346
    179  NH1        3.9990    6.9430  111.4120 N.pl3 432  ARG432      0.1354
    180  NH2        1.8120    6.4320  110.8150 N.pl3 432  ARG432      0.1354
@<TRIPOS>BOND
     1    64    65    2
     2    64    63    1
     3    62    63    1
     4     1     2    1
     5    63    66    1
     6     4     3    2
     7    66    68    1
     8    66    67    1
     9    60    59    2
    10     8    10   ar
    11     8     6   ar
    12    10    11   ar
    13     2     3    1
    14     2     5    1
    15    48    47    2
    16    59    58    1
    17     5     6    1
    18     6     7   ar
    19    67    69    1
    20    11     9   ar
    21    47    46    1
    22    47    49   am
    23    52    51    2
    24    12    13    1
    25    46    45    1
    26    16    13    1
    27    16    17    1
    28    70    71    1
    29    13    14    1
    30    58    57    1
    31    58    61    1
    32    51    57   am
    33    51    50    1
    34     7     9   ar
    35    50    49    1
    36    50    53    1
    37    76    78   ar
    38    76    75   ar
    39    55    54    2
    40    74    71    1
    41    74    75    1
    42    71    72    1
    43    43    42    2
    44    72    73    2
    45    17    18   ar
    46    17    19   ar
    47    18    20   ar
    48    45    42   am
    49    78    79   ar
    50    75    77   ar
    51    14    15    2
    52    14    26   am
    53    42    41    1
    54    54    53    1
    55    54    56   am
    56   180   178    1
    57    19    22   ar
    58    19    21   ar
    59    20    21   ar
    60    26    27    1
    61    79    77   ar
    62    80    81    1
    63    22    24   ar
    64    41    44    1
    65    41    40    1
    66   179   178    1
    67    40    28   am
    68    21    23   ar
    69   178   177    2
    70    27    28    1
    71    27    30    1
    72    84    81    1
    73    84    85    1
    74    28    29    2
    75    34    32   ar
    76    34    35   ar
    77    81    82    1
    78    32    31   ar
    79    24    25   ar
    80    87    86   ar
    81    23    25   ar
    82    35    37   ar
    83    35    33   ar
    84   177   176    1
    85    37    39   ar
    86    31    33   ar
    87    31    30    1
    88    33    36   ar
    89    39    38   ar
    90    86    85    1
    91    86    88   ar
    92    82    83    2
    93    36    38   ar
    94   173   172    2
    95   176   175    1
    96   175   174    1
    97    89    90    1
    98    93    90    1
    99    93    94    1
   100    96    94    1
   101   172   171    1
   102    90    91    1
   103    94    95    1
   104   174   171    1
   105   168   166   ar
   106   168   169   ar
   107   166   165   ar
   108   171   170    1
   109    91    92    2
   110   163   162    2
   111   169   167   ar
   112   165   164    1
   113   165   167   ar
   114   164   161    1
   115   154   152   ar
   116   154   155   ar
   117   161   162    1
   118   161   160    1
   119   157   155   ar
   120   157   159   ar
   121   152   151   ar
   122   155   153   ar
   123   149   148    2
   124   160   148   am
   125   103   102    1
   126   159   158   ar
   127   148   147    1
   128   151   153   ar
   129   151   150    1
   130   153   156   ar
   131   102   104    1
   132   102   101    1
   133    97    98    1
   134   158   156   ar
   135   150   147    1
   136   145   144    2
   137   147   146    1
   138   101    98    1
   139   112   110    1
   140    98    99    1
   141   111   110    1
   142   133   134   ar
   143   133   131   ar
   144   134   132   ar
   145   144   143    1
   146   143   142    1
   147   110   109    1
   148    99   100    2
   149   131   129   ar
   150   132   130   ar
   151   109   106    1
   152   142   137   am
   153   138   137    2
   154   105   106    1
   155   129   130   ar
   156   129   128    1
   157   106   107    1
   158   127   126    2
   159   137   136    1
   160   128   125    1
   161   125   126    1
   162   125   124    1
   163   116   115    2
   164   140   139    1
   165   107   108    2
   166   136   139    1
   167   136   135    1
   168   115   124   am
   169   115   114    1
   170   139   141    1
   171   117   114    1
   172   117   118    1
   173   114   113    1
   174   118   119   ar
   175   118   120   ar
   176   119   121   ar
   177   120   122   ar
   178   121   123   ar
   179   122   123   ar
