@<TRIPOS>MOLECULE
tmp/5v2cU37.pdb
 151 141 0 0 0
SMALL
GASTEIGER

@<TRIPOS>ATOM
      1  N        -43.6080    2.1960  173.2780 N.3    67  ARG67      -0.1231
      2  CA       -44.4440    3.1560  172.5110 C.3    67  ARG67       0.1694
      3  C        -45.8740    2.6790  172.3980 C.2    67  ARG67       0.2591
      4  O        -46.8230    3.4990  172.3880 O.2    67  ARG67      -0.2718
      5  CB       -43.8920    3.2870  171.1200 C.3    67  ARG67       0.0321
      6  CG       -44.6280    4.2220  170.1980 C.3    67  ARG67       0.0489
      7  CD       -43.7860    4.5540  168.9950 C.3    67  ARG67       0.2205
      8  NE       -43.8080    3.4890  168.0130 N.pl3  67  ARG67      -0.0865
      9  CZ       -43.3240    3.5730  166.7740 C.cat  67  ARG67       0.5346
     10  NH1      -42.7270    4.6910  166.3450 N.pl3  67  ARG67       0.1354
     11  NH2      -43.4210    2.5310  165.9240 N.pl3  67  ARG67       0.1354
     12  N        -46.0610    1.3720  172.2680 N.am   68  LEU68      -0.1980
     13  CA       -47.4210    0.8510  172.1550 C.3    68  LEU68       0.1596
     14  C        -48.0190    0.2510  173.4060 C.2    68  LEU68       0.2287
     15  O        -49.1030   -0.3750  173.3000 O.2    68  LEU68      -0.2864
     16  CB       -47.4520   -0.1810  171.0320 C.3    68  LEU68       0.0297
     17  CG       -47.1050    0.4200  169.7000 C.3    68  LEU68       0.0022
     18  CD1      -47.2090   -0.7550  168.7700 C.3    68  LEU68       0.0001
     19  CD2      -48.1150    1.5590  169.3140 C.3    68  LEU68       0.0001
     20  N        -55.5130   -5.2420  155.3400 N.3   145  ALA145     -0.1245
     21  CA       -54.6570   -4.2030  155.8930 C.3   145  ALA145      0.1562
     22  C        -55.4950   -3.0400  156.4810 C.2   145  ALA145      0.2260
     23  O        -55.2080   -2.5370  157.5880 O.2   145  ALA145     -0.2867
     24  CB       -53.6250   -3.7170  154.8710 C.3   145  ALA145      0.0290
     25  N        -57.1820   -4.1740  159.7910 N.3   148  LEU148     -0.1231
     26  CA       -56.1760   -4.1320  160.8850 C.3   148  LEU148      0.1693
     27  C        -55.7970   -2.7150  161.3030 C.2   148  LEU148      0.2592
     28  O        -55.7480   -2.4050  162.5010 O.2   148  LEU148     -0.2718
     29  CB       -54.9570   -4.9280  160.4920 C.3   148  LEU148      0.0284
     30  CG       -53.8930   -5.1150  161.5520 C.3   148  LEU148      0.0019
     31  CD1      -54.4960   -5.6960  162.8370 C.3   148  LEU148      0.0001
     32  CD2      -52.8910   -6.0780  160.9610 C.3   148  LEU148      0.0001
     33  N        -55.5880   -1.8390  160.3080 N.am  149  CYS149     -0.1970
     34  CA       -55.2430   -0.4110  160.5590 C.3   149  CYS149      0.1712
     35  C        -56.3280    0.2910  161.3460 C.2   149  CYS149      0.2296
     36  O        -56.0750    0.9440  162.3840 O.2   149  CYS149     -0.2864
     37  CB       -55.0760    0.2880  159.2020 C.3   149  CYS149      0.0983
     38  SG       -54.5880    1.9850  159.2290 S.3   149  CYS149     -0.0798
     39  N        -56.5080   -1.1690  164.8990 N.3   152  PHE152     -0.1241
     40  CA       -55.3850   -0.5920  165.6410 C.3   152  PHE152      0.1605
     41  C        -55.7090    0.8150  166.1470 C.2   152  PHE152      0.2264
     42  O        -55.5150    1.1300  167.3310 O.2   152  PHE152     -0.2867
     43  CB       -54.1290   -0.5980  164.7840 C.3   152  PHE152      0.0534
     44  CG       -52.9310    0.0220  165.4590 C.ar  152  PHE152     -0.0203
     45  CD1      -52.4710   -0.4850  166.6470 C.ar  152  PHE152     -0.0042
     46  CD2      -52.2870    1.0990  164.9050 C.ar  152  PHE152     -0.0042
     47  CE1      -51.3650    0.0460  167.2650 C.ar  152  PHE152     -0.0003
     48  CE2      -51.1510    1.6650  165.5310 C.ar  152  PHE152     -0.0003
     49  CZ       -50.6950    1.1390  166.7000 C.ar  152  PHE152     -0.0000
     50  N        -55.2240    2.1580  170.0930 N.3   157  LEU157     -0.1245
     51  CA       -54.7050    3.5280  170.4170 C.3   157  LEU157      0.1561
     52  C        -55.6790    4.3630  171.2480 C.2   157  LEU157      0.2260
     53  O        -55.2760    5.1090  172.1130 O.2   157  LEU157     -0.2867
     54  CB       -54.3140    4.2390  169.1310 C.3   157  LEU157      0.0270
     55  CG       -53.1920    3.6160  168.3280 C.3   157  LEU157      0.0019
     56  CD1      -52.9630    4.4580  167.0770 C.3   157  LEU157      0.0001
     57  CD2      -51.9360    3.5740  169.1440 C.3   157  LEU157      0.0001
     58  N        -51.1470    4.5750  173.7370 N.3   165  MET165     -0.1245
     59  CA       -49.7840    4.8280  173.2610 C.3   165  MET165      0.1570
     60  C        -49.0070    5.7320  174.1980 C.2   165  MET165      0.2261
     61  O        -49.6010    6.4430  175.0320 O.2   165  MET165     -0.2867
     62  CB       -49.8100    5.4200  171.8300 C.3   165  MET165      0.0387
     63  CG       -50.5330    6.7410  171.7120 C.3   165  MET165      0.0595
     64  SD       -50.5860    7.4100  170.0200 S.3   165  MET165     -0.1393
     65  CE       -48.8720    7.8450  169.8110 C.3   165  MET165      0.0692
     66  N        -52.3970   10.6610  165.0890 N.3   197  VAL197     -0.1245
     67  CA       -51.9750    9.2980  164.7810 C.3   197  VAL197      0.1561
     68  C        -53.1870    8.3890  164.8780 C.2   197  VAL197      0.2260
     69  O        -53.3620    7.4770  164.0870 O.2   197  VAL197     -0.2867
     70  CB       -50.9130    8.8030  165.7680 C.3   197  VAL197      0.0252
     71  CG1      -50.5480    7.3790  165.4080 C.3   197  VAL197      0.0019
     72  CG2      -49.6810    9.7160  165.7100 C.3   197  VAL197      0.0019
     73  N        -55.5670    9.1920  161.9320 N.3   200  HIS200     -0.1226
     74  CA       -54.9600    8.5800  160.7750 C.3   200  HIS200      0.1752
     75  C        -55.4060    7.1030  160.6090 C.2   200  HIS200      0.2596
     76  O        -55.7770    6.6710  159.5150 O.2   200  HIS200     -0.2718
     77  CB       -53.4090    8.6630  160.7930 C.3   200  HIS200      0.0759
     78  CG       -52.7980    7.8170  159.7170 C.ar  200  HIS200      0.0818
     79  ND1      -52.6360    8.2390  158.3890 N.ar  200  HIS200     -0.2268
     80  CD2      -52.4070    6.5140  159.7710 C.ar  200  HIS200      0.1154
     81  CE1      -52.1970    7.1960  157.6960 C.ar  200  HIS200      0.1986
     82  NE2      -52.0210    6.1610  158.5080 N.ar  200  HIS200     -0.2212
     83  N        -55.2970    6.3220  161.6890 N.am  201  HIS201     -0.1975
     84  CA       -55.4570    4.8620  161.5680 C.3   201  HIS201      0.1656
     85  C        -56.9170    4.5330  161.3600 C.2   201  HIS201      0.2291
     86  O        -57.3090    3.6260  160.5660 O.2   201  HIS201     -0.2864
     87  CB       -54.7210    4.1510  162.7430 C.3   201  HIS201      0.0771
     88  CG       -53.2370    4.0690  162.5240 C.ar  201  HIS201      0.0820
     89  ND1      -52.3290    4.9460  163.0870 N.ar  201  HIS201     -0.2267
     90  CD2      -52.5110    3.1950  161.7780 C.ar  201  HIS201      0.1154
     91  CE1      -51.1140    4.6190  162.6670 C.ar  201  HIS201      0.1986
     92  NE2      -51.1970    3.5630  161.8580 N.ar  201  HIS201     -0.2212
     93  N        -57.6290    6.2640  157.5170 N.3   204  ALA204     -0.1245
     94  CA       -56.9690    5.5420  156.4730 C.3   204  ALA204      0.1562
     95  C        -57.3610    4.0750  156.4600 C.2   204  ALA204      0.2260
     96  O        -57.3390    3.4090  155.4040 O.2   204  ALA204     -0.2867
     97  CB       -55.4630    5.6950  156.5580 C.3   204  ALA204      0.0290
     98  N        -40.7460    0.5130  145.9240 N.3   242  ALA242     -0.1231
     99  CA       -40.9590    1.9890  145.9490 C.3   242  ALA242      0.1694
    100  C        -41.7550    2.4340  147.1570 C.2   242  ALA242      0.2591
    101  O        -41.3720    3.3820  147.8170 O.2   242  ALA242     -0.2718
    102  CB       -41.6330    2.4600  144.6720 C.3   242  ALA242      0.0304
    103  N        -42.8580    1.7510  147.4590 N.am  243  ALA243     -0.1980
    104  CA       -43.6440    2.0990  148.6430 C.3   243  ALA243      0.1597
    105  C        -42.8230    2.0100  149.9060 C.2   243  ALA243      0.2287
    106  O        -42.9500    2.8310  150.7920 O.2   243  ALA243     -0.2864
    107  CB       -44.8840    1.2170  148.7820 C.3   243  ALA243      0.0319
    108  N        -40.2540    4.7970  150.2820 N.3   246  PHE246     -0.1227
    109  CA       -40.9820    6.0070  150.7080 C.3   246  PHE246      0.1736
    110  C        -41.2280    5.9660  152.2390 C.2   246  PHE246      0.2595
    111  O        -40.8800    6.9150  152.9440 O.2   246  PHE246     -0.2718
    112  CB       -42.2710    6.1350  149.8920 C.3   246  PHE246      0.0547
    113  CG       -43.2580    7.1810  150.3860 C.ar  246  PHE246     -0.0202
    114  CD1      -42.8260    8.4050  150.8430 C.ar  246  PHE246     -0.0042
    115  CD2      -44.6170    6.9410  150.3630 C.ar  246  PHE246     -0.0042
    116  CE1      -43.7040    9.3740  151.3000 C.ar  246  PHE246     -0.0003
    117  CE2      -45.5220    7.9080  150.8460 C.ar  246  PHE246     -0.0003
    118  CZ       -45.0630    9.1180  151.2960 C.ar  246  PHE246     -0.0000
    119  N        -41.8020    4.8650  152.7240 N.am  247  ALA247     -0.1980
    120  CA       -42.0100    4.6630  154.1130 C.3   247  ALA247      0.1597
    121  C        -40.7280    4.7660  154.9410 C.2   247  ALA247      0.2287
    122  O        -40.7380    5.3610  156.0620 O.2   247  ALA247     -0.2864
    123  CB       -42.6950    3.3070  154.3320 C.3   247  ALA247      0.0319
    124  N        -39.7180    8.3290  155.3030 N.3   250  VAL250     -0.1231
    125  CA       -40.5960    8.9910  156.2420 C.3   250  VAL250      0.1692
    126  C        -40.2260    8.6720  157.7120 C.2   250  VAL250      0.2591
    127  O        -40.1180    9.5940  158.5410 O.2   250  VAL250     -0.2718
    128  CB       -42.0670    8.6940  155.9540 C.3   250  VAL250      0.0266
    129  CG1      -42.9470    9.2300  157.0410 C.3   250  VAL250      0.0020
    130  CG2      -42.4640    9.3530  154.6250 C.3   250  VAL250      0.0020
    131  N        -40.0190    7.3860  158.0580 N.am  251  VAL251     -0.1980
    132  CA       -39.6830    7.0880  159.4170 C.3   251  VAL251      0.1595
    133  C        -38.2630    7.6070  159.7720 C.2   251  VAL251      0.2287
    134  O        -38.0010    7.9510  160.9230 O.2   251  VAL251     -0.2864
    135  CB       -39.8480    5.5880  159.7620 C.3   251  VAL251      0.0276
    136  CG1      -41.2950    5.1800  159.6090 C.3   251  VAL251      0.0022
    137  CG2      -38.8910    4.6790  158.9670 C.3   251  VAL251      0.0022
    138  N        -39.1370   11.4530  160.6120 N.3   254  THR254     -0.1218
    139  CA       -39.8550   11.6170  161.8910 C.3   254  THR254      0.1862
    140  C        -38.9900   11.2790  163.1000 C.2   254  THR254      0.2287
    141  O        -39.1270   11.8570  164.1730 O.2   254  THR254     -0.2866
    142  CB       -41.2460   10.9230  161.9250 C.3   254  THR254      0.1770
    143  OG1      -41.1140    9.4920  161.7920 O.3   254  THR254     -0.2211
    144  CG2      -42.2020   11.5240  160.7910 C.3   254  THR254      0.0375
    145  N        -44.7630    9.9860  167.5730 N.3   261  THR261     -0.1218
    146  CA       -44.4030    8.5940  167.5720 C.3   261  THR261      0.1862
    147  C        -42.9210    8.3470  167.7820 C.2   261  THR261      0.2287
    148  O        -42.5310    7.1910  167.8170 O.2   261  THR261     -0.2866
    149  CB       -44.8480    7.8900  166.2440 C.3   261  THR261      0.1770
    150  OG1      -43.9990    8.2890  165.1710 O.3   261  THR261     -0.2211
    151  CG2      -46.3670    8.1130  165.9590 C.3   261  THR261      0.0375
@<TRIPOS>BOND
     1   102    99    1
     2    98    99    1
     3    99   100    1
     4   100   103   am
     5   100   101    2
     6   103   104    1
     7   104   107    1
     8   104   105    1
     9   112   113    1
    10   112   109    1
    11   105   106    2
    12   108   109    1
    13   115   113   ar
    14   115   117   ar
    15   113   114   ar
    16   109   110    1
    17   114   116   ar
    18   117   118   ar
    19   118   116   ar
    20   110   119   am
    21   110   111    2
    22   119   120    1
    23   120   123    1
    24   120   121    1
    25   130   128    1
    26    24    21    1
    27   121   122    2
    28   124   125    1
    29    20    21    1
    30    96    95    2
    31    21    22    1
    32   128   125    1
    33   128   129    1
    34   125   126    1
    35    95    94    1
    36    94    97    1
    37    94    93    1
    38    22    23    2
    39    81    79   ar
    40    81    82   ar
    41   126   131   am
    42   126   127    2
    43   131   132    1
    44    79    78   ar
    45    82    80   ar
    46   137   135    1
    47    37    38    1
    48    37    34    1
    49   132   135    1
    50   132   133    1
    51    76    75    2
    52   136   135    1
    53    78    80   ar
    54    78    77    1
    55   133   134    2
    56    25    26    1
    57    33    34    1
    58    33    27   am
    59    29    26    1
    60    29    30    1
    61    34    35    1
    62    86    85    2
    63    75    74    1
    64    75    83   am
    65   138   139    1
    66    74    77    1
    67    74    73    1
    68   144   142    1
    69    26    27    1
    70    32    30    1
    71    27    28    2
    72    35    36    2
    73    85    84    1
    74    30    31    1
    75    84    83    1
    76    84    87    1
    77    90    92   ar
    78    90    88   ar
    79   143   142    1
    80    92    91   ar
    81   139   142    1
    82   139   140    1
    83    88    87    1
    84    88    89   ar
    85    91    89   ar
    86   140   141    2
    87    69    68    2
    88    67    68    1
    89    67    66    1
    90    67    70    1
    91    43    44    1
    92    43    40    1
    93    39    40    1
    94    46    44   ar
    95    46    48   ar
    96   150   149    1
    97    71    70    1
    98    44    45   ar
    99    48    49   ar
   100    40    41    1
   101    72    70    1
   102    11     9    1
   103   151   149    1
   104    41    42    2
   105   149   146    1
   106    10     9    1
   107    45    47   ar
   108    49    47   ar
   109     9     8    2
   110    56    55    1
   111   146   145    1
   112   146   147    1
   113   147   148    2
   114     8     7    1
   115    55    54    1
   116    55    57    1
   117    18    17    1
   118     7     6    1
   119    54    51    1
   120    19    17    1
   121    17    16    1
   122    65    64    1
   123    64    63    1
   124    50    51    1
   125     6     5    1
   126    51    52    1
   127    16    13    1
   128     5     2    1
   129    52    53    2
   130    63    62    1
   131    62    59    1
   132    13    12    1
   133    13    14    1
   134    12     3   am
   135     4     3    2
   136     3     2    1
   137     2     1    1
   138    59    58    1
   139    59    60    1
   140    15    14    2
   141    60    61    2
