@<TRIPOS>MOLECULE
tmp/5v2cV26.pdb
 211 201 0 0 0
SMALL
GASTEIGER

@<TRIPOS>ATOM
      1  N          9.8530   35.9030  118.2310 N.3    48  TRP48      -0.1241
      2  CA         9.5180   35.9900  119.6290 C.3    48  TRP48       0.1605
      3  C         10.6440   36.6010  120.4510 C.2    48  TRP48       0.2264
      4  O         10.3800   37.5240  121.2040 O.2    48  TRP48      -0.2867
      5  CB         9.0740   34.6280  120.1980 C.3    48  TRP48       0.0550
      6  CG         8.7070   34.7490  121.6670 C.ar   48  TRP48       0.0003
      7  CD1        7.4910   35.0990  122.1780 C.ar   48  TRP48       0.0946
      8  CD2        9.5640   34.5340  122.7870 C.ar   48  TRP48       0.0152
      9  NE1        7.5390   35.1120  123.5370 N.ar   48  TRP48      -0.2442
     10  CE2        8.7940   34.7590  123.9470 C.ar   48  TRP48       0.0810
     11  CE3       10.8970   34.1370  122.9290 C.ar   48  TRP48       0.0012
     12  CZ2        9.3080   34.6120  125.2270 C.ar   48  TRP48       0.0191
     13  CZ3       11.4090   34.0210  124.2160 C.ar   48  TRP48       0.0001
     14  CH2       10.6220   34.2530  125.3370 C.ar   48  TRP48       0.0015
     15  N         12.0990   37.9370  131.5740 N.3    72  ILE72      -0.1231
     16  CA        12.9360   36.7100  131.4010 C.3    72  ILE72       0.1692
     17  C         14.0190   36.8420  130.3490 C.2    72  ILE72       0.2591
     18  O         15.0490   36.1250  130.4490 O.2    72  ILE72      -0.2718
     19  CB        12.0860   35.4720  131.1070 C.3    72  ILE72       0.0266
     20  CG1       11.2260   35.6730  129.8660 C.3    72  ILE72       0.0019
     21  CG2       11.2170   35.1670  132.3250 C.3    72  ILE72       0.0020
     22  CD1       10.4000   34.4130  129.5180 C.3    72  ILE72       0.0001
     23  N         13.8260   37.7450  129.3660 N.am   73  LEU73      -0.1980
     24  CA        14.8510   37.9370  128.3140 C.3    73  LEU73       0.1596
     25  C         15.9540   38.9560  128.6560 C.2    73  LEU73       0.2287
     26  O         17.1490   38.6920  128.4460 O.2    73  LEU73      -0.2864
     27  CB        14.1910   38.2450  126.9750 C.3    73  LEU73       0.0297
     28  CG        13.2490   37.1490  126.4800 C.3    73  LEU73       0.0022
     29  CD1       12.8800   37.3650  125.0140 C.3    73  LEU73       0.0001
     30  CD2       13.8040   35.7300  126.6660 C.3    73  LEU73       0.0001
     31  N         18.6400   37.4360  130.6040 N.3    76  HIS76      -0.1241
     32  CA        19.6110   36.6920  129.7640 C.3    76  HIS76       0.1621
     33  C         20.6700   37.5950  129.1390 C.2    76  HIS76       0.2264
     34  O         21.8660   37.2780  129.1380 O.2    76  HIS76      -0.2867
     35  CB        18.9040   35.8820  128.6750 C.3    76  HIS76       0.0745
     36  CG        18.3060   34.6040  129.1800 C.ar   76  HIS76       0.0817
     37  ND1       17.0640   34.5500  129.7580 N.ar   76  HIS76      -0.2268
     38  CD2       18.8020   33.3410  129.2260 C.ar   76  HIS76       0.1154
     39  CE1       16.8100   33.2980  130.1290 C.ar   76  HIS76       0.1986
     40  NE2       17.8600   32.5510  129.8340 N.ar   76  HIS76      -0.2212
     41  N         25.0580   38.2320  130.1840 N.3    80  LEU80      -0.1245
     42  CA        26.1660   38.2620  129.2450 C.3    80  LEU80       0.1561
     43  C         27.0330   39.5160  129.3670 C.2    80  LEU80       0.2260
     44  O         27.9950   39.6690  128.6320 O.2    80  LEU80      -0.2867
     45  CB        25.6050   38.1130  127.8260 C.3    80  LEU80       0.0270
     46  CG        25.1610   36.6760  127.5260 C.3    80  LEU80       0.0019
     47  CD1       24.3250   36.6570  126.2620 C.3    80  LEU80       0.0001
     48  CD2       26.3560   35.7380  127.3880 C.3    80  LEU80       0.0001
     49  N         25.8790   42.7670  129.0590 N.3    82  TRP82      -0.1241
     50  CA        25.3500   43.8850  128.3100 C.3    82  TRP82       0.1605
     51  C         24.3410   44.6590  129.1290 C.2    82  TRP82       0.2264
     52  O         23.4130   44.0680  129.6830 O.2    82  TRP82      -0.2867
     53  CB        24.6970   43.4000  126.9950 C.3    82  TRP82       0.0550
     54  CG        25.6920   43.1870  125.8700 C.ar   82  TRP82       0.0003
     55  CD1       26.7100   44.0230  125.5210 C.ar   82  TRP82       0.0946
     56  CD2       25.7140   42.1250  124.9140 C.ar   82  TRP82       0.0152
     57  NE1       27.4170   43.5100  124.4460 N.ar   82  TRP82      -0.2442
     58  CE2       26.8090   42.3600  124.0400 C.ar   82  TRP82       0.0810
     59  CE3       24.9630   40.9730  124.7360 C.ar   82  TRP82       0.0012
     60  CZ2       27.1640   41.4720  123.0130 C.ar   82  TRP82       0.0191
     61  CZ3       25.3090   40.0860  123.7000 C.ar   82  TRP82       0.0001
     62  CH2       26.3980   40.3450  122.8600 C.ar   82  TRP82       0.0015
     63  N         17.1060   40.6500  116.3810 N.3   103  HIS103     -0.1241
     64  CA        16.3750   39.3880  116.3160 C.3   103  HIS103      0.1621
     65  C         15.1020   39.6080  115.4570 C.2   103  HIS103      0.2264
     66  O         14.8130   38.8510  114.5670 O.2   103  HIS103     -0.2867
     67  CB        16.0720   38.7540  117.7330 C.3   103  HIS103      0.0745
     68  CG        17.1970   37.9130  118.3350 C.ar  103  HIS103      0.0817
     69  ND1       18.1780   38.4520  119.1220 N.ar  103  HIS103     -0.2268
     70  CD2       17.4390   36.5680  118.3260 C.ar  103  HIS103      0.1154
     71  CE1       19.0070   37.4930  119.5300 C.ar  103  HIS103      0.1986
     72  NE2       18.5730   36.3200  119.0910 N.ar  103  HIS103     -0.2212
     73  N         26.8170   24.5390  116.1020 N.3   153  LEU153     -0.1245
     74  CA        26.6570   24.6110  117.5560 C.3   153  LEU153      0.1561
     75  C         27.9920   24.8720  118.2900 C.2   153  LEU153      0.2260
     76  O         28.0170   25.6350  119.2650 O.2   153  LEU153     -0.2867
     77  CB        25.9740   23.3420  118.1060 C.3   153  LEU153      0.0270
     78  CG        24.5140   23.1930  117.6970 C.3   153  LEU153      0.0019
     79  CD1       23.9990   21.7770  117.9580 C.3   153  LEU153      0.0001
     80  CD2       23.6730   24.2160  118.4520 C.3   153  LEU153      0.0001
     81  N         28.7380   28.4050  117.9940 N.3   156  GLY156     -0.1225
     82  CA        27.8910   29.0840  119.0050 C.3   156  GLY156      0.1811
     83  C         28.4500   29.1330  120.4200 C.2   156  GLY156      0.2280
     84  O         28.3930   30.1640  121.0860 O.2   156  GLY156     -0.2866
     85  N         31.1450   31.4410  120.7140 N.3   159  LEU159     -0.1231
     86  CA        30.6850   32.8410  120.7470 C.3   159  LEU159      0.1693
     87  C         30.5510   33.3320  122.2000 C.2   159  LEU159      0.2591
     88  O         30.9710   34.4670  122.5180 O.2   159  LEU159     -0.2718
     89  CB        29.3780   33.0570  119.9640 C.3   159  LEU159      0.0284
     90  CG        29.4980   32.9480  118.4420 C.3   159  LEU159      0.0019
     91  CD1       28.1260   33.2110  117.7970 C.3   159  LEU159      0.0001
     92  CD2       30.5710   33.8860  117.8920 C.3   159  LEU159      0.0001
     93  N         30.0070   32.4690  123.0580 N.am  160  LEU160     -0.1980
     94  CA        29.9370   32.7580  124.4530 C.3   160  LEU160      0.1596
     95  C         31.3760   32.9510  124.9800 C.2   160  LEU160      0.2287
     96  O         31.6320   33.8750  125.7230 O.2   160  LEU160     -0.2864
     97  CB        29.2430   31.6230  125.2230 C.3   160  LEU160      0.0297
     98  CG        29.2130   31.8280  126.7560 C.3   160  LEU160      0.0022
     99  CD1       28.3230   32.9750  127.1320 C.3   160  LEU160      0.0001
    100  CD2       28.7540   30.5790  127.4550 C.3   160  LEU160      0.0001
    101  N         34.0180   33.8930  123.4050 N.3   162  ALA162     -0.1231
    102  CA        34.4810   35.1640  122.8340 C.3   162  ALA162      0.1694
    103  C         33.9430   36.3860  123.6130 C.2   162  ALA162      0.2591
    104  O         34.6980   37.2970  123.9910 O.2   162  ALA162     -0.2718
    105  CB        34.0900   35.2410  121.3500 C.3   162  ALA162      0.0304
    106  N         32.6400   36.3920  123.8440 N.am  163  LYS163     -0.1980
    107  CA        32.0320   37.3980  124.6770 C.3   163  LYS163      0.1596
    108  C         32.7550   37.5140  126.0090 C.2   163  LYS163      0.2287
    109  O         33.1250   38.6180  126.4110 O.2   163  LYS163     -0.2864
    110  CB        30.5620   37.0990  124.8890 C.3   163  LYS163      0.0298
    111  CG        29.8180   38.1780  125.7240 C.3   163  LYS163      0.0038
    112  CD        29.7140   39.5110  124.9880 C.3   163  LYS163      0.0206
    113  CE        29.2130   40.6090  125.8980 C.3   163  LYS163      0.1093
    114  NZ        30.1670   40.9100  127.0290 N.3   163  LYS163     -0.1314
    115  N         35.1260   40.2750  124.4410 N.3   167  PHE167     -0.1241
    116  CA        34.2230   41.3820  124.1620 C.3   167  PHE167      0.1605
    117  C         33.4750   41.7920  125.3970 C.2   167  PHE167      0.2264
    118  O         32.2500   41.8620  125.4260 O.2   167  PHE167     -0.2867
    119  CB        33.2970   41.0140  123.0000 C.3   167  PHE167      0.0534
    120  CG        34.0480   40.7430  121.7190 C.ar  167  PHE167     -0.0203
    121  CD1       34.5180   41.7640  120.9700 C.ar  167  PHE167     -0.0042
    122  CD2       34.2990   39.4540  121.3070 C.ar  167  PHE167     -0.0042
    123  CE1       35.2140   41.5340  119.7940 C.ar  167  PHE167     -0.0003
    124  CE2       34.9950   39.2040  120.1350 C.ar  167  PHE167     -0.0003
    125  CZ        35.4760   40.2440  119.3970 C.ar  167  PHE167     -0.0000
    126  N         15.6690   16.7140  123.8390 N.3   264  LEU264     -0.1245
    127  CA        15.1270   18.0110  124.2570 C.3   264  LEU264      0.1561
    128  C         14.3880   17.9290  125.5860 C.2   264  LEU264      0.2260
    129  O         14.4790   18.8390  126.3970 O.2   264  LEU264     -0.2867
    130  CB        14.2600   18.6300  123.1880 C.3   264  LEU264      0.0270
    131  CG        15.0020   19.7400  122.3780 C.3   264  LEU264      0.0019
    132  CD1       16.2710   19.2740  121.7410 C.3   264  LEU264      0.0001
    133  CD2       14.0800   20.3300  121.3600 C.3   264  LEU264      0.0001
    134  N         16.9570   17.9760  128.2830 N.3   267  MET267     -0.1230
    135  CA        17.5190   19.2920  128.3920 C.3   267  MET267      0.1702
    136  C         16.5260   20.2080  129.1180 C.2   267  MET267      0.2592
    137  O         16.9130   20.9620  129.9960 O.2   267  MET267     -0.2718
    138  CB        17.8760   19.8080  127.0020 C.3   267  MET267      0.0401
    139  CG        19.1420   19.1940  126.3960 C.3   267  MET267      0.0596
    140  SD        19.6080   19.8490  124.7730 S.3   267  MET267     -0.1393
    141  CE        19.4890   18.5120  123.7140 C.3   267  MET267      0.0692
    142  N         15.2500   20.0790  128.8070 N.am  268  GLY268     -0.1957
    143  CA        14.2400   20.8800  129.4600 C.3   268  GLY268      0.1869
    144  C         14.1760   20.6560  130.9750 C.2   268  GLY268      0.2309
    145  O         14.1150   21.6330  131.7630 O.2   268  GLY268     -0.2863
    146  N         17.2060   22.2480  132.4240 N.3   271  ALA271     -0.1245
    147  CA        17.0280   23.7070  132.4920 C.3   271  ALA271      0.1562
    148  C         16.1590   24.1080  133.6530 C.2   271  ALA271      0.2260
    149  O         16.4580   25.1010  134.3010 O.2   271  ALA271     -0.2867
    150  CB        16.4530   24.2810  131.2010 C.3   271  ALA271      0.0290
    151  N         17.5690   26.7760  136.5510 N.3   275  VAL275     -0.1245
    152  CA        17.0060   28.0610  136.9370 C.3   275  VAL275      0.1561
    153  C         16.4480   28.0570  138.3760 C.2   275  VAL275      0.2260
    154  O         16.3230   29.1160  139.0230 O.2   275  VAL275     -0.2867
    155  CB        15.9660   28.5510  135.9190 C.3   275  VAL275      0.0252
    156  CG1       14.6530   27.7590  135.9700 C.3   275  VAL275      0.0019
    157  CG2       15.6780   30.0500  136.0720 C.3   275  VAL275      0.0019
    158  N         22.3630   32.0800  136.4360 N.3   282  TYR282     -0.1241
    159  CA        21.0900   32.7990  136.6360 C.3   282  TYR282      0.1605
    160  C         21.2490   33.7110  137.8580 C.2   282  TYR282      0.2264
    161  O         20.8380   33.3490  138.9800 O.2   282  TYR282     -0.2867
    162  CB        19.8890   31.8510  136.8030 C.3   282  TYR282      0.0534
    163  CG        19.7030   31.0020  135.5780 C.ar  282  TYR282     -0.0201
    164  CD1       18.8500   31.3940  134.5440 C.ar  282  TYR282     -0.0009
    165  CD2       20.3650   29.7800  135.4380 C.ar  282  TYR282     -0.0009
    166  CE1       18.6750   30.6040  133.3970 C.ar  282  TYR282      0.0417
    167  CE2       20.1740   28.9970  134.2840 C.ar  282  TYR282      0.0417
    168  CZ        19.3350   29.4140  133.2840 C.ar  282  TYR282      0.1957
    169  OH        19.1610   28.6560  132.1490 O.3   282  TYR282     -0.2866
    170  N         10.0550   30.3130  134.7160 N.3   411  LEU411     -0.1245
    171  CA        10.9720   29.5820  133.8820 C.3   411  LEU411      0.1561
    172  C         11.0670   28.0890  134.2590 C.2   411  LEU411      0.2260
    173  O         11.1930   27.2250  133.3670 O.2   411  LEU411     -0.2867
    174  CB        12.3330   30.2430  133.9130 C.3   411  LEU411      0.0270
    175  CG        12.3820   31.5700  133.1730 C.3   411  LEU411      0.0019
    176  CD1       13.6770   32.3140  133.4600 C.3   411  LEU411      0.0001
    177  CD2       12.3080   31.3230  131.6780 C.3   411  LEU411      0.0001
    178  N          9.3170   25.1750  131.7050 N.3   415  HIS415     -0.1241
    179  CA        10.2150   24.2190  131.1290 C.3   415  HIS415      0.1621
    180  C          9.9370   22.8130  131.6240 C.2   415  HIS415      0.2264
    181  O         10.2180   21.8430  130.9040 O.2   415  HIS415     -0.2867
    182  CB        11.6810   24.6880  131.1780 C.3   415  HIS415      0.0745
    183  CG        11.9330   25.7530  130.1520 C.ar  415  HIS415      0.0817
    184  ND1       11.7670   27.1010  130.3950 N.ar  415  HIS415     -0.2268
    185  CD2       12.1850   25.6480  128.8250 C.ar  415  HIS415      0.1154
    186  CE1       11.9910   27.7810  129.2690 C.ar  415  HIS415      0.1986
    187  NE2       12.2610   26.9240  128.2990 N.ar  415  HIS415     -0.2212
    188  N          7.0170   21.6970  129.3290 N.3   418  LEU418     -0.1231
    189  CA         7.5240   21.4280  128.0140 C.3   418  LEU418      0.1693
    190  C          8.4010   20.1470  127.9880 C.2   418  LEU418      0.2591
    191  O          8.2560   19.3150  127.0920 O.2   418  LEU418     -0.2718
    192  CB         8.2750   22.6480  127.5060 C.3   418  LEU418      0.0284
    193  CG         7.3690   23.8670  127.2570 C.3   418  LEU418      0.0019
    194  CD1        8.2000   25.1070  127.2090 C.3   418  LEU418      0.0001
    195  CD2        6.4990   23.7240  125.9900 C.3   418  LEU418      0.0001
    196  N          9.2960   19.9970  128.9570 N.am  419  ALA419     -0.1980
    197  CA        10.1150   18.7840  129.0510 C.3   419  ALA419      0.1597
    198  C          9.2270   17.5240  129.1510 C.2   419  ALA419      0.2287
    199  O          9.4790   16.5070  128.4760 O.2   419  ALA419     -0.2864
    200  CB        11.0460   18.8900  130.2310 C.3   419  ALA419      0.0319
    201  N          7.4460   16.7240  125.8990 N.3   422  PHE422     -0.1241
    202  CA         8.4480   16.2720  124.9910 C.3   422  PHE422      0.1605
    203  C          8.8620   14.8170  125.2560 C.2   422  PHE422      0.2264
    204  O          9.1770   14.0960  124.2830 O.2   422  PHE422     -0.2867
    205  CB         9.6030   17.2910  124.9170 C.3   422  PHE422      0.0534
    206  CG         9.3600   18.3560  123.8780 C.ar  422  PHE422     -0.0203
    207  CD1        8.2380   19.2230  123.9570 C.ar  422  PHE422     -0.0042
    208  CD2       10.1830   18.4640  122.7820 C.ar  422  PHE422     -0.0042
    209  CE1        7.9790   20.1320  122.9600 C.ar  422  PHE422     -0.0003
    210  CE2        9.9180   19.4380  121.7850 C.ar  422  PHE422     -0.0003
    211  CZ         8.8190   20.2250  121.8640 C.ar  422  PHE422     -0.0000
@<TRIPOS>BOND
     1    66    65    2
     2    65    64    1
     3    73    74    1
     4    64    63    1
     5    64    67    1
     6    74    77    1
     7    74    75    1
     8    78    79    1
     9    78    77    1
    10    78    80    1
    11    67    68    1
    12    91    90    1
    13    92    90    1
    14    81    82    1
    15     1     2    1
    16    75    76    2
    17    70    68   ar
    18    70    72   ar
    19    68    69   ar
    20    90    89    1
    21    82    83    1
    22    72    71   ar
    23    69    71   ar
    24   125   123   ar
    25   125   124   ar
    26     2     5    1
    27     2     3    1
    28   123   121   ar
    29    89    86    1
    30   124   122   ar
    31     5     6    1
    32    83    84    2
    33     3     4    2
    34    85    86    1
    35    86    87    1
    36   121   120   ar
    37   122   120   ar
    38   105   102    1
    39   133   131    1
    40     6     7   ar
    41     6     8   ar
    42   120   119    1
    43   132   131    1
    44   210   211   ar
    45   210   208   ar
    46   211   209   ar
    47     7     9   ar
    48    87    88    2
    49    87    93   am
    50   131   130    1
    51   208   206   ar
    52     8    11   ar
    53     8    10   ar
    54   102   101    1
    55   102   103    1
    56    62    60   ar
    57    62    61   ar
    58    11    13   ar
    59   209   207   ar
    60   119   116    1
    61    60    58   ar
    62    93    94    1
    63   130   127    1
    64     9    10   ar
    65   103   106   am
    66   103   104    2
    67    61    59   ar
    68   141   140    1
    69   126   127    1
    70   106   107    1
    71   206   207   ar
    72   206   205    1
    73    10    12   ar
    74    58    57   ar
    75    58    56   ar
    76   116   115    1
    77   116   117    1
    78    13    14   ar
    79   127   128    1
    80   204   203    2
    81    57    55   ar
    82    94    95    1
    83    94    97    1
    84   107   110    1
    85   107   108    1
    86    59    56   ar
    87   140   139    1
    88   110   111    1
    89    56    54   ar
    90   205   202    1
    91    95    96    2
    92   112   111    1
    93   112   113    1
    94   202   203    1
    95   202   201    1
    96    29    28    1
    97    97    98    1
    98    12    14   ar
    99   117   118    2
   100    55    54   ar
   101   128   129    2
   102    54    53    1
   103   113   114    1
   104   195   193    1
   105   108   109    2
   106    47    46    1
   107   139   138    1
   108    28    30    1
   109    28    27    1
   110    98    99    1
   111    98   100    1
   112    27    24    1
   113    53    50    1
   114   138   135    1
   115   191   190    2
   116   194   193    1
   117   193   192    1
   118    48    46    1
   119   192   189    1
   120    46    45    1
   121    45    42    1
   122   190   189    1
   123   190   196   am
   124   189   188    1
   125   134   135    1
   126   187   185   ar
   127   187   186   ar
   128    50    49    1
   129    50    51    1
   130    24    25    1
   131    24    23    1
   132   135   136    1
   133    26    25    2
   134   199   198    2
   135    44    43    2
   136    35    36    1
   137    35    32    1
   138   142   136   am
   139   142   143    1
   140   185   183   ar
   141   196   197    1
   142   197   198    1
   143   197   200    1
   144   136   137    2
   145    51    52    2
   146    34    33    2
   147    33    32    1
   148    36    38   ar
   149    36    37   ar
   150    38    40   ar
   151    42    43    1
   152    42    41    1
   153   186   184   ar
   154    23    17   am
   155   143   144    1
   156    22    20    1
   157    37    39   ar
   158    32    31    1
   159    40    39   ar
   160    20    19    1
   161   183   184   ar
   162   183   182    1
   163    17    18    2
   164    17    16    1
   165   181   180    2
   166   144   145    2
   167    19    16    1
   168    19    21    1
   169   179   182    1
   170   179   180    1
   171   179   178    1
   172   150   147    1
   173    16    15    1
   174   177   175    1
   175   169   168    1
   176   146   147    1
   177   147   148    1
   178   175   176    1
   179   175   174    1
   180   168   166   ar
   181   168   167   ar
   182   173   172    2
   183   166   164   ar
   184   148   149    2
   185   171   174    1
   186   171   172    1
   187   171   170    1
   188   167   165   ar
   189   164   163   ar
   190   165   163   ar
   191   163   162    1
   192   155   156    1
   193   155   157    1
   194   155   152    1
   195   158   159    1
   196   151   152    1
   197   159   162    1
   198   159   160    1
   199   152   153    1
   200   160   161    2
   201   153   154    2
