@<TRIPOS>MOLECULE
tmp/5v2cV28.pdb
 166 163 0 0 0
SMALL
GASTEIGER

@<TRIPOS>ATOM
      1  N          9.8530   35.9030  118.2310 N.3    48  TRP48      -0.1241
      2  CA         9.5180   35.9900  119.6290 C.3    48  TRP48       0.1605
      3  C         10.6440   36.6010  120.4510 C.2    48  TRP48       0.2264
      4  O         10.3800   37.5240  121.2040 O.2    48  TRP48      -0.2867
      5  CB         9.0740   34.6280  120.1980 C.3    48  TRP48       0.0550
      6  CG         8.7070   34.7490  121.6670 C.ar   48  TRP48       0.0003
      7  CD1        7.4910   35.0990  122.1780 C.ar   48  TRP48       0.0946
      8  CD2        9.5640   34.5340  122.7870 C.ar   48  TRP48       0.0152
      9  NE1        7.5390   35.1120  123.5370 N.ar   48  TRP48      -0.2442
     10  CE2        8.7940   34.7590  123.9470 C.ar   48  TRP48       0.0810
     11  CE3       10.8970   34.1370  122.9290 C.ar   48  TRP48       0.0012
     12  CZ2        9.3080   34.6120  125.2270 C.ar   48  TRP48       0.0191
     13  CZ3       11.4090   34.0210  124.2160 C.ar   48  TRP48       0.0001
     14  CH2       10.6220   34.2530  125.3370 C.ar   48  TRP48       0.0015
     15  N          9.5750   39.9800  122.0390 N.3    52  MET52      -0.1245
     16  CA         9.4190   39.8660  123.4680 C.3    52  MET52       0.1570
     17  C         10.4310   40.8150  124.1750 C.2    52  MET52       0.2261
     18  O         10.0890   41.4670  125.1790 O.2    52  MET52      -0.2867
     19  CB         9.5770   38.4210  123.9560 C.3    52  MET52       0.0387
     20  CG         9.1990   38.2530  125.4450 C.3    52  MET52       0.0595
     21  SD         7.4010   38.3390  125.6160 S.3    52  MET52      -0.1393
     22  CE         7.2440   39.7270  126.7360 C.3    52  MET52       0.0692
     23  N          9.1070   44.3420  123.9620 N.3    55  PHE55      -0.1227
     24  CA         8.0080   44.4670  124.9030 C.3    55  PHE55       0.1736
     25  C          8.5600   44.6320  126.3250 C.2    55  PHE55       0.2595
     26  O          8.1650   45.5630  127.0460 O.2    55  PHE55      -0.2718
     27  CB         7.0580   43.2600  124.7660 C.3    55  PHE55       0.0547
     28  CG         5.8900   43.2790  125.7080 C.ar   55  PHE55      -0.0202
     29  CD1        6.0550   42.9470  127.0680 C.ar   55  PHE55      -0.0042
     30  CD2        4.6140   43.5420  125.2260 C.ar   55  PHE55      -0.0042
     31  CE1        4.9420   42.9390  127.9080 C.ar   55  PHE55      -0.0003
     32  CE2        3.5140   43.5090  126.0410 C.ar   55  PHE55      -0.0003
     33  CZ         3.6820   43.2060  127.3990 C.ar   55  PHE55      -0.0000
     34  N          9.4740   43.7480  126.7180 N.am   56  GLU56      -0.1979
     35  CA        10.1090   43.8650  128.0040 C.3    56  GLU56       0.1602
     36  C         10.6820   45.3210  128.2210 C.2    56  GLU56       0.2287
     37  O         10.4080   45.9910  129.2240 O.2    56  GLU56      -0.2864
     38  CB        11.2000   42.7670  128.1550 C.3    56  GLU56       0.0415
     39  CG        10.6220   41.3710  128.4740 C.3    56  GLU56       0.1163
     40  CD        11.6870   40.3960  128.9750 C.2    56  GLU56       0.3649
     41  OE1       12.8400   40.8580  129.2610 O.co2  56  GLU56      -0.2457
     42  OE2       11.3700   39.1850  129.1380 O.co2  56  GLU56      -0.2457
     43  N          8.2330   48.0210  128.7090 N.3    59  HIS59      -0.1241
     44  CA         7.6720   47.9650  130.0310 C.3    59  HIS59       0.1621
     45  C          8.7030   48.0680  131.1610 C.2    59  HIS59       0.2264
     46  O          8.3410   47.9600  132.3030 O.2    59  HIS59      -0.2867
     47  CB         6.9130   46.6460  130.1680 C.3    59  HIS59       0.0745
     48  CG         5.7130   46.5690  129.2930 C.ar   59  HIS59       0.0817
     49  ND1        4.4440   46.4820  129.7980 N.ar   59  HIS59      -0.2268
     50  CD2        5.5750   46.6830  127.9520 C.ar   59  HIS59       0.1154
     51  CE1        3.5660   46.5040  128.8080 C.ar   59  HIS59       0.1986
     52  NE2        4.2300   46.6170  127.6770 N.ar   59  HIS59      -0.2212
     53  N          9.4110   42.8060  137.5280 N.3    69  GLN69      -0.1231
     54  CA         8.7750   43.3520  136.3370 C.3    69  GLN69       0.1698
     55  C          8.4670   42.2750  135.2710 C.2    69  GLN69       0.2593
     56  O          8.2160   42.5930  134.1450 O.2    69  GLN69      -0.2718
     57  CB         9.6980   44.4070  135.7740 C.3    69  GLN69       0.0381
     58  CG         9.9980   45.5420  136.7560 C.3    69  GLN69       0.0905
     59  CD        10.8440   46.6120  136.1060 C.2    69  GLN69       0.2608
     60  OE1       10.4140   47.2710  135.1440 O.2    69  GLN69      -0.2717
     61  NE2       12.0660   46.7630  136.5820 N.am   69  GLN69      -0.0878
     62  N          8.4550   41.0070  135.6560 N.am   70  GLY70      -0.1942
     63  CA         8.0290   39.9120  134.7580 C.3    70  GLY70       0.2014
     64  C          8.9220   39.7230  133.5560 C.2    70  GLY70       0.2639
     65  O          8.4430   39.3960  132.4950 O.2    70  GLY70      -0.2714
     66  N         10.2130   39.9880  133.7360 N.am   71  LEU71      -0.1963
     67  CA        11.2010   39.8690  132.6840 C.3    71  LEU71       0.1728
     68  C         11.9520   38.5330  132.7460 C.2    71  LEU71       0.2616
     69  O         12.4140   38.0640  133.8300 O.2    71  LEU71      -0.2715
     70  CB        12.2470   40.9840  132.7880 C.3    71  LEU71       0.0311
     71  CG        11.6010   42.3800  132.9610 C.3    71  LEU71       0.0022
     72  CD1       12.6400   43.4830  133.0210 C.3    71  LEU71       0.0001
     73  CD2       10.5870   42.6650  131.8690 C.3    71  LEU71       0.0001
     74  N         12.0990   37.9370  131.5740 N.am   72  ILE72      -0.1977
     75  CA        12.9360   36.7100  131.4010 C.3    72  ILE72       0.1596
     76  C         14.0190   36.8420  130.3490 C.2    72  ILE72       0.2287
     77  O         15.0490   36.1250  130.4490 O.2    72  ILE72      -0.2864
     78  CB        12.0860   35.4720  131.1070 C.3    72  ILE72       0.0276
     79  CG1       11.2260   35.6730  129.8660 C.3    72  ILE72       0.0022
     80  CG2       11.2170   35.1670  132.3250 C.3    72  ILE72       0.0022
     81  CD1       10.4000   34.4130  129.5180 C.3    72  ILE72       0.0001
     82  N         -1.0680   31.9550  140.3170 N.3   389  LEU389     -0.1245
     83  CA        -1.0770   31.9570  138.8540 C.3   389  LEU389      0.1561
     84  C         -1.4430   33.3390  138.2990 C.2   389  LEU389      0.2260
     85  O         -0.9700   33.7300  137.2170 O.2   389  LEU389     -0.2867
     86  CB        -2.0690   30.9320  138.3410 C.3   389  LEU389      0.0270
     87  CG        -2.1240   30.6660  136.8150 C.3   389  LEU389      0.0019
     88  CD1       -0.7380   30.3930  136.2200 C.3   389  LEU389      0.0001
     89  CD2       -3.1170   29.5220  136.4960 C.3   389  LEU389      0.0001
     90  N         -0.4360   36.0270  139.6280 N.3   391  SER391     -0.1217
     91  CA         0.6700   36.8640  140.0530 C.3   391  SER391      0.1889
     92  C          0.3820   37.7150  141.3410 C.2   391  SER391      0.2288
     93  O          0.7600   38.8990  141.4150 O.2   391  SER391     -0.2866
     94  CB         1.2120   37.6990  138.8690 C.3   391  SER391      0.2089
     95  OG         1.8250   36.8620  137.8620 O.3   391  SER391     -0.2183
     96  N         10.6060   35.2320  138.1530 N.3   407  PRO407     -0.2116
     97  CA        11.0730   34.6470  136.9040 C.3   407  PRO407      0.1372
     98  C         11.5430   33.1960  137.0740 C.2   407  PRO407      0.2244
     99  O         11.4310   32.4040  136.1240 O.2   407  PRO407     -0.2868
    100  CB        12.2830   35.5350  136.5380 C.3   407  PRO407      0.0268
    101  CG        11.9930   36.8410  137.1820 C.3   407  PRO407      0.0207
    102  CD        11.3170   36.5020  138.4640 C.3   407  PRO407      0.0892
    103  N          8.3680   31.1060  136.8730 N.3   410  TRP410     -0.1227
    104  CA         7.8690   31.0920  135.5050 C.3   410  TRP410      0.1737
    105  C          8.7230   30.1980  134.5850 C.2   410  TRP410      0.2595
    106  O          8.1780   29.4320  133.7740 O.2   410  TRP410     -0.2718
    107  CB         7.8230   32.5280  134.8840 C.3   410  TRP410      0.0564
    108  CG         6.7660   33.3640  135.3960 C.ar  410  TRP410      0.0003
    109  CD1        6.9230   34.5540  136.0090 C.ar  410  TRP410      0.0946
    110  CD2        5.3540   33.1360  135.3610 C.ar  410  TRP410      0.0152
    111  NE1        5.7370   35.0940  136.3250 N.ar  410  TRP410     -0.2442
    112  CE2        4.7440   34.2490  135.9820 C.ar  410  TRP410      0.0810
    113  CE3        4.5420   32.1200  134.8820 C.ar  410  TRP410      0.0012
    114  CZ2        3.3570   34.3710  136.1160 C.ar  410  TRP410      0.0191
    115  CZ3        3.1710   32.2330  135.0250 C.ar  410  TRP410      0.0001
    116  CH2        2.5900   33.3140  135.6310 C.ar  410  TRP410      0.0015
    117  N         10.0550   30.3130  134.7160 N.am  411  LEU411     -0.1980
    118  CA        10.9720   29.5820  133.8820 C.3   411  LEU411      0.1596
    119  C         11.0670   28.0890  134.2590 C.2   411  LEU411      0.2287
    120  O         11.1930   27.2250  133.3670 O.2   411  LEU411     -0.2864
    121  CB        12.3330   30.2430  133.9130 C.3   411  LEU411      0.0297
    122  CG        12.3820   31.5700  133.1730 C.3   411  LEU411      0.0022
    123  CD1       13.6770   32.3140  133.4600 C.3   411  LEU411      0.0001
    124  CD2       12.3080   31.3230  131.6780 C.3   411  LEU411      0.0001
    125  N          7.3030   26.4520  133.2520 N.3   414  SER414     -0.1202
    126  CA         7.1900   26.3470  131.8290 C.3   414  SER414      0.2020
    127  C          8.0500   25.2120  131.2880 C.2   414  SER414      0.2618
    128  O          7.5760   24.4070  130.4790 O.2   414  SER414     -0.2717
    129  CB         7.6280   27.6590  131.1310 C.3   414  SER414      0.2103
    130  OG         8.9160   28.0890  131.4930 O.3   414  SER414     -0.2182
    131  N          9.3170   25.1750  131.7050 N.am  415  HIS415     -0.1975
    132  CA        10.2150   24.2190  131.1290 C.3   415  HIS415      0.1656
    133  C          9.9370   22.8130  131.6240 C.2   415  HIS415      0.2291
    134  O         10.2180   21.8430  130.9040 O.2   415  HIS415     -0.2864
    135  CB        11.6810   24.6880  131.1780 C.3   415  HIS415      0.0771
    136  CG        11.9330   25.7530  130.1520 C.ar  415  HIS415      0.0820
    137  ND1       11.7670   27.1010  130.3950 N.ar  415  HIS415     -0.2267
    138  CD2       12.1850   25.6480  128.8250 C.ar  415  HIS415      0.1154
    139  CE1       11.9910   27.7810  129.2690 C.ar  415  HIS415      0.1986
    140  NE2       12.2610   26.9240  128.2990 N.ar  415  HIS415     -0.2212
    141  N          6.8200   21.6440  132.1080 N.3   417  VAL417     -0.1231
    142  CA         5.6780   21.3290  131.2890 C.3   417  VAL417      0.1692
    143  C          6.1210   20.8990  129.8900 C.2   417  VAL417      0.2591
    144  O          5.7030   19.8630  129.3560 O.2   417  VAL417     -0.2718
    145  CB         4.6580   22.4960  131.2200 C.3   417  VAL417      0.0266
    146  CG1        3.5780   22.1890  130.1780 C.3   417  VAL417      0.0020
    147  CG2        4.0270   22.7290  132.5850 C.3   417  VAL417      0.0020
    148  N          7.0170   21.6970  129.3290 N.am  418  LEU418     -0.1980
    149  CA         7.5240   21.4280  128.0140 C.3   418  LEU418      0.1596
    150  C          8.4010   20.1470  127.9880 C.2   418  LEU418      0.2287
    151  O          8.2560   19.3150  127.0920 O.2   418  LEU418     -0.2864
    152  CB         8.2750   22.6480  127.5060 C.3   418  LEU418      0.0297
    153  CG         7.3690   23.8670  127.2570 C.3   418  LEU418      0.0022
    154  CD1        8.2000   25.1070  127.2090 C.3   418  LEU418      0.0001
    155  CD2        6.4990   23.7240  125.9900 C.3   418  LEU418      0.0001
    156  N          5.9450   17.0790  128.1690 N.3   421  PHE421     -0.1241
    157  CA         5.2590   16.7560  126.9140 C.3   421  PHE421      0.1605
    158  C          6.2110   16.2580  125.8460 C.2   421  PHE421      0.2264
    159  O          5.8380   15.4380  125.0170 O.2   421  PHE421     -0.2867
    160  CB         4.4150   17.9080  126.3920 C.3   421  PHE421      0.0534
    161  CG         3.0570   18.0130  127.1040 C.ar  421  PHE421     -0.0203
    162  CD1        2.1970   16.9120  127.1530 C.ar  421  PHE421     -0.0042
    163  CD2        2.6780   19.1700  127.8030 C.ar  421  PHE421     -0.0042
    164  CE1        0.9560   16.9790  127.8200 C.ar  421  PHE421     -0.0003
    165  CE2        1.4400   19.2550  128.4310 C.ar  421  PHE421     -0.0003
    166  CZ         0.5790   18.1700  128.4540 C.ar  421  PHE421     -0.0000
@<TRIPOS>BOND
     1     1     2    1
     2     2     5    1
     3     2     3    1
     4     5     6    1
     5     3     4    2
     6     6     7   ar
     7     6     8   ar
     8    15    16    1
     9     7     9   ar
    10     8    11   ar
    11     8    10   ar
    12    11    13   ar
    13    16    19    1
    14    16    17    1
    15     9    10   ar
    16    10    12   ar
    17    19    20    1
    18    23    24    1
    19    17    18    2
    20    13    14   ar
    21    27    24    1
    22    27    28    1
    23    24    25    1
    24   159   158    2
    25    30    28   ar
    26    30    32   ar
    27    12    14   ar
    28    20    21    1
    29    21    22    1
    30    28    29   ar
    31   158   157    1
    32   155   153    1
    33    32    33   ar
    34    25    34   am
    35    25    26    2
    36   160   157    1
    37   160   161    1
    38    34    35    1
    39   157   156    1
    40    29    31   ar
    41   151   150    2
    42   161   162   ar
    43   161   163   ar
    44   162   164   ar
    45   154   153    1
    46   153   152    1
    47    33    31   ar
    48   152   149    1
    49    52    50   ar
    50    52    51   ar
    51   163   165   ar
    52   164   166   ar
    53    50    48   ar
    54   150   149    1
    55    35    38    1
    56    35    36    1
    57   149   148    1
    58    38    39    1
    59    36    37    2
    60   140   138   ar
    61   140   139   ar
    62   165   166   ar
    63    39    40    1
    64    43    44    1
    65    51    49   ar
    66   138   136   ar
    67    40    42   ar
    68    40    41   ar
    69   139   137   ar
    70    48    49   ar
    71    48    47    1
    72   148   143   am
    73   144   143    2
    74    81    79    1
    75    79    78    1
    76   143   142    1
    77    44    47    1
    78    44    45    1
    79   136   137   ar
    80   136   135    1
    81   146   145    1
    82    76    77    2
    83    76    75    1
    84   128   127    2
    85   134   133    2
    86    78    75    1
    87    78    80    1
    88   132   135    1
    89   132   133    1
    90   132   131    1
    91   129   130    1
    92   129   126    1
    93    45    46    2
    94   145   142    1
    95   145   147    1
    96   127   131   am
    97   127   126    1
    98   142   141    1
    99    75    74    1
   100    74    68   am
   101   124   122    1
   102   126   125    1
   103    73    71    1
   104    65    64    2
   105    67    68    1
   106    67    70    1
   107    67    66    1
   108    68    69    2
   109    70    71    1
   110    71    72    1
   111   122   123    1
   112   122   121    1
   113   120   119    2
   114    64    66   am
   115    64    63    1
   116   106   105    2
   117   118   121    1
   118   118   119    1
   119   118   117    1
   120    56    55    2
   121   105   117   am
   122   105   104    1
   123    63    62    1
   124   113   115   ar
   125   113   110   ar
   126   107   108    1
   127   107   104    1
   128   115   116   ar
   129    60    59    2
   130    55    62   am
   131    55    54    1
   132   110   108   ar
   133   110   112   ar
   134   108   109   ar
   135   104   103    1
   136   116   114   ar
   137    57    54    1
   138    57    58    1
   139   112   114   ar
   140   112   111   ar
   141   109   111   ar
   142    59    61   am
   143    59    58    1
   144    99    98    2
   145    88    87    1
   146    54    53    1
   147    89    87    1
   148   100    97    1
   149   100   101    1
   150    87    86    1
   151    97    98    1
   152    97    96    1
   153   101   102    1
   154    85    84    2
   155    95    94    1
   156    96   102    1
   157    84    83    1
   158    86    83    1
   159    83    82    1
   160    94    91    1
   161    90    91    1
   162    91    92    1
   163    92    93    2
