@<TRIPOS>MOLECULE
tmp/5v2cV30.pdb
 204 202 0 0 0
SMALL
GASTEIGER

@<TRIPOS>ATOM
      1  N         24.3550   11.6780  108.6290 N.3   143  THR143     -0.1218
      2  CA        25.4980   12.0510  109.5150 C.3   143  THR143      0.1862
      3  C         26.2350   13.2920  109.0330 C.2   143  THR143      0.2287
      4  O         26.7650   14.0750  109.8210 O.2   143  THR143     -0.2866
      5  CB        26.5030   10.8980  109.7940 C.3   143  THR143      0.1770
      6  OG1       26.9400   10.2690  108.5840 O.3   143  THR143     -0.2211
      7  CG2       25.8550    9.8630  110.7240 C.3   143  THR143      0.0375
      8  N         23.9110   16.2560  110.2060 N.3   146  LEU146     -0.1245
      9  CA        24.2290   16.2620  111.6120 C.3   146  LEU146      0.1561
     10  C         25.5490   16.9800  111.8970 C.2   146  LEU146      0.2260
     11  O         25.6230   17.8600  112.7730 O.2   146  LEU146     -0.2867
     12  CB        24.3040   14.8250  112.1410 C.3   146  LEU146      0.0270
     13  CG        24.7610   14.6200  113.5860 C.3   146  LEU146      0.0019
     14  CD1       23.9740   15.4110  114.5970 C.3   146  LEU146      0.0001
     15  CD2       24.7240   13.1580  113.9380 C.3   146  LEU146      0.0001
     16  N         26.4910   20.2040  114.0110 N.3   150  LEU150     -0.1245
     17  CA        27.3910   20.1390  115.1740 C.3   150  LEU150      0.1561
     18  C         28.4360   21.2500  115.1260 C.2   150  LEU150      0.2260
     19  O         28.7070   21.9050  116.1330 O.2   150  LEU150     -0.2867
     20  CB        28.0790   18.7880  115.2750 C.3   150  LEU150      0.0270
     21  CG        27.1900   17.7220  115.8810 C.3   150  LEU150      0.0019
     22  CD1       27.8270   16.3580  115.6530 C.3   150  LEU150      0.0001
     23  CD2       26.9530   17.9540  117.3820 C.3   150  LEU150      0.0001
     24  N         26.8170   24.5390  116.1020 N.3   153  LEU153     -0.1245
     25  CA        26.6570   24.6110  117.5560 C.3   153  LEU153      0.1561
     26  C         27.9920   24.8720  118.2900 C.2   153  LEU153      0.2260
     27  O         28.0170   25.6350  119.2650 O.2   153  LEU153     -0.2867
     28  CB        25.9740   23.3420  118.1060 C.3   153  LEU153      0.0270
     29  CG        24.5140   23.1930  117.6970 C.3   153  LEU153      0.0019
     30  CD1       23.9990   21.7770  117.9580 C.3   153  LEU153      0.0001
     31  CD2       23.6730   24.2160  118.4520 C.3   153  LEU153      0.0001
     32  N         30.3060   16.4680  135.2510 N.3   198  LEU198     -0.1231
     33  CA        29.4200   15.5020  134.5970 C.3   198  LEU198      0.1693
     34  C         29.3200   14.2010  135.3340 C.2   198  LEU198      0.2591
     35  O         28.3770   13.4720  135.1230 O.2   198  LEU198     -0.2718
     36  CB        29.9190   15.1830  133.2130 C.3   198  LEU198      0.0284
     37  CG        29.7600   16.1710  132.0930 C.3   198  LEU198      0.0019
     38  CD1       30.4140   15.5140  130.8670 C.3   198  LEU198      0.0001
     39  CD2       28.3030   16.4520  131.8230 C.3   198  LEU198      0.0001
     40  N         30.3060   13.8790  136.1690 N.am  199  LEU199     -0.1980
     41  CA        30.2200   12.7000  137.0170 C.3   199  LEU199      0.1596
     42  C         29.7640   12.9860  138.4760 C.2   199  LEU199      0.2287
     43  O         29.7140   12.0730  139.2630 O.2   199  LEU199     -0.2864
     44  CB        31.5730   12.0110  136.9980 C.3   199  LEU199      0.0297
     45  CG        32.0920   11.6570  135.5900 C.3   199  LEU199      0.0022
     46  CD1       33.3810   10.8660  135.7150 C.3   199  LEU199      0.0001
     47  CD2       31.0710   10.8770  134.7610 C.3   199  LEU199      0.0001
     48  N         25.2670   17.7850  140.3440 N.3   208  TRP208     -0.1241
     49  CA        25.6550   17.4920  138.9760 C.3   208  TRP208      0.1605
     50  C         26.1470   18.8300  138.3300 C.2   208  TRP208      0.2264
     51  O         26.8210   19.6510  139.0080 O.2   208  TRP208     -0.2867
     52  CB        24.4500   16.8540  138.2480 C.3   208  TRP208      0.0550
     53  CG        24.8470   16.1990  136.9120 C.ar  208  TRP208      0.0003
     54  CD1       25.9710   15.4390  136.6650 C.ar  208  TRP208      0.0946
     55  CD2       24.1900   16.3700  135.6520 C.ar  208  TRP208      0.0152
     56  NE1       26.0070   15.0970  135.3430 N.ar  208  TRP208     -0.2442
     57  CE2       24.9280   15.6440  134.6990 C.ar  208  TRP208      0.0810
     58  CE3       23.0200   17.0550  135.2430 C.ar  208  TRP208      0.0012
     59  CZ2       24.5580   15.5670  133.3620 C.ar  208  TRP208      0.0191
     60  CZ3       22.6430   16.9950  133.9090 C.ar  208  TRP208      0.0001
     61  CH2       23.4090   16.2340  132.9760 C.ar  208  TRP208      0.0015
     62  N         34.6350   19.9860  121.1480 N.3   228  ILE228     -0.1231
     63  CA        33.9870   18.7130  121.0540 C.3   228  ILE228      0.1692
     64  C         33.0050   18.6600  119.8900 C.2   228  ILE228      0.2592
     65  O         33.0560   17.7240  119.0970 O.2   228  ILE228     -0.2718
     66  CB        33.3100   18.3210  122.3710 C.3   228  ILE228      0.0266
     67  CG1       34.3880   17.8290  123.3400 C.3   228  ILE228      0.0019
     68  CG2       32.2880   17.2070  122.1680 C.3   228  ILE228      0.0020
     69  CD1       33.8950   17.8210  124.7720 C.3   228  ILE228      0.0001
     70  N         32.1420   19.6600  119.7900 N.am  229  CYS229     -0.1970
     71  CA        31.1340   19.7190  118.7500 C.3   229  CYS229      0.1712
     72  C         31.7200   19.9020  117.3370 C.2   229  CYS229      0.2296
     73  O         31.2540   19.2560  116.3950 O.2   229  CYS229     -0.2864
     74  CB        30.1440   20.8470  119.0700 C.3   229  CYS229      0.0983
     75  SG        28.9780   20.4350  120.3620 S.3   229  CYS229     -0.0798
     76  N         34.8600   19.0320  116.4260 N.3   231  ALA231     -0.1231
     77  CA        35.5030   17.7500  116.0950 C.3   231  ALA231      0.1694
     78  C         34.4780   16.6590  115.7390 C.2   231  ALA231      0.2592
     79  O         34.6310   15.9510  114.7380 O.2   231  ALA231     -0.2718
     80  CB        36.4160   17.2900  117.2000 C.3   231  ALA231      0.0304
     81  N         33.4350   16.5350  116.5310 N.am  232  GLY232     -0.1957
     82  CA        32.3420   15.5880  116.2270 C.3   232  GLY232      0.1869
     83  C         31.6480   15.8080  114.8930 C.2   232  GLY232      0.2309
     84  O         31.2750   14.8740  114.2010 O.2   232  GLY232     -0.2863
     85  N         34.0790   14.5850  112.3050 N.3   235  TRP235     -0.1227
     86  CA        33.9570   13.1520  112.3530 C.3   235  TRP235      0.1737
     87  C         32.7470   12.6740  111.5630 C.2   235  TRP235      0.2595
     88  O         32.8870   11.7950  110.7120 O.2   235  TRP235     -0.2718
     89  CB        33.8430   12.6990  113.8080 C.3   235  TRP235      0.0564
     90  CG        33.3910   11.2860  114.0300 C.ar  235  TRP235      0.0003
     91  CD1       32.1400   10.8830  114.3710 C.ar  235  TRP235      0.0946
     92  CD2       34.1990   10.1060  113.9790 C.ar  235  TRP235      0.0152
     93  NE1       32.1120    9.5090  114.5260 N.ar  235  TRP235     -0.2442
     94  CE2       33.3690    9.0160  114.3010 C.ar  235  TRP235      0.0810
     95  CE3       35.5510    9.8700  113.6980 C.ar  235  TRP235      0.0012
     96  CZ2       33.8330    7.7150  114.3350 C.ar  235  TRP235      0.0191
     97  CZ3       36.0250    8.5950  113.7250 C.ar  235  TRP235      0.0001
     98  CH2       35.1730    7.5190  114.0560 C.ar  235  TRP235      0.0015
     99  N         31.5570   13.2450  111.8470 N.am  236  HIS236     -0.1975
    100  CA        30.3240   12.7720  111.2110 C.3   236  HIS236      0.1656
    101  C         30.2240   13.0630  109.6620 C.2   236  HIS236      0.2291
    102  O         29.5380   12.3420  108.9130 O.2   236  HIS236     -0.2864
    103  CB        29.0660   13.1710  112.0320 C.3   236  HIS236      0.0771
    104  CG        28.8470   12.3090  113.2550 C.ar  236  HIS236      0.0820
    105  ND1       28.7310   10.9410  113.1720 N.ar  236  HIS236     -0.2267
    106  CD2       28.7550   12.6080  114.5820 C.ar  236  HIS236      0.1154
    107  CE1       28.5640   10.4290  114.3880 C.ar  236  HIS236      0.1986
    108  NE2       28.5350   11.4190  115.2740 N.ar  236  HIS236     -0.2212
    109  N         32.7060   10.2500  108.1710 N.3   239  THR239     -0.1203
    110  CA        32.4060    8.8230  108.4310 C.3   239  THR239      0.1994
    111  C         30.9890    8.4730  108.1510 C.2   239  THR239      0.2619
    112  O         30.1370    9.3220  107.9420 O.2   239  THR239     -0.2717
    113  CB        32.6620    8.4440  109.9280 C.3   239  THR239      0.1784
    114  OG1       31.8650    9.2620  110.8130 O.3   239  THR239     -0.2211
    115  CG2       34.1270    8.5530  110.2660 C.3   239  THR239      0.0376
    116  N         30.7240    7.1890  108.1840 N.am  240  THR240     -0.1939
    117  CA        29.3260    6.7040  108.1110 C.3   240  THR240      0.2013
    118  C         29.0760    5.7540  109.3370 C.2   240  THR240      0.2484
    119  O         30.0150    5.2260  109.8970 O.2   240  THR240     -0.2729
    120  CB        29.0340    6.0530  106.7460 C.3   240  THR240      0.1807
    121  OG1       27.6000    5.9170  106.5680 O.3   240  THR240     -0.2208
    122  CG2       29.6870    4.6740  106.6680 C.3   240  THR240      0.0379
    123  N         27.8200    5.5590  109.7620 N.am  241  PRO241     -0.2715
    124  CA        27.6540    4.7790  110.9850 C.3   241  PRO241      0.1536
    125  C         28.1920    3.3300  110.9490 C.2   241  PRO241      0.2598
    126  O         27.9990    2.6030  109.9910 O.2   241  PRO241     -0.2715
    127  CB        26.1400    4.8090  111.1870 C.3   241  PRO241      0.0310
    128  CG        25.7460    6.1290  110.6680 C.3   241  PRO241      0.0237
    129  CD        26.5790    6.2900  109.4370 C.3   241  PRO241      0.0939
    130  N         28.8810    2.9340  112.0070 N.am  242  PHE242     -0.1974
    131  CA        29.3850    1.5880  112.1440 C.3   242  PHE242      0.1639
    132  C         28.2600    0.5850  112.2590 C.2   242  PHE242      0.2290
    133  O         27.0890    0.9430  112.5990 O.2   242  PHE242     -0.2864
    134  CB        30.2860    1.4900  113.3700 C.3   242  PHE242      0.0560
    135  CG        31.5200    2.3560  113.2830 C.ar  242  PHE242     -0.0200
    136  CD1       32.3000    2.3560  112.1290 C.ar  242  PHE242     -0.0042
    137  CD2       31.8950    3.2000  114.3530 C.ar  242  PHE242     -0.0042
    138  CE1       33.4170    3.1640  112.0430 C.ar  242  PHE242     -0.0003
    139  CE2       33.0130    3.9960  114.2700 C.ar  242  PHE242     -0.0003
    140  CZ        33.7690    3.9860  113.1150 C.ar  242  PHE242     -0.0000
    141  N         27.5850   -1.7500  114.4440 N.3   244  TRP244     -0.1227
    142  CA        26.8850   -1.8420  115.7250 C.3   244  TRP244      0.1737
    143  C         25.7960   -0.7680  115.8490 C.2   244  TRP244      0.2595
    144  O         24.6860   -1.0220  116.3810 O.2   244  TRP244     -0.2718
    145  CB        27.8580   -1.8190  116.9020 C.3   244  TRP244      0.0564
    146  CG        28.6650   -0.5810  117.0590 C.ar  244  TRP244      0.0003
    147  CD1       29.9660   -0.3680  116.6290 C.ar  244  TRP244      0.0946
    148  CD2       28.2700    0.6210  117.7390 C.ar  244  TRP244      0.0152
    149  NE1       30.3700    0.9000  116.9790 N.ar  244  TRP244     -0.2442
    150  CE2       29.3620    1.5250  117.6630 C.ar  244  TRP244      0.0810
    151  CE3       27.1020    1.0250  118.4040 C.ar  244  TRP244      0.0012
    152  CZ2       29.3230    2.8110  118.2500 C.ar  244  TRP244      0.0191
    153  CZ3       27.0730    2.3080  118.9860 C.ar  244  TRP244      0.0001
    154  CH2       28.1590    3.1770  118.8770 C.ar  244  TRP244      0.0015
    155  N         26.0990    0.4330  115.3490 N.am  245  ALA245     -0.1980
    156  CA        25.1160    1.5160  115.3460 C.3   245  ALA245      0.1597
    157  C         23.9950    1.2380  114.3180 C.2   245  ALA245      0.2287
    158  O         22.8040    1.4010  114.6210 O.2   245  ALA245     -0.2864
    159  CB        25.7880    2.8560  115.1040 C.3   245  ALA245      0.0319
    160  N         19.7810    1.1250  115.9040 N.3   249  PHE249     -0.1241
    161  CA        18.8050    2.1790  115.6870 C.3   249  PHE249      0.1605
    162  C         17.8050    1.9010  114.6050 C.2   249  PHE249      0.2264
    163  O         17.9940    1.0270  113.7640 O.2   249  PHE249     -0.2867
    164  CB        19.5400    3.4890  115.3580 C.3   249  PHE249      0.0534
    165  CG        20.3540    4.0200  116.4800 C.ar  249  PHE249     -0.0203
    166  CD1       19.7500    4.7400  117.5120 C.ar  249  PHE249     -0.0042
    167  CD2       21.7260    3.8180  116.5310 C.ar  249  PHE249     -0.0042
    168  CE1       20.5040    5.2380  118.5870 C.ar  249  PHE249     -0.0003
    169  CE2       22.4890    4.2950  117.6260 C.ar  249  PHE249     -0.0003
    170  CZ        21.8620    5.0160  118.6550 C.ar  249  PHE249     -0.0000
    171  N         16.1390    3.7330  111.3940 N.3   251  TRP251     -0.1241
    172  CA        16.6650    4.7180  110.4490 C.3   251  TRP251      0.1605
    173  C         15.5080    5.2540  109.6130 C.2   251  TRP251      0.2264
    174  O         15.2010    4.7500  108.5500 O.2   251  TRP251     -0.2867
    175  CB        17.7560    4.0800  109.6030 C.3   251  TRP251      0.0550
    176  CG        18.8860    3.5480  110.4560 C.ar  251  TRP251      0.0003
    177  CD1       18.9580    2.3310  111.0220 C.ar  251  TRP251      0.0946
    178  CD2       20.0730    4.2540  110.8560 C.ar  251  TRP251      0.0152
    179  NE1       20.1260    2.2070  111.7620 N.ar  251  TRP251     -0.2442
    180  CE2       20.8290    3.3790  111.6720 C.ar  251  TRP251      0.0810
    181  CE3       20.5840    5.5310  110.5920 C.ar  251  TRP251      0.0012
    182  CZ2       22.0760    3.7400  112.2160 C.ar  251  TRP251      0.0191
    183  CZ3       21.8490    5.8880  111.1250 C.ar  251  TRP251      0.0001
    184  CH2       22.5630    5.0010  111.9390 C.ar  251  TRP251      0.0015
    185  N         14.4060   10.7030  118.5770 N.3   259  TYR259     -0.1241
    186  CA        15.6110   10.7720  119.3560 C.3   259  TYR259      0.1605
    187  C         15.7980   12.2180  119.8560 C.2   259  TYR259      0.2264
    188  O         16.1390   12.4210  121.0220 O.2   259  TYR259     -0.2867
    189  CB        16.8880   10.2880  118.6230 C.3   259  TYR259      0.0534
    190  CG        16.7540    8.9570  117.9130 C.ar  259  TYR259     -0.0201
    191  CD1       16.0070    7.9140  118.4550 C.ar  259  TYR259     -0.0009
    192  CD2       17.3010    8.7840  116.6500 C.ar  259  TYR259     -0.0009
    193  CE1       15.8620    6.7190  117.7840 C.ar  259  TYR259      0.0417
    194  CE2       17.1800    7.5750  115.9720 C.ar  259  TYR259      0.0417
    195  CZ        16.4720    6.5310  116.5500 C.ar  259  TYR259      0.1957
    196  OH        16.3310    5.3660  115.8560 O.3   259  TYR259     -0.2866
    197  N         15.0870   15.8650  128.0820 N.3   266  MET266     -0.1245
    198  CA        16.0970   15.8220  129.0820 C.3   266  MET266      0.1570
    199  C         16.6680   17.2520  129.3500 C.2   266  MET266      0.2261
    200  O         16.7890   17.6840  130.4730 O.2   266  MET266     -0.2867
    201  CB        17.1470   14.7840  128.6440 C.3   266  MET266      0.0387
    202  CG        18.4170   14.7230  129.4350 C.3   266  MET266      0.0595
    203  SD        19.6520   13.5160  128.8040 S.3   266  MET266     -0.1393
    204  CE        18.6830   12.0320  129.0130 C.3   266  MET266      0.0692
@<TRIPOS>BOND
     1   121   120    1
     2   122   120    1
     3   120   117    1
     4   112   111    2
     5   117   116    1
     6   117   118    1
     7   111   116   am
     8   111   110    1
     9   109   110    1
    10   110   113    1
    11   174   173    2
    12     6     5    1
    13     1     2    1
    14   102   101    2
    15     3     2    1
    16     3     4    2
    17   118   123   am
    18   118   119    2
    19   129   123    1
    20   129   128    1
    21     2     5    1
    22   175   172    1
    23   175   176    1
    24   173   172    1
    25   101   100    1
    26   123   124    1
    27     5     7    1
    28   113   115    1
    29   113   114    1
    30   126   125    2
    31     8     9    1
    32   172   171    1
    33   176   178   ar
    34   176   177   ar
    35   181   178   ar
    36   181   183   ar
    37   128   127    1
    38    88    87    2
    39   178   180   ar
    40   125   124    1
    41   125   130   am
    42   124   127    1
    43   177   179   ar
    44   183   184   ar
    45   100    99    1
    46   100   103    1
    47    87    99   am
    48    87    86    1
    49     9    10    1
    50     9    12    1
    51   180   179   ar
    52   180   182   ar
    53    10    11    2
    54   184   182   ar
    55   130   131    1
    56   103   104    1
    57   138   136   ar
    58   138   140   ar
    59   136   135   ar
    60    12    13    1
    61   131   132    1
    62   131   134    1
    63   132   133    2
    64    85    86    1
    65    86    89    1
    66   140   139   ar
    67   105   104   ar
    68   105   107   ar
    69   104   106   ar
    70   135   134    1
    71   135   137   ar
    72    13    15    1
    73    13    14    1
    74    95    97   ar
    75    95    92   ar
    76    97    98   ar
    77   163   162    2
    78    89    90    1
    79    92    90   ar
    80    92    94   ar
    81    16    17    1
    82    90    91   ar
    83    98    96   ar
    84    84    83    2
    85   139   137   ar
    86    94    96   ar
    87    94    93   ar
    88   157   158    2
    89   157   156    1
    90    91    93   ar
    91   107   108   ar
    92   141   142    1
    93   106   108   ar
    94   162   161    1
    95    79    78    2
    96    83    82    1
    97   159   156    1
    98    18    17    1
    99    18    19    2
   100    17    20    1
   101    20    21    1
   102   156   155    1
   103   155   143   am
   104   164   161    1
   105   164   165    1
   106    22    21    1
   107   161   160    1
   108   142   143    1
   109   142   145    1
   110    78    77    1
   111    78    81   am
   112   143   144    2
   113   196   195    1
   114    21    23    1
   115   194   195   ar
   116   194   192   ar
   117    77    76    1
   118    77    80    1
   119    24    25    1
   120    82    81    1
   121    73    72    2
   122   165   167   ar
   123   165   166   ar
   124   167   169   ar
   125   195   193   ar
   126   147   149   ar
   127   147   146   ar
   128   192   190   ar
   129   145   146    1
   130   149   150   ar
   131   146   148   ar
   132    72    71    1
   133   166   168   ar
   134    25    28    1
   135    25    26    1
   136   169   170   ar
   137   150   148   ar
   138   150   152   ar
   139    29    30    1
   140    29    28    1
   141    29    31    1
   142   148   151   ar
   143   193   191   ar
   144   190   191   ar
   145   190   189    1
   146   152   154   ar
   147    26    27    2
   148   151   153   ar
   149   185   186    1
   150   168   170   ar
   151   189   186    1
   152    71    74    1
   153    71    70    1
   154   154   153   ar
   155    74    75    1
   156    65    64    2
   157   186   187    1
   158    70    64   am
   159   187   188    2
   160    64    63    1
   161    63    62    1
   162    63    66    1
   163    68    66    1
   164    66    67    1
   165    67    69    1
   166   197   198    1
   167   201   198    1
   168   201   202    1
   169   203   204    1
   170   203   202    1
   171   198   199    1
   172   199   200    2
   173    38    37    1
   174    39    37    1
   175    37    36    1
   176    61    59   ar
   177    61    60   ar
   178    36    33    1
   179    59    57   ar
   180    60    58   ar
   181    33    32    1
   182    33    34    1
   183    57    56   ar
   184    57    55   ar
   185    47    45    1
   186    35    34    2
   187    58    55   ar
   188    34    40   am
   189    56    54   ar
   190    45    46    1
   191    45    44    1
   192    55    53   ar
   193    40    41    1
   194    54    53   ar
   195    53    52    1
   196    44    41    1
   197    41    42    1
   198    52    49    1
   199    50    49    1
   200    50    51    2
   201    42    43    2
   202    49    48    1
