@<TRIPOS>MOLECULE
tmp/5v2cU07.pdb
 96 95 0 0 0
SMALL
GASTEIGER

@<TRIPOS>ATOM
      1  N        -32.4580  -17.1260  143.7090 N.3     8  HIS8       -0.1241
      2  CA       -33.8260  -17.0930  144.1950 C.3     8  HIS8        0.1621
      3  C        -34.8620  -16.9440  143.1080 C.2     8  HIS8        0.2264
      4  O        -36.0990  -17.0570  143.3560 O.2     8  HIS8       -0.2867
      5  CB       -33.9270  -16.0570  145.2930 C.3     8  HIS8        0.0745
      6  CG       -33.0900  -16.3950  146.5250 C.ar    8  HIS8        0.0817
      7  ND1      -32.6860  -15.4390  147.4270 N.ar    8  HIS8       -0.2268
      8  CD2      -32.5900  -17.5830  147.0040 C.ar    8  HIS8        0.1154
      9  CE1      -31.9820  -16.0110  148.4080 C.ar    8  HIS8        0.1986
     10  NE2      -31.9470  -17.3240  148.2100 N.ar    8  HIS8       -0.2212
     11  N        -38.5870  -15.9800  155.7840 N.3    25  HIS25      -0.1241
     12  CA       -38.1580  -14.6060  156.0430 C.3    25  HIS25       0.1621
     13  C        -38.9150  -14.0770  157.2630 C.2    25  HIS25       0.2264
     14  O        -38.2990  -13.4680  158.1430 O.2    25  HIS25      -0.2867
     15  CB       -38.3180  -13.6750  154.7980 C.3    25  HIS25       0.0745
     16  CG       -37.7810  -12.2730  154.9990 C.ar   25  HIS25       0.0817
     17  ND1      -38.5930  -11.2210  155.4000 N.ar   25  HIS25      -0.2268
     18  CD2      -36.5140  -11.7640  154.8930 C.ar   25  HIS25       0.1154
     19  CE1      -37.8480  -10.1120  155.5040 C.ar   25  HIS25       0.1986
     20  NE2      -36.5650  -10.4070  155.2320 N.ar   25  HIS25      -0.2212
     21  N        -37.5790  -15.5730  160.3880 N.3    28  LEU28      -0.1231
     22  CA       -36.2940  -14.9850  160.7240 C.3    28  LEU28       0.1693
     23  C        -36.4680  -13.6230  161.3940 C.2    28  LEU28       0.2591
     24  O        -35.8060  -13.3370  162.3600 O.2    28  LEU28      -0.2718
     25  CB       -35.4320  -14.8680  159.5130 C.3    28  LEU28       0.0284
     26  CG       -34.7910  -16.2050  159.0900 C.3    28  LEU28       0.0019
     27  CD1      -34.3870  -16.1660  157.5920 C.3    28  LEU28       0.0001
     28  CD2      -33.5820  -16.6310  159.9680 C.3    28  LEU28       0.0001
     29  N        -37.3610  -12.8130  160.8440 N.am   29  VAL29      -0.1980
     30  CA       -37.5860  -11.4600  161.3610 C.3    29  VAL29       0.1595
     31  C        -38.2050  -11.4830  162.7520 C.2    29  VAL29       0.2287
     32  O        -37.7700  -10.7620  163.6450 O.2    29  VAL29      -0.2864
     33  CB       -38.3970  -10.6000  160.3830 C.3    29  VAL29       0.0276
     34  CG1      -38.6570   -9.2110  160.9620 C.3    29  VAL29       0.0022
     35  CG2      -37.6430  -10.4380  159.0740 C.3    29  VAL29       0.0022
     36  N        -35.5780  -12.5950  165.1560 N.3    32  TRP32      -0.1241
     37  CA       -34.7320  -11.4830  165.4480 C.3    32  TRP32       0.1605
     38  C        -35.3750  -10.6020  166.5440 C.2    32  TRP32       0.2264
     39  O        -34.7150  -10.2600  167.5190 O.2    32  TRP32      -0.2867
     40  CB       -34.4140  -10.6400  164.1810 C.3    32  TRP32       0.0550
     41  CG       -33.6180   -9.4740  164.5550 C.ar   32  TRP32       0.0003
     42  CD1      -32.2320   -9.4380  164.7210 C.ar   32  TRP32       0.0946
     43  CD2      -34.1050   -8.1860  164.9720 C.ar   32  TRP32       0.0152
     44  NE1      -31.8680   -8.1690  165.1890 N.ar   32  TRP32      -0.2442
     45  CE2      -32.9740   -7.3920  165.3160 C.ar   32  TRP32       0.0810
     46  CE3      -35.3700   -7.5830  164.9920 C.ar   32  TRP32       0.0012
     47  CZ2      -33.0960   -6.0550  165.7340 C.ar   32  TRP32       0.0191
     48  CZ3      -35.4680   -6.2590  165.4410 C.ar   32  TRP32       0.0001
     49  CH2      -34.3690   -5.5420  165.8140 C.ar   32  TRP32       0.0015
     50  N        -42.0410    0.9550  150.0110 N.3   244  VAL244     -0.1245
     51  CA       -41.2260    0.7070  151.1750 C.3   244  VAL244      0.1561
     52  C        -40.1150    1.7380  151.3130 C.2   244  VAL244      0.2260
     53  O        -39.8490    2.1720  152.4410 O.2   244  VAL244     -0.2867
     54  CB       -40.7060   -0.7640  151.1070 C.3   244  VAL244      0.0252
     55  CG1      -39.5470   -0.9920  152.0210 C.3   244  VAL244      0.0019
     56  CG2      -41.8800   -1.7350  151.3870 C.3   244  VAL244      0.0019
     57  N        -30.9540    2.3600  154.1760 N.3   457  PHE457     -0.1241
     58  CA       -31.7180    1.2970  153.5680 C.3   457  PHE457      0.1605
     59  C        -32.7190    1.8820  152.5370 C.2   457  PHE457      0.2264
     60  O        -32.9020    1.3340  151.4470 O.2   457  PHE457     -0.2867
     61  CB       -32.4310    0.4690  154.6240 C.3   457  PHE457      0.0534
     62  CG       -31.5330   -0.4370  155.4630 C.ar  457  PHE457     -0.0203
     63  CD1      -30.3450   -0.9310  155.0100 C.ar  457  PHE457     -0.0042
     64  CD2      -31.9380   -0.8070  156.7250 C.ar  457  PHE457     -0.0042
     65  CE1      -29.5580   -1.7790  155.8180 C.ar  457  PHE457     -0.0003
     66  CE2      -31.1760   -1.6420  157.5300 C.ar  457  PHE457     -0.0003
     67  CZ       -29.9760   -2.1290  157.0710 C.ar  457  PHE457     -0.0000
     68  N        -30.7220    2.5880  149.3140 N.3   460  LEU460     -0.1231
     69  CA       -30.4520    1.3330  148.6420 C.3   460  LEU460      0.1693
     70  C        -31.6930    0.7430  148.0060 C.2   460  LEU460      0.2592
     71  O        -31.6280    0.1870  146.9120 O.2   460  LEU460     -0.2718
     72  CB       -29.8750    0.3230  149.6170 C.3   460  LEU460      0.0284
     73  CG       -28.4920    0.7110  150.1150 C.3   460  LEU460      0.0019
     74  CD1      -28.0600   -0.2380  151.2060 C.3   460  LEU460      0.0001
     75  CD2      -27.4880    0.7290  148.9690 C.3   460  LEU460      0.0001
     76  N        -32.8200    0.8890  148.6680 N.am  461  PHE461     -0.1976
     77  CA       -34.1040    0.4090  148.1350 C.3   461  PHE461      0.1639
     78  C        -34.5420    1.1320  146.8930 C.2   461  PHE461      0.2290
     79  O        -35.2680    0.5490  146.0530 O.2   461  PHE461     -0.2864
     80  CB       -35.1640    0.3040  149.2120 C.3   461  PHE461      0.0560
     81  CG       -35.1910   -1.0500  149.8680 C.ar  461  PHE461     -0.0200
     82  CD1      -34.1050   -1.5120  150.5540 C.ar  461  PHE461     -0.0042
     83  CD2      -36.3140   -1.8420  149.8250 C.ar  461  PHE461     -0.0042
     84  CE1      -34.1030   -2.7600  151.1560 C.ar  461  PHE461     -0.0003
     85  CE2      -36.2950   -3.1210  150.4380 C.ar  461  PHE461     -0.0003
     86  CZ       -35.1910   -3.5910  151.0700 C.ar  461  PHE461     -0.0000
     87  N        -35.6980   -3.6180  139.5900 N.3   468  HIS468     -0.1241
     88  CA       -36.8560   -4.5400  139.3760 C.3   468  HIS468      0.1621
     89  C        -37.9190   -3.9210  138.4530 C.2   468  HIS468      0.2264
     90  O        -38.5350   -4.6130  137.6880 O.2   468  HIS468     -0.2867
     91  CB       -37.3930   -5.0610  140.7270 C.3   468  HIS468      0.0745
     92  CG       -36.4460   -5.9790  141.4360 C.ar  468  HIS468      0.0817
     93  ND1      -36.1850   -7.2590  140.9840 N.ar  468  HIS468     -0.2268
     94  CD2      -35.7320   -5.8280  142.5930 C.ar  468  HIS468      0.1154
     95  CE1      -35.3270   -7.8500  141.8220 C.ar  468  HIS468      0.1986
     96  NE2      -35.0160   -7.0070  142.8060 N.ar  468  HIS468     -0.2212
@<TRIPOS>BOND
     1    90    89    2
     2    89    88    1
     3    88    87    1
     4    88    91    1
     5    91    92    1
     6    93    92   ar
     7    93    95   ar
     8    92    94   ar
     9    95    96   ar
    10    94    96   ar
    11     3     4    2
    12     3     2    1
    13     1     2    1
    14     2     5    1
    15     5     6    1
    16    79    78    2
    17     6     8   ar
    18     6     7   ar
    19    78    77    1
    20    71    70    2
    21     8    10   ar
    22     7     9   ar
    23    70    69    1
    24    70    76   am
    25    77    76    1
    26    77    80    1
    27    10     9   ar
    28    69    68    1
    29    69    72    1
    30    75    73    1
    31    80    81    1
    32    72    73    1
    33    83    81   ar
    34    83    85   ar
    35    81    82   ar
    36    50    51    1
    37    73    74    1
    38    85    86   ar
    39    82    84   ar
    40    86    84   ar
    41    54    51    1
    42    54    56    1
    43    54    55    1
    44    51    52    1
    45    52    53    2
    46    60    59    2
    47    59    58    1
    48    58    57    1
    49    58    61    1
    50    61    62    1
    51    15    16    1
    52    15    12    1
    53    18    16   ar
    54    18    20   ar
    55    16    17   ar
    56    63    62   ar
    57    63    65   ar
    58    20    19   ar
    59    17    19   ar
    60    62    64   ar
    61    11    12    1
    62    65    67   ar
    63    12    13    1
    64    64    66   ar
    65    67    66   ar
    66    13    14    2
    67    27    26    1
    68    35    33    1
    69    26    25    1
    70    26    28    1
    71    25    22    1
    72    33    34    1
    73    33    30    1
    74    21    22    1
    75    22    23    1
    76    29    30    1
    77    29    23   am
    78    30    31    1
    79    23    24    2
    80    31    32    2
    81    40    41    1
    82    40    37    1
    83    41    42   ar
    84    41    43   ar
    85    42    44   ar
    86    43    46   ar
    87    43    45   ar
    88    46    48   ar
    89    36    37    1
    90    44    45   ar
    91    45    47   ar
    92    48    49   ar
    93    37    38    1
    94    47    49   ar
    95    38    39    2
