@<TRIPOS>MOLECULE
tmp/5v2cS04.pdb
 90 85 0 0 0
SMALL
GASTEIGER

@<TRIPOS>ATOM
      1  N        -36.4070  -90.0240  206.2370 N.3    18  VAL18      -0.1231
      2  CA       -36.6840  -91.2220  205.4630 C.3    18  VAL18       0.1692
      3  C        -37.7200  -90.9090  204.3930 C.2    18  VAL18       0.2591
      4  O        -37.5260  -91.3020  203.2410 O.2    18  VAL18      -0.2718
      5  CB       -37.1800  -92.3450  206.3950 C.3    18  VAL18       0.0266
      6  CG1      -37.8630  -93.4290  205.5990 C.3    18  VAL18       0.0020
      7  CG2      -36.0280  -92.9100  207.1840 C.3    18  VAL18       0.0020
      8  N        -38.8000  -90.2070  204.7850 N.am   19  MET19      -0.1979
      9  CA       -39.8760  -89.8160  203.8990 C.3    19  MET19       0.1605
     10  C        -39.3780  -88.8240  202.8260 C.2    19  MET19       0.2287
     11  O        -39.7910  -88.8990  201.6530 O.2    19  MET19      -0.2864
     12  CB       -41.0050  -89.1230  204.6840 C.3    19  MET19       0.0413
     13  CG       -41.7290  -89.9610  205.7520 C.3    19  MET19       0.0598
     14  SD       -42.8530  -91.0850  204.9860 S.3    19  MET19      -0.1393
     15  CE       -44.2330  -90.0520  204.5150 C.3    19  MET19       0.0692
     16  N        -37.5590  -91.0730  200.4610 N.3    22  GLY22      -0.1210
     17  CA       -38.3640  -92.1880  199.9940 C.3    22  GLY22       0.1956
     18  C        -39.5770  -91.8640  199.1780 C.2    22  GLY22       0.2611
     19  O        -39.8840  -92.6090  198.2470 O.2    22  GLY22      -0.2717
     20  N        -40.2780  -90.7740  199.5190 N.am   23  VAL23      -0.1979
     21  CA       -41.5480  -90.4570  198.8300 C.3    23  VAL23       0.1595
     22  C        -41.2960  -90.1060  197.3620 C.2    23  VAL23       0.2287
     23  O        -41.9260  -90.6890  196.5060 O.2    23  VAL23      -0.2864
     24  CB       -42.3880  -89.3440  199.5220 C.3    23  VAL23       0.0276
     25  CG1      -43.5650  -88.9270  198.6480 C.3    23  VAL23       0.0022
     26  CG2      -42.8840  -89.7850  200.8870 C.3    23  VAL23       0.0022
     27  N        -38.6090  -90.8510  195.5140 N.3    25  VAL25      -0.1231
     28  CA       -38.0310  -92.0190  194.8580 C.3    25  VAL25       0.1692
     29  C        -39.1460  -93.0210  194.5360 C.2    25  VAL25       0.2591
     30  O        -39.2210  -93.5290  193.3960 O.2    25  VAL25      -0.2718
     31  CB       -36.9060  -92.6360  195.7060 C.3    25  VAL25       0.0266
     32  CG1      -36.4380  -93.9740  195.1210 C.3    25  VAL25       0.0020
     33  CG2      -35.7350  -91.6730  195.7600 C.3    25  VAL25       0.0020
     34  N        -40.0370  -93.2570  195.5030 N.am   26  ALA26      -0.1980
     35  CA       -41.1850  -94.1780  195.2990 C.3    26  ALA26       0.1597
     36  C        -42.0690  -93.7060  194.1420 C.2    26  ALA26       0.2287
     37  O        -42.3580  -94.4260  193.2060 O.2    26  ALA26      -0.2864
     38  CB       -42.0170  -94.2580  196.5710 C.3    26  ALA26       0.0319
     39  N        -40.4150  -94.2150  190.7820 N.3    29  SER29      -0.1203
     40  CA       -39.8650  -95.5600  190.5350 C.3    29  SER29       0.2005
     41  C        -40.8640  -96.4200  189.7370 C.2    29  SER29       0.2461
     42  O        -42.0890  -96.3300  189.9580 O.2    29  SER29      -0.2732
     43  CB       -39.4570  -96.2320  191.8520 C.3    29  SER29       0.2103
     44  OG       -38.2520  -95.6550  192.3330 O.3    29  SER29      -0.2182
     45  N        -40.3450  -97.2150  188.7830 N.am   30  PRO30      -0.2717
     46  CA       -41.2590  -97.9870  187.9390 C.3    30  PRO30       0.1535
     47  C        -41.8660  -99.2090  188.6740 C.2    30  PRO30       0.2598
     48  O        -43.1060  -99.4060  188.6330 O.2    30  PRO30      -0.2715
     49  CB       -40.3820  -98.3740  186.7180 C.3    30  PRO30       0.0310
     50  CG       -38.9720  -98.3930  187.2200 C.3    30  PRO30       0.0237
     51  CD       -38.9340  -97.3180  188.3070 C.3    30  PRO30       0.0939
     52  N        -41.0110  -99.9940  189.3520 N.am   31  GLN31      -0.1964
     53  CA       -41.4590 -101.2130  190.0620 C.3    31  GLN31       0.1733
     54  C        -41.9050 -100.8920  191.4870 C.2    31  GLN31       0.2616
     55  O        -41.5910  -99.8100  192.0330 O.2    31  GLN31      -0.2715
     56  CB       -40.3430 -102.2830  190.1360 C.3    31  GLN31       0.0408
     57  CG       -40.3510 -103.3630  189.0550 C.3    31  GLN31       0.0908
     58  CD       -39.6550 -102.9060  187.7960 C.2    31  GLN31       0.2608
     59  OE1      -39.8020 -101.7580  187.3820 O.2    31  GLN31      -0.2717
     60  NE2      -38.8860 -103.7900  187.1810 N.am   31  GLN31      -0.0878
     61  N        -42.6180 -101.8710  192.0720 N.am   32  ASP32      -0.1971
     62  CA       -42.9890 -101.9170  193.5070 C.3    32  ASP32       0.1709
     63  C        -43.8390 -100.7480  193.9660 C.2    32  ASP32       0.2293
     64  O        -43.7420 -100.3380  195.1240 O.2    32  ASP32      -0.2864
     65  CB       -41.7510 -101.9380  194.4110 C.3    32  ASP32       0.1436
     66  CG       -40.8300 -103.0620  194.1000 C.2    32  ASP32       0.3671
     67  OD1      -41.1890 -104.2120  194.4420 O.co2  32  ASP32      -0.2456
     68  OD2      -39.7530 -102.7840  193.5260 O.co2  32  ASP32      -0.2456
     69  N        -44.7140  -99.7770  197.8120 N.3    36  SER36      -0.1217
     70  CA       -44.3710  -98.3720  198.0970 C.3    36  SER36       0.1889
     71  C        -45.5600  -97.5810  198.6130 C.2    36  SER36       0.2288
     72  O        -45.4550  -96.8480  199.6240 O.2    36  SER36      -0.2866
     73  CB       -43.8400  -97.6980  196.8440 C.3    36  SER36       0.2089
     74  OG       -42.5690  -98.2210  196.5380 O.3    36  SER36      -0.2183
     75  N        -46.4570  -98.3220  202.2320 N.3    39  LEU39      -0.1231
     76  CA       -45.4440  -97.7710  203.1060 C.3    39  LEU39       0.1693
     77  C        -45.5840  -96.2250  203.2940 C.2    39  LEU39       0.2591
     78  O        -45.4340  -95.7050  204.4030 O.2    39  LEU39      -0.2718
     79  CB       -44.0640  -98.1320  202.5660 C.3    39  LEU39       0.0284
     80  CG       -43.7100  -99.5990  202.6740 C.3    39  LEU39       0.0019
     81  CD1      -42.2830  -99.7350  202.1530 C.3    39  LEU39       0.0001
     82  CD2      -43.8530 -100.0840  204.1160 C.3    39  LEU39       0.0001
     83  N        -45.8950  -95.5190  202.2090 N.am   40  ILE40      -0.1980
     84  CA       -46.0880  -94.0720  202.2550 C.3    40  ILE40       0.1595
     85  C        -47.3180  -93.7670  203.1040 C.2    40  ILE40       0.2287
     86  O        -47.2840  -92.8380  203.9070 O.2    40  ILE40      -0.2864
     87  CB       -46.2300  -93.4600  200.8450 C.3    40  ILE40       0.0276
     88  CG1      -44.9090  -93.5910  200.0800 C.3    40  ILE40       0.0022
     89  CG2      -46.6500  -92.0040  200.9120 C.3    40  ILE40       0.0022
     90  CD1      -45.0610  -93.3780  198.5890 C.3    40  ILE40       0.0001
@<TRIPOS>BOND
     1    49    50    1
     2    49    46    1
     3    60    58   am
     4    50    51    1
     5    59    58    2
     6    58    57    1
     7    46    47    1
     8    46    45    1
     9    51    45    1
    10    48    47    2
    11    47    52   am
    12    45    41   am
    13    57    56    1
    14    52    53    1
    15    41    42    2
    16    41    40    1
    17    53    56    1
    18    53    54    1
    19    40    39    1
    20    40    43    1
    21    54    55    2
    22    54    61   am
    23    43    44    1
    24    61    62    1
    25    37    36    2
    26    30    29    2
    27    62    63    1
    28    62    65    1
    29    68    66   ar
    30    63    64    2
    31    66    65    1
    32    66    67   ar
    33    36    35    1
    34    29    28    1
    35    29    34   am
    36    28    27    1
    37    28    31    1
    38    32    31    1
    39    35    34    1
    40    35    38    1
    41    31    33    1
    42    23    22    2
    43    74    73    1
    44    73    70    1
    45    22    21    1
    46    69    70    1
    47    70    71    1
    48    19    18    2
    49    90    88    1
    50    71    72    2
    51    25    24    1
    52    21    20    1
    53    21    24    1
    54    18    20   am
    55    18    17    1
    56    24    26    1
    57    17    16    1
    58    88    87    1
    59    87    89    1
    60    87    84    1
    61    11    10    2
    62    81    80    1
    63    83    84    1
    64    83    77   am
    65    75    76    1
    66    84    85    1
    67    79    80    1
    68    79    76    1
    69    80    82    1
    70    10     9    1
    71    85    86    2
    72    76    77    1
    73     4     3    2
    74    77    78    2
    75     9    12    1
    76     9     8    1
    77     3     8   am
    78     3     2    1
    79    15    14    1
    80    12    13    1
    81    14    13    1
    82     2     1    1
    83     2     5    1
    84     6     5    1
    85     5     7    1
