@<TRIPOS>MOLECULE
tmp/5v2cV00.pdb
 125 123 0 0 0
SMALL
GASTEIGER

@<TRIPOS>ATOM
      1  N         -5.3150   16.6530  110.9460 N.3    21  TRP21      -0.1241
      2  CA        -4.7980   16.8510  112.3040 C.3    21  TRP21       0.1605
      3  C         -3.4170   16.2170  112.4800 C.2    21  TRP21       0.2264
      4  O         -2.7330   16.4910  113.4610 O.2    21  TRP21      -0.2867
      5  CB        -5.7760   16.3440  113.3550 C.3    21  TRP21       0.0550
      6  CG        -6.3070   14.9560  113.0840 C.ar   21  TRP21       0.0003
      7  CD1       -7.5140   14.6400  112.5900 C.ar   21  TRP21       0.0946
      8  CD2       -5.6380   13.7160  113.3290 C.ar   21  TRP21       0.0152
      9  NE1       -7.6720   13.2770  112.4960 N.ar   21  TRP21      -0.2442
     10  CE2       -6.5220   12.6830  112.9440 C.ar   21  TRP21       0.0810
     11  CE3       -4.3830   13.3740  113.8130 C.ar   21  TRP21       0.0012
     12  CZ2       -6.1870   11.3390  113.0270 C.ar   21  TRP21       0.0191
     13  CZ3       -4.0610   12.0060  113.9220 C.ar   21  TRP21       0.0001
     14  CH2       -4.9510   11.0240  113.4940 C.ar   21  TRP21       0.0015
     15  N          1.1940   17.6830  109.1980 N.3    24  ASN24      -0.1240
     16  CA         2.6360   17.8400  109.0330 C.3    24  ASN24       0.1653
     17  C          3.4110   16.5550  108.7530 C.2    24  ASN24       0.2266
     18  O          4.5580   16.6010  108.2610 O.2    24  ASN24      -0.2867
     19  CB         3.2060   18.6940  110.1830 C.3    24  ASN24       0.1155
     20  CG         2.6260   20.1420  110.1630 C.2    24  ASN24       0.2627
     21  OD1        2.2940   20.6680  109.0920 O.2    24  ASN24      -0.2716
     22  ND2        2.4820   20.7590  111.3310 N.am   24  ASN24      -0.0877
     23  N          9.5910   28.1670  111.0050 N.3    41  HIS41      -0.1241
     24  CA         9.4600   27.9360  112.4400 C.3    41  HIS41       0.1621
     25  C         10.5900   28.6320  113.1730 C.2    41  HIS41       0.2264
     26  O         10.3880   29.3050  114.2060 O.2    41  HIS41      -0.2867
     27  CB         9.4100   26.4430  112.8170 C.3    41  HIS41       0.0745
     28  CG         9.1870   26.2100  114.2900 C.ar   41  HIS41       0.0817
     29  ND1       10.2310   26.1140  115.1620 N.ar   41  HIS41      -0.2268
     30  CD2        8.0580   26.0740  115.0460 C.ar   41  HIS41       0.1154
     31  CE1        9.7770   25.9160  116.3960 C.ar   41  HIS41       0.1986
     32  NE2        8.4510   25.9110  116.3710 N.ar   41  HIS41      -0.2212
     33  N          9.7060   32.0630  113.6690 N.3    44  LEU44      -0.1231
     34  CA         8.8210   32.2990  114.8020 C.3    44  LEU44       0.1693
     35  C          9.5720   32.4050  116.0890 C.2    44  LEU44       0.2591
     36  O          9.2250   33.2730  116.9210 O.2    44  LEU44      -0.2718
     37  CB         7.7730   31.2040  114.9710 C.3    44  LEU44       0.0284
     38  CG         6.7210   31.0510  113.8880 C.3    44  LEU44       0.0019
     39  CD1        6.0700   29.6890  114.0650 C.3    44  LEU44       0.0001
     40  CD2        5.7030   32.1870  113.8760 C.3    44  LEU44       0.0001
     41  N         10.5790   31.5290  116.2530 N.am   45  ILE45      -0.1980
     42  CA        11.4220   31.5610  117.4630 C.3    45  ILE45       0.1595
     43  C         12.1340   32.9220  117.5620 C.2    45  ILE45       0.2287
     44  O         12.1290   33.5740  118.5760 O.2    45  ILE45      -0.2864
     45  CB        12.4740   30.4250  117.4740 C.3    45  ILE45       0.0276
     46  CG1       11.7880   29.0310  117.4850 C.3    45  ILE45       0.0022
     47  CG2       13.4410   30.5610  118.6590 C.3    45  ILE45       0.0022
     48  CD1       12.7690   27.8790  117.5270 C.3    45  ILE45       0.0001
     49  N          9.8530   35.9030  118.2310 N.3    48  TRP48      -0.1241
     50  CA         9.5180   35.9900  119.6290 C.3    48  TRP48       0.1605
     51  C         10.6440   36.6010  120.4510 C.2    48  TRP48       0.2264
     52  O         10.3800   37.5240  121.2040 O.2    48  TRP48      -0.2867
     53  CB         9.0740   34.6280  120.1980 C.3    48  TRP48       0.0550
     54  CG         8.7070   34.7490  121.6670 C.ar   48  TRP48       0.0003
     55  CD1        7.4910   35.0990  122.1780 C.ar   48  TRP48       0.0946
     56  CD2        9.5640   34.5340  122.7870 C.ar   48  TRP48       0.0152
     57  NE1        7.5390   35.1120  123.5370 N.ar   48  TRP48      -0.2442
     58  CE2        8.7940   34.7590  123.9470 C.ar   48  TRP48       0.0810
     59  CE3       10.8970   34.1370  122.9290 C.ar   48  TRP48       0.0012
     60  CZ2        9.3080   34.6120  125.2270 C.ar   48  TRP48       0.0191
     61  CZ3       11.4090   34.0210  124.2160 C.ar   48  TRP48       0.0001
     62  CH2       10.6220   34.2530  125.3370 C.ar   48  TRP48       0.0015
     63  N         13.4930   14.4580  120.3610 N.3   261  LEU261     -0.1245
     64  CA        12.4960   14.7390  121.3800 C.3   261  LEU261      0.1561
     65  C         12.9370   14.2940  122.7420 C.2   261  LEU261      0.2260
     66  O         12.7150   15.0020  123.7310 O.2   261  LEU261     -0.2867
     67  CB        11.1450   14.1260  121.0320 C.3   261  LEU261      0.0270
     68  CG        10.4650   14.7810  119.8360 C.3   261  LEU261      0.0019
     69  CD1        9.2720   13.9530  119.3880 C.3   261  LEU261      0.0001
     70  CD2        9.9860   16.1980  120.1310 C.3   261  LEU261      0.0001
     71  N         15.6690   16.7140  123.8390 N.3   264  LEU264     -0.1245
     72  CA        15.1270   18.0110  124.2570 C.3   264  LEU264      0.1561
     73  C         14.3880   17.9290  125.5860 C.2   264  LEU264      0.2260
     74  O         14.4790   18.8390  126.3970 O.2   264  LEU264     -0.2867
     75  CB        14.2600   18.6300  123.1880 C.3   264  LEU264      0.0270
     76  CG        15.0020   19.7400  122.3780 C.3   264  LEU264      0.0019
     77  CD1       16.2710   19.2740  121.7410 C.3   264  LEU264      0.0001
     78  CD2       14.0800   20.3300  121.3600 C.3   264  LEU264      0.0001
     79  N          6.8200   21.6440  132.1080 N.3   417  VAL417     -0.1231
     80  CA         5.6780   21.3290  131.2890 C.3   417  VAL417      0.1692
     81  C          6.1210   20.8990  129.8900 C.2   417  VAL417      0.2591
     82  O          5.7030   19.8630  129.3560 O.2   417  VAL417     -0.2718
     83  CB         4.6580   22.4960  131.2200 C.3   417  VAL417      0.0266
     84  CG1        3.5780   22.1890  130.1780 C.3   417  VAL417      0.0020
     85  CG2        4.0270   22.7290  132.5850 C.3   417  VAL417      0.0020
     86  N          7.0170   21.6970  129.3290 N.am  418  LEU418     -0.1980
     87  CA         7.5240   21.4280  128.0140 C.3   418  LEU418      0.1596
     88  C          8.4010   20.1470  127.9880 C.2   418  LEU418      0.2287
     89  O          8.2560   19.3150  127.0920 O.2   418  LEU418     -0.2864
     90  CB         8.2750   22.6480  127.5060 C.3   418  LEU418      0.0297
     91  CG         7.3690   23.8670  127.2570 C.3   418  LEU418      0.0022
     92  CD1        8.2000   25.1070  127.2090 C.3   418  LEU418      0.0001
     93  CD2        6.4990   23.7240  125.9900 C.3   418  LEU418      0.0001
     94  N          5.9450   17.0790  128.1690 N.3   421  PHE421     -0.1227
     95  CA         5.2590   16.7560  126.9140 C.3   421  PHE421      0.1736
     96  C          6.2110   16.2580  125.8460 C.2   421  PHE421      0.2595
     97  O          5.8380   15.4380  125.0170 O.2   421  PHE421     -0.2718
     98  CB         4.4150   17.9080  126.3920 C.3   421  PHE421      0.0547
     99  CG         3.0570   18.0130  127.1040 C.ar  421  PHE421     -0.0202
    100  CD1        2.1970   16.9120  127.1530 C.ar  421  PHE421     -0.0042
    101  CD2        2.6780   19.1700  127.8030 C.ar  421  PHE421     -0.0042
    102  CE1        0.9560   16.9790  127.8200 C.ar  421  PHE421     -0.0003
    103  CE2        1.4400   19.2550  128.4310 C.ar  421  PHE421     -0.0003
    104  CZ         0.5790   18.1700  128.4540 C.ar  421  PHE421     -0.0000
    105  N          7.4460   16.7240  125.8990 N.am  422  PHE422     -0.1976
    106  CA         8.4480   16.2720  124.9910 C.3   422  PHE422      0.1639
    107  C          8.8620   14.8170  125.2560 C.2   422  PHE422      0.2290
    108  O          9.1770   14.0960  124.2830 O.2   422  PHE422     -0.2864
    109  CB         9.6030   17.2910  124.9170 C.3   422  PHE422      0.0560
    110  CG         9.3600   18.3560  123.8780 C.ar  422  PHE422     -0.0200
    111  CD1        8.2380   19.2230  123.9570 C.ar  422  PHE422     -0.0042
    112  CD2       10.1830   18.4640  122.7820 C.ar  422  PHE422     -0.0042
    113  CE1        7.9790   20.1320  122.9600 C.ar  422  PHE422     -0.0003
    114  CE2        9.9180   19.4380  121.7850 C.ar  422  PHE422     -0.0003
    115  CZ         8.8190   20.2250  121.8640 C.ar  422  PHE422     -0.0000
    116  N          6.4880    9.0980  119.2620 N.3   429  HIS429     -0.1241
    117  CA         7.1540    9.0380  117.9770 C.3   429  HIS429      0.1621
    118  C          8.1500    7.8170  117.9790 C.2   429  HIS429      0.2264
    119  O          8.3170    7.1680  116.9340 O.2   429  HIS429     -0.2867
    120  CB         7.8010   10.3980  117.5430 C.3   429  HIS429      0.0745
    121  CG         6.8050   11.4500  117.1610 C.ar  429  HIS429      0.0817
    122  ND1        6.0250   11.3470  116.0140 N.ar  429  HIS429     -0.2268
    123  CD2        6.4770   12.6470  117.7430 C.ar  429  HIS429      0.1154
    124  CE1        5.2620   12.4360  115.9090 C.ar  429  HIS429      0.1986
    125  NE2        5.4930   13.2470  116.9570 N.ar  429  HIS429     -0.2212
@<TRIPOS>BOND
     1    18    17    2
     2    17    16    1
     3    16    15    1
     4    16    19    1
     5    21    20    2
     6    20    19    1
     7    20    22   am
     8     1     2    1
     9    23    24    1
    10     2     3    1
    11     2     5    1
    12    24    27    1
    13    24    25    1
    14     3     4    2
    15     9     7   ar
    16     9    10   ar
    17     7     6   ar
    18    27    28    1
    19    10    12   ar
    20    10     8   ar
    21    12    14   ar
    22     6     8   ar
    23     6     5    1
    24    25    26    2
    25     8    11   ar
    26    14    13   ar
    27    33    34    1
    28    11    13   ar
    29    40    38    1
    30    38    39    1
    31    38    37    1
    32    28    30   ar
    33    28    29   ar
    34    34    37    1
    35    34    35    1
    36    30    32   ar
    37    29    31   ar
    38   124   122   ar
    39   124   125   ar
    40   122   121   ar
    41    35    41   am
    42    35    36    2
    43    41    42    1
    44    32    31   ar
    45   119   118    2
    46   125   123   ar
    47   121   120    1
    48   121   123   ar
    49    42    45    1
    50    42    43    1
    51    45    46    1
    52    45    47    1
    53    46    48    1
    54   120   117    1
    55    43    44    2
    56   117   118    1
    57   117   116    1
    58    49    50    1
    59    69    68    1
    60    50    53    1
    61    50    51    1
    62    68    70    1
    63    68    67    1
    64    53    54    1
    65    63    64    1
    66    51    52    2
    67    67    64    1
    68    78    76    1
    69    64    65    1
    70    54    55   ar
    71    54    56   ar
    72    77    76    1
    73   114   115   ar
    74   114   112   ar
    75   115   113   ar
    76    55    57   ar
    77    76    75    1
    78    65    66    2
    79   112   110   ar
    80    56    59   ar
    81    56    58   ar
    82    59    61   ar
    83   113   111   ar
    84    75    72    1
    85    57    58   ar
    86    71    72    1
    87   110   111   ar
    88   110   109    1
    89    58    60   ar
    90    61    62   ar
    91    72    73    1
    92   108   107    2
    93   109   106    1
    94   106   107    1
    95   106   105    1
    96    97    96    2
    97    60    62   ar
    98    73    74    2
    99    96   105   am
   100    96    95    1
   101    93    91    1
   102    98    95    1
   103    98    99    1
   104    95    94    1
   105    89    88    2
   106    99   100   ar
   107    99   101   ar
   108   100   102   ar
   109    92    91    1
   110    91    90    1
   111    90    87    1
   112   101   103   ar
   113   102   104   ar
   114    88    87    1
   115    87    86    1
   116   103   104   ar
   117    86    81   am
   118    82    81    2
   119    81    80    1
   120    84    83    1
   121    83    80    1
   122    83    85    1
   123    80    79    1
