@<TRIPOS>MOLECULE
tmp/5v2cP03.pdb
 105 99 0 0 0
SMALL
GASTEIGER

@<TRIPOS>ATOM
      1  N         -7.5370  -49.1390  241.9530 N.3    13  ASN13      -0.1225
      2  CA        -8.1210  -48.1300  242.7900 C.3    13  ASN13       0.1785
      3  C         -7.3350  -46.8620  242.7120 C.2    13  ASN13       0.2598
      4  O         -6.3920  -46.7850  241.9340 O.2    13  ASN13      -0.2718
      5  CB        -8.2910  -48.6740  244.2280 C.3    13  ASN13       0.1169
      6  CG        -6.9810  -49.0570  244.8560 C.2    13  ASN13       0.2627
      7  OD1       -5.9420  -48.4790  244.5500 O.2    13  ASN13      -0.2716
      8  ND2       -7.0160  -50.0570  245.7350 N.am   13  ASN13      -0.0877
      9  N         -7.6980  -45.8780  243.5190 N.am   14  SER14      -0.1938
     10  CA        -7.0020  -44.5900  243.5010 C.3    14  SER14       0.2055
     11  C         -5.7300  -44.5910  244.3330 C.2    14  SER14       0.2642
     12  O         -5.0340  -43.5930  244.3380 O.2    14  SER14      -0.2714
     13  CB        -7.9180  -43.4730  244.0330 C.3    14  SER14       0.2130
     14  OG        -8.9370  -43.1880  243.0880 O.3    14  SER14      -0.2179
     15  N         -5.4440  -45.6900  245.0230 N.am   15  GLU15      -0.1976
     16  CA        -4.4000  -45.7700  246.0350 C.3    15  GLU15       0.1602
     17  C         -3.1760  -46.5090  245.5550 C.2    15  GLU15       0.2287
     18  O         -2.4040  -46.9380  246.3680 O.2    15  GLU15      -0.2864
     19  CB        -4.9270  -46.5140  247.2650 C.3    15  GLU15       0.0415
     20  CG        -5.7510  -45.6590  248.1850 C.3    15  GLU15       0.1163
     21  CD        -6.9490  -45.0650  247.4770 C.2    15  GLU15       0.3649
     22  OE1       -7.5600  -45.7910  246.6260 O.co2  15  GLU15      -0.2457
     23  OE2       -7.2540  -43.8690  247.7590 O.co2  15  GLU15      -0.2457
     24  N        -16.4770  -38.7230  241.2880 N.3    64  PRO64      -0.2103
     25  CA       -15.1660  -39.1460  241.7810 C.3    64  PRO64       0.1489
     26  C        -14.3560  -39.6680  240.6360 C.2    64  PRO64       0.2418
     27  O        -14.8990  -39.8510  239.5060 O.2    64  PRO64      -0.2734
     28  CB       -15.5050  -40.2830  242.7430 C.3    64  PRO64       0.0282
     29  CG       -16.7490  -40.8810  242.1680 C.3    64  PRO64       0.0208
     30  CD       -17.5250  -39.7360  241.5420 C.3    64  PRO64       0.0893
     31  N        -13.0630  -39.9240  240.8730 N.am   65  PRO65      -0.2718
     32  CA       -12.1870  -40.3960  239.7600 C.3    65  PRO65       0.1535
     33  C        -12.6610  -41.7200  239.0970 C.2    65  PRO65       0.2598
     34  O        -13.0950  -42.6430  239.7850 O.2    65  PRO65      -0.2715
     35  CB       -10.8320  -40.5580  240.4480 C.3    65  PRO65       0.0310
     36  CG       -10.9200  -39.6840  241.6680 C.3    65  PRO65       0.0237
     37  CD       -12.3220  -39.6730  242.1070 C.3    65  PRO65       0.0939
     38  N        -12.6300  -41.7670  237.7640 N.am   66  ARG66      -0.1978
     39  CA       -13.0850  -42.8950  237.0370 C.3    66  ARG66       0.1597
     40  C        -11.9830  -43.5950  236.2800 C.2    66  ARG66       0.2287
     41  O        -12.2650  -44.4310  235.4250 O.2    66  ARG66      -0.2864
     42  CB       -14.1970  -42.4630  236.0840 C.3    66  ARG66       0.0334
     43  CG       -15.3330  -41.6780  236.7300 C.3    66  ARG66       0.0492
     44  CD       -16.0790  -42.4820  237.7700 C.3    66  ARG66       0.2205
     45  NE       -17.3260  -41.8720  238.2010 N.pl3  66  ARG66      -0.0865
     46  CZ       -18.1940  -42.4030  239.0690 C.cat  66  ARG66       0.5346
     47  NH1      -17.9750  -43.6020  239.6300 N.pl3  66  ARG66       0.1354
     48  NH2      -19.3200  -41.7270  239.3660 N.pl3  66  ARG66       0.1354
     49  N         -9.9570  -45.8940  237.1290 N.3    68  ASN68      -0.1240
     50  CA        -9.5450  -47.1360  237.7350 C.3    68  ASN68       0.1653
     51  C        -10.7270  -48.0610  237.7670 C.2    68  ASN68       0.2266
     52  O        -11.8890  -47.6270  237.5560 O.2    68  ASN68      -0.2867
     53  CB        -8.9420  -46.8610  239.1300 C.3    68  ASN68       0.1155
     54  CG        -9.9200  -46.1970  240.0730 C.2    68  ASN68       0.2627
     55  OD1      -10.9670  -46.7710  240.4430 O.2    68  ASN68      -0.2716
     56  ND2       -9.5670  -44.9920  240.5050 N.am   68  ASN68      -0.0877
     57  N        -12.3010  -49.6270  240.2090 N.3    70  GLU70      -0.1231
     58  CA       -13.3620  -49.3730  241.1790 C.3    70  GLU70       0.1699
     59  C        -14.2630  -48.2080  240.7240 C.2    70  GLU70       0.2592
     60  O        -15.4940  -48.2780  240.8460 O.2    70  GLU70      -0.2718
     61  CB       -12.7870  -49.0770  242.5840 C.3    70  GLU70       0.0402
     62  CG       -12.1310  -50.2830  243.2690 C.3    70  GLU70       0.1161
     63  CD       -13.0690  -51.4270  243.4950 C.2    70  GLU70       0.3649
     64  OE1      -12.5410  -52.5650  243.5470 O.co2  70  GLU70      -0.2457
     65  OE2      -14.3240  -51.2170  243.6580 O.co2  70  GLU70      -0.2457
     66  N        -13.6480  -47.1510  240.1560 N.am   71  GLY71      -0.1957
     67  CA       -14.4330  -45.9590  239.7710 C.3    71  GLY71       0.1869
     68  C        -15.3790  -46.2800  238.6290 C.2    71  GLY71       0.2309
     69  O        -16.5140  -45.8230  238.5970 O.2    71  GLY71      -0.2863
     70  N        -18.2460  -48.6550  239.8060 N.3    74  ASP74      -0.1239
     71  CA       -19.2040  -47.8240  240.5060 C.3    74  ASP74       0.1674
     72  C        -20.0300  -46.9950  239.5060 C.2    74  ASP74       0.2266
     73  O        -21.2680  -46.8620  239.6480 O.2    74  ASP74      -0.2867
     74  CB       -18.4910  -46.8910  241.5090 C.3    74  ASP74       0.1410
     75  CG       -19.4690  -45.9070  242.1650 C.2    74  ASP74       0.3668
     76  OD1      -20.3510  -46.3210  242.9480 O.co2  74  ASP74      -0.2456
     77  OD2      -19.3780  -44.7150  241.8920 O.co2  74  ASP74      -0.2456
     78  N        -24.0190  -46.6970  239.4610 N.3    78  ASN78      -0.1240
     79  CA       -24.6210  -45.4190  239.8750 C.3    78  ASN78       0.1653
     80  C        -23.9220  -44.2560  239.1630 C.2    78  ASN78       0.2266
     81  O        -23.1350  -43.5030  239.7630 O.2    78  ASN78      -0.2867
     82  CB       -24.4680  -45.2810  241.3980 C.3    78  ASN78       0.1155
     83  CG       -25.2020  -44.0730  241.9580 C.2    78  ASN78       0.2627
     84  OD1      -26.2610  -43.7340  241.4930 O.2    78  ASN78      -0.2716
     85  ND2      -24.6450  -43.4500  242.9680 N.am   78  ASN78      -0.0877
     86  N        -26.8850  -37.7340  239.9770 N.3    87  GLU87      -0.1245
     87  CA       -27.0390  -39.1730  239.6190 C.3    87  GLU87       0.1567
     88  C        -27.8790  -39.2930  238.3630 C.2    87  GLU87       0.2260
     89  O        -29.0190  -38.7880  238.3170 O.2    87  GLU87      -0.2867
     90  CB       -27.6640  -39.9690  240.7780 C.3    87  GLU87       0.0388
     91  CG       -26.7250  -39.9740  241.9660 C.3    87  GLU87       0.1160
     92  CD       -27.1960  -40.7970  243.1280 C.2    87  GLU87       0.3649
     93  OE1      -28.4210  -41.0320  243.2300 O.co2  87  GLU87      -0.2457
     94  OE2      -26.3350  -41.2030  243.9510 O.co2  87  GLU87      -0.2457
     95  N        -28.4370  -49.9980  238.4580 N.3    96  ARG96      -0.1245
     96  CA       -29.5210  -49.3900  239.1910 C.3    96  ARG96       0.1563
     97  C        -30.7350  -49.1310  238.3140 C.2    96  ARG96       0.2260
     98  O        -31.8660  -49.1170  238.8000 O.2    96  ARG96      -0.2867
     99  CB       -28.9420  -48.1270  239.7910 C.3    96  ARG96       0.0307
    100  CG       -29.8600  -47.2760  240.4360 C.3    96  ARG96       0.0489
    101  CD       -29.0900  -46.2320  241.1990 C.3    96  ARG96       0.2205
    102  NE       -30.1290  -45.4550  241.8140 N.pl3  96  ARG96      -0.0865
    103  CZ       -29.9520  -44.3070  242.4470 C.cat  96  ARG96       0.5346
    104  NH1      -28.7560  -43.7600  242.5350 N.pl3  96  ARG96       0.1354
    105  NH2      -30.9980  -43.6980  242.9740 N.pl3  96  ARG96       0.1354
@<TRIPOS>BOND
     1    41    40    2
     2    42    43    1
     3    42    39    1
     4    40    39    1
     5    43    44    1
     6    39    38    1
     7    49    50    1
     8    52    51    2
     9    50    51    1
    10    50    53    1
    11    38    33   am
    12    44    45    1
    13    45    46    2
    14    97    98    2
    15    97    96    1
    16    89    88    2
    17    88    87    1
    18    95    96    1
    19    69    68    2
    20    68    67    1
    21    46    48    1
    22    46    47    1
    23    33    32    1
    24    33    34    2
    25    53    54    1
    26    80    81    2
    27    80    79    1
    28    96    99    1
    29    78    79    1
    30    27    26    2
    31    72    73    2
    32    72    71    1
    33    87    86    1
    34    87    90    1
    35    32    35    1
    36    32    31    1
    37    67    66    1
    38    99   100    1
    39    70    71    1
    40    79    82    1
    41    54    55    2
    42    54    56   am
    43    66    59   am
    44    57    58    1
    45   100   101    1
    46    35    36    1
    47    71    74    1
    48    26    31   am
    49    26    25    1
    50    59    60    2
    51    59    58    1
    52    90    91    1
    53    31    37    1
    54    58    61    1
    55   101   102    1
    56    24    30    1
    57    24    25    1
    58    82    83    1
    59    84    83    2
    60    74    75    1
    61    30    29    1
    62    36    37    1
    63    25    28    1
    64   102   103    2
    65    77    75   ar
    66     4     3    2
    67     1     2    1
    68    83    85   am
    69    91    92    1
    70    75    76   ar
    71    29    28    1
    72   103   104    1
    73   103   105    1
    74    61    62    1
    75     3     2    1
    76     3     9   am
    77     2     5    1
    78    14    13    1
    79    92    93   ar
    80    92    94   ar
    81    62    63    1
    82    63    64   ar
    83    63    65   ar
    84    10     9    1
    85    10    13    1
    86    10    11    1
    87     5     6    1
    88    11    12    2
    89    11    15   am
    90     7     6    2
    91     6     8   am
    92    15    16    1
    93    17    16    1
    94    17    18    2
    95    16    19    1
    96    22    21   ar
    97    19    20    1
    98    21    23   ar
    99    21    20    1
