@<TRIPOS>MOLECULE
tmp/5v2cU15.pdb
 77 73 0 0 0
SMALL
GASTEIGER

@<TRIPOS>ATOM
      1  N        -57.6100   -2.8550  130.8640 N.3   222  GLN222     -0.1231
      2  CA       -56.6910   -3.5260  129.9350 C.3   222  GLN222      0.1698
      3  C        -55.4640   -2.6450  129.7030 C.2   222  GLN222      0.2592
      4  O        -54.3230   -3.1090  129.6420 O.2   222  GLN222     -0.2718
      5  CB       -57.3940   -3.7780  128.6000 C.3   222  GLN222      0.0381
      6  CG       -56.6380   -4.6420  127.5960 C.3   222  GLN222      0.0905
      7  CD       -55.5980   -3.8900  126.7650 C.2   222  GLN222      0.2608
      8  OE1      -54.6270   -4.4740  126.2910 O.2   222  GLN222     -0.2717
      9  NE2      -55.8040   -2.5980  126.5770 N.am  222  GLN222     -0.0878
     10  N        -55.6950   -1.3460  129.5600 N.am  223  ARG223     -0.1966
     11  CA       -54.5620   -0.4010  129.3410 C.3   223  ARG223      0.1729
     12  C        -53.5520   -0.4040  130.4640 C.2   223  ARG223      0.2616
     13  O        -52.3070   -0.3940  130.1930 O.2   223  ARG223     -0.2715
     14  CB       -55.1170    0.9890  129.0570 C.3   223  ARG223      0.0348
     15  CG       -55.8440    0.8270  127.7340 C.3   223  ARG223      0.0492
     16  CD       -56.1930    1.9990  126.9590 C.3   223  ARG223      0.2205
     17  NE       -55.0120    2.5780  126.4020 N.pl3 223  ARG223     -0.0865
     18  CZ       -54.8620    3.0410  125.1660 C.cat 223  ARG223      0.5346
     19  NH1      -53.7100    3.5970  124.8740 N.pl3 223  ARG223      0.1354
     20  NH2      -55.7920    2.9620  124.2610 N.pl3 223  ARG223      0.1354
     21  N        -54.0450   -0.4400  131.6900 N.am  224  LEU224     -0.1977
     22  CA       -53.1510   -0.4770  132.8940 C.3   224  LEU224      0.1596
     23  C        -52.5640   -1.8550  133.1340 C.2   224  LEU224      0.2287
     24  O        -51.3650   -1.9690  133.5040 O.2   224  LEU224     -0.2864
     25  CB       -53.8360    0.0750  134.1540 C.3   224  LEU224      0.0297
     26  CG       -54.3290    1.5290  134.1070 C.3   224  LEU224      0.0022
     27  CD1      -54.9320    1.8760  135.4570 C.3   224  LEU224      0.0001
     28  CD2      -53.2030    2.4930  133.7710 C.3   224  LEU224      0.0001
     29  N        -51.7120   -3.9980  130.8240 N.3   226  LYS226     -0.1231
     30  CA       -50.5890   -4.1750  129.8720 C.3   226  LYS226      0.1693
     31  C        -49.5000   -3.2320  130.2890 C.2   226  LYS226      0.2591
     32  O        -48.3180   -3.6390  130.3680 O.2   226  LYS226     -0.2718
     33  CB       -50.9690   -3.8440  128.4050 C.3   226  LYS226      0.0285
     34  CG       -51.8800   -4.8150  127.7070 C.3   226  LYS226      0.0035
     35  CD       -51.7310   -4.6830  126.1570 C.3   226  LYS226      0.0206
     36  CE       -51.8180   -3.2310  125.6310 C.3   226  LYS226      0.1093
     37  NZ       -51.8620   -2.9970  124.1430 N.3   226  LYS226     -0.1314
     38  N        -49.8390   -1.9750  130.5770 N.am  227  ALA227     -0.1980
     39  CA       -48.7560   -0.9920  130.8710 C.3   227  ALA227      0.1597
     40  C        -47.8680   -1.3360  132.0560 C.2   227  ALA227      0.2287
     41  O        -46.6300   -1.1750  132.0020 O.2   227  ALA227     -0.2864
     42  CB       -49.3170    0.3960  131.0790 C.3   227  ALA227      0.0319
     43  N        -42.5050    7.7900  113.9380 N.3   497  LYS497     -0.1231
     44  CA       -42.5530    7.5840  115.3960 C.3   497  LYS497      0.1693
     45  C        -41.5030    6.5410  115.8440 C.2   497  LYS497      0.2592
     46  O        -41.4040    5.4350  115.2710 O.2   497  LYS497     -0.2718
     47  CB       -43.9650    7.1390  115.8180 C.3   497  LYS497      0.0285
     48  CG       -44.3120    7.3870  117.2680 C.3   497  LYS497      0.0035
     49  CD       -45.6070    6.6650  117.6100 C.3   497  LYS497      0.0206
     50  CE       -45.7770    6.5280  119.1240 C.3   497  LYS497      0.1093
     51  NZ       -47.1260    6.0610  119.5850 N.3   497  LYS497     -0.1314
     52  N        -40.7280    6.8950  116.8740 N.am  498  VAL498     -0.1966
     53  CA       -39.6330    6.0360  117.3490 C.3   498  VAL498      0.1727
     54  C        -40.3210    4.7330  117.8490 C.2   498  VAL498      0.2617
     55  O        -41.3850    4.8000  118.5050 O.2   498  VAL498     -0.2715
     56  CB       -38.7020    6.7560  118.4280 C.3   498  VAL498      0.0290
     57  CG1      -37.5760    5.8400  118.9770 C.3   498  VAL498      0.0023
     58  CG2      -38.0930    8.0880  117.8820 C.3   498  VAL498      0.0023
     59  N        -39.7390    3.5700  117.5010 N.am  499  GLY499     -0.1940
     60  CA       -40.2320    2.2420  117.9450 C.3   499  GLY499      0.2014
     61  C        -41.6120    1.8750  117.4190 C.2   499  GLY499      0.2638
     62  O        -42.3160    1.0830  118.0440 O.2   499  GLY499     -0.2714
     63  N        -42.0210    2.4690  116.3050 N.am  500  ASP500     -0.1971
     64  CA       -43.3280    2.1680  115.7350 C.3   500  ASP500      0.1709
     65  C        -43.0640    1.8590  114.2730 C.2   500  ASP500      0.2293
     66  O        -42.6790    2.7370  113.4710 O.2   500  ASP500     -0.2864
     67  CB       -44.3310    3.3230  115.9080 C.3   500  ASP500      0.1436
     68  CG       -45.7980    2.9400  115.5260 C.2   500  ASP500      0.3671
     69  OD1      -46.1240    1.7850  115.0790 O.co2 500  ASP500     -0.2456
     70  OD2      -46.6610    3.8380  115.6680 O.co2 500  ASP500     -0.2456
     71  N        -45.4920    0.9490  112.2890 N.3   502  THR502     -0.1218
     72  CA       -46.7030    1.3630  111.5170 C.3   502  THR502      0.1862
     73  C        -46.6490    2.8120  110.9440 C.2   502  THR502      0.2287
     74  O        -47.5790    3.2240  110.2110 O.2   502  THR502     -0.2866
     75  CB       -48.0120    1.2070  112.3450 C.3   502  THR502      0.1770
     76  OG1      -47.9840    2.1270  113.4480 O.3   502  THR502     -0.2211
     77  CG2      -48.2290   -0.2630  112.8470 C.3   502  THR502      0.0375
@<TRIPOS>BOND
     1    74    73    2
     2    73    72    1
     3    72    71    1
     4    72    75    1
     5    75    77    1
     6    75    76    1
     7    66    65    2
     8    43    44    1
     9    65    64    1
    10    69    68   ar
    11    46    45    2
    12    44    47    1
    13    44    45    1
    14    68    70   ar
    15    68    67    1
    16    64    67    1
    17    64    63    1
    18    47    48    1
    19    45    52   am
    20    63    61   am
    21    52    53    1
    22    48    49    1
    23    53    54    1
    24    53    56    1
    25    61    60    1
    26    61    62    2
    27    59    54   am
    28    59    60    1
    29    49    50    1
    30    54    55    2
    31    58    56    1
    32    56    57    1
    33    50    51    1
    34    37    36    1
    35    20    18    1
    36    19    18    1
    37    18    17    2
    38    36    35    1
    39    35    34    1
    40     8     7    2
    41    17    16    1
    42     9     7   am
    43     7     6    1
    44    16    15    1
    45     6     5    1
    46    34    33    1
    47    15    14    1
    48    33    30    1
    49     5     2    1
    50    14    11    1
    51    11    10    1
    52    11    12    1
    53    10     3   am
    54     4     3    2
    55     3     2    1
    56    30    31    1
    57    30    29    1
    58     2     1    1
    59    13    12    2
    60    31    32    2
    61    31    38   am
    62    12    21   am
    63    38    39    1
    64    39    42    1
    65    39    40    1
    66    21    22    1
    67    41    40    2
    68    22    23    1
    69    22    25    1
    70    23    24    2
    71    28    26    1
    72    26    25    1
    73    26    27    1
