@<TRIPOS>MOLECULE
tmp/5v2lA00.pdb
 170 156 0 0 0
SMALL
GASTEIGER

@<TRIPOS>ATOM
      1  N        -27.5630   13.3200   -7.7290 N.3    43  THR43      -0.1218
      2  CA       -27.5030   14.7630   -7.5580 C.3    43  THR43       0.1862
      3  C        -28.9110   15.3160   -7.7090 C.2    43  THR43       0.2287
      4  O        -29.6750   14.8630   -8.5580 O.2    43  THR43      -0.2866
      5  CB       -26.5950   15.4090   -8.5830 C.3    43  THR43       0.1770
      6  OG1      -25.2960   14.8610   -8.4500 O.3    43  THR43      -0.2211
      7  CG2      -26.5490   16.9250   -8.3830 C.3    43  THR43       0.0375
      8  N        -30.6580   19.0830   -8.4230 N.3    45  THR45      -0.1218
      9  CA       -30.2360   20.4040   -8.8570 C.3    45  THR45       0.1862
     10  C        -31.4540   21.2430   -9.2040 C.2    45  THR45       0.2287
     11  O        -32.3890   20.7560   -9.8330 O.2    45  THR45      -0.2866
     12  CB       -29.2660   20.2920  -10.0510 C.3    45  THR45       0.1770
     13  OG1      -28.0680   19.6720   -9.5990 O.3    45  THR45      -0.2211
     14  CG2      -28.9280   21.6730  -10.6350 C.3    45  THR45       0.0375
     15  N        -23.1400   29.5700   -8.3090 N.3    58  PHE58      -0.1241
     16  CA       -23.2210   28.1180   -8.1100 C.3    58  PHE58       0.1605
     17  C        -23.0530   27.8290   -6.6250 C.2    58  PHE58       0.2264
     18  O        -22.0220   28.1700   -6.0460 O.2    58  PHE58      -0.2867
     19  CB       -22.1500   27.4290   -8.9580 C.3    58  PHE58       0.0534
     20  CG       -22.0660   25.8920   -8.8250 C.ar   58  PHE58      -0.0203
     21  CD1      -23.1750   25.0960   -8.5790 C.ar   58  PHE58      -0.0042
     22  CD2      -20.8450   25.2670   -9.0210 C.ar   58  PHE58      -0.0042
     23  CE1      -23.0720   23.7030   -8.5060 C.ar   58  PHE58      -0.0003
     24  CE2      -20.7370   23.8550   -8.9340 C.ar   58  PHE58      -0.0003
     25  CZ       -21.8540   23.0960   -8.7030 C.ar   58  PHE58      -0.0000
     26  N        -23.0790   24.5710   -3.9630 N.3    60  LEU60      -0.1245
     27  CA       -23.0020   23.1100   -3.9530 C.3    60  LEU60       0.1561
     28  C        -22.9360   22.6280   -2.5120 C.2    60  LEU60       0.2260
     29  O        -22.0990   23.1000   -1.7490 O.2    60  LEU60      -0.2867
     30  CB       -21.7750   22.6240   -4.7230 C.3    60  LEU60       0.0270
     31  CG       -21.5440   21.1100   -4.6780 C.3    60  LEU60       0.0019
     32  CD1      -22.6600   20.3540   -5.4340 C.3    60  LEU60       0.0001
     33  CD2      -20.1450   20.8140   -5.2420 C.3    60  LEU60       0.0001
     34  N        -19.5380   28.4090   -4.4510 N.3    65  GLN65      -0.1245
     35  CA       -18.3800   27.9220   -5.1780 C.3    65  GLN65       0.1566
     36  C        -17.6190   29.0910   -5.7770 C.2    65  GLN65       0.2260
     37  O        -18.2080   30.0980   -6.1710 O.2    65  GLN65      -0.2867
     38  CB       -18.8000   26.9480   -6.2840 C.3    65  GLN65       0.0367
     39  CG       -19.5090   25.7390   -5.7770 C.3    65  GLN65       0.0905
     40  CD       -18.6330   24.8690   -4.8580 C.2    65  GLN65       0.2608
     41  OE1      -17.8150   24.1070   -5.3400 O.2    65  GLN65      -0.2717
     42  NE2      -18.8380   24.9610   -3.5480 N.am   65  GLN65      -0.0878
     43  N        -13.1070   29.0390   -9.9100 N.3    68  LYS68      -0.1231
     44  CA       -12.5280   27.8070  -10.4300 C.3    68  LYS68       0.1693
     45  C        -13.4890   26.6350  -10.2870 C.2    68  LYS68       0.2591
     46  O        -13.6270   25.8120  -11.2060 O.2    68  LYS68      -0.2718
     47  CB       -11.2080   27.5180   -9.6990 C.3    68  LYS68       0.0285
     48  CG       -10.3780   26.4090  -10.2990 C.3    68  LYS68       0.0035
     49  CD       -10.8020   25.0100   -9.8370 C.3    68  LYS68       0.0206
     50  CE        -9.9140   23.9410  -10.4600 C.3    68  LYS68       0.1093
     51  NZ       -10.4030   22.5610  -10.1650 N.3    68  LYS68      -0.1314
     52  N        -14.1420   26.5200   -9.1320 N.am   69  GLN69      -0.1979
     53  CA       -15.1080   25.4510   -8.9110 C.3    69  GLN69       0.1601
     54  C        -16.4050   25.6470   -9.7050 C.2    69  GLN69       0.2287
     55  O        -17.1990   24.7150   -9.7670 O.2    69  GLN69      -0.2864
     56  CB       -15.4500   25.3690   -7.4300 C.3    69  GLN69       0.0394
     57  CG       -14.2510   25.2290   -6.5000 C.3    69  GLN69       0.0908
     58  CD       -14.6060   25.6030   -5.0550 C.2    69  GLN69       0.2608
     59  OE1      -15.2740   26.6280   -4.7930 O.2    69  GLN69      -0.2717
     60  NE2      -14.1810   24.7640   -4.1160 N.am   69  GLN69      -0.0878
     61  N        -16.8870   24.9930  -14.9180 N.3    72  LYS72      -0.1231
     62  CA       -17.6290   24.0450  -15.7380 C.3    72  LYS72       0.1693
     63  C        -19.1240   24.3900  -15.7820 C.2    72  LYS72       0.2591
     64  O        -19.7400   24.3440  -16.8520 O.2    72  LYS72      -0.2718
     65  CB       -17.4100   22.6360  -15.2020 C.3    72  LYS72       0.0285
     66  CG       -17.9220   21.4630  -16.0910 C.3    72  LYS72       0.0035
     67  CD       -17.5530   20.0780  -15.4540 C.3    72  LYS72       0.0206
     68  CE       -17.5420   18.9190  -16.4710 C.3    72  LYS72       0.1093
     69  NZ       -16.7340   17.7090  -16.0540 N.3    72  LYS72      -0.1314
     70  N        -19.7230   24.7500  -14.6400 N.am   73  VAL73      -0.1980
     71  CA       -21.1440   25.1090  -14.6140 C.3    73  VAL73       0.1595
     72  C        -21.3880   26.3120  -15.5050 C.2    73  VAL73       0.2287
     73  O        -22.3360   26.3380  -16.2980 O.2    73  VAL73      -0.2864
     74  CB       -21.5960   25.3670  -13.1690 C.3    73  VAL73       0.0276
     75  CG1      -22.9670   26.0070  -13.1250 C.3    73  VAL73       0.0022
     76  CG2      -21.5920   24.0700  -12.4560 C.3    73  VAL73       0.0022
     77  N        -27.4740   28.3430   -9.6930 N.3    92  VAL92      -0.1245
     78  CA       -27.5370   26.8890   -9.6290 C.3    92  VAL92       0.1561
     79  C        -27.3460   26.4870   -8.1650 C.2    92  VAL92       0.2260
     80  O        -26.3450   26.8490   -7.5390 O.2    92  VAL92      -0.2867
     81  CB       -26.4540   26.2290  -10.5110 C.3    92  VAL92       0.0252
     82  CG1      -26.5100   24.7170  -10.3930 C.3    92  VAL92       0.0019
     83  CG2      -26.5480   26.6190  -12.0000 C.3    92  VAL92       0.0019
     84  N        -27.1570   22.9570   -6.0390 N.3    94  SER94      -0.1217
     85  CA       -27.0950   21.5200   -6.1890 C.3    94  SER94       0.1889
     86  C        -26.6300   20.8640   -4.8890 C.2    94  SER94       0.2288
     87  O        -25.8860   21.4450   -4.1030 O.2    94  SER94      -0.2866
     88  CB       -26.1570   21.1320   -7.3530 C.3    94  SER94       0.2089
     89  OG       -26.4110   19.7830   -7.7060 O.3    94  SER94      -0.2183
     90  N        -25.1070   16.9350   -3.8260 N.3    96  ASN96      -0.1240
     91  CA       -24.6330   15.6150   -4.2280 C.3    96  ASN96       0.1653
     92  C        -24.9420   14.6290   -3.1060 C.2    96  ASN96       0.2266
     93  O        -24.4810   14.8170   -1.9850 O.2    96  ASN96      -0.2867
     94  CB       -23.1400   15.6520   -4.5040 C.3    96  ASN96       0.1155
     95  CG       -22.8070   16.3770   -5.7810 C.2    96  ASN96       0.2627
     96  OD1      -23.5940   16.3720   -6.7220 O.2    96  ASN96      -0.2716
     97  ND2      -21.6220   16.9940   -5.8330 N.am   96  ASN96      -0.0877
     98  N        -15.9720   10.3850   -4.6550 N.3   104  LEU104     -0.1231
     99  CA       -16.8360   10.0320   -5.7750 C.3   104  LEU104      0.1693
    100  C        -16.9200   11.1780   -6.7800 C.2   104  LEU104      0.2592
    101  O        -17.0110   12.3530   -6.4080 O.2   104  LEU104     -0.2718
    102  CB       -18.2320    9.6630   -5.2800 C.3   104  LEU104      0.0284
    103  CG       -18.4140    8.5030   -4.2850 C.3   104  LEU104      0.0019
    104  CD1      -19.8210    7.8960   -4.4430 C.3   104  LEU104      0.0001
    105  CD2      -17.3540    7.4090   -4.4080 C.3   104  LEU104      0.0001
    106  N        -16.8790   10.8270   -8.0660 N.am  105  ALA105     -0.1966
    107  CA       -17.0130   11.8080   -9.1390 C.3   105  ALA105      0.1728
    108  C        -18.4910   12.0810   -9.4060 C.2   105  ALA105      0.2617
    109  O        -19.2570   11.1630   -9.7380 O.2   105  ALA105     -0.2715
    110  CB       -16.3240   11.3130  -10.4050 C.3   105  ALA105      0.0334
    111  N        -18.8970   13.3390   -9.2630 N.am  106  SER106     -0.1936
    112  CA       -20.2880   13.7130   -9.4770 C.3   106  SER106      0.2055
    113  C        -20.4780   14.5870  -10.7090 C.2   106  SER106      0.2643
    114  O        -21.4930   15.2810  -10.8020 O.2   106  SER106     -0.2714
    115  CB       -20.8490   14.4160   -8.2340 C.3   106  SER106      0.2130
    116  OG       -20.9440   13.5070   -7.1390 O.3   106  SER106     -0.2179
    117  N        -19.5290   14.5850  -11.6590 N.am  107  SER107     -0.1949
    118  CA       -19.7510   15.3360  -12.8930 C.3   107  SER107      0.1924
    119  C        -20.8200   14.6670  -13.7490 C.2   107  SER107      0.2314
    120  O        -21.5830   15.3400  -14.4490 O.2   107  SER107     -0.2863
    121  CB       -18.4530   15.4840  -13.7100 C.3   107  SER107      0.2116
    122  OG       -18.2620   14.3920  -14.5880 O.3   107  SER107     -0.2180
    123  N        -24.0030   15.3890  -11.7430 N.3   110  GLY110     -0.1210
    124  CA       -24.1360   16.8280  -11.6230 C.3   110  GLY110      0.1956
    125  C        -24.4850   17.4930  -12.9370 C.2   110  GLY110      0.2611
    126  O        -25.4720   18.2280  -13.0250 O.2   110  GLY110     -0.2717
    127  N        -23.7070   17.2240  -13.9920 N.am  111  LEU111     -0.1979
    128  CA       -24.0160   17.8900  -15.2510 C.3   111  LEU111      0.1596
    129  C        -25.3230   17.3830  -15.8460 C.2   111  LEU111      0.2287
    130  O        -26.0370   18.1650  -16.4690 O.2   111  LEU111     -0.2864
    131  CB       -22.9000   17.7520  -16.2480 C.3   111  LEU111      0.0297
    132  CG       -21.8380   18.8560  -16.1650 C.3   111  LEU111      0.0022
    133  CD1      -22.4470   20.1900  -16.6070 C.3   111  LEU111      0.0001
    134  CD2      -21.2550   18.9570  -14.7800 C.3   111  LEU111      0.0001
    135  N        -28.0640   19.2460  -14.0580 N.3   114  LEU114     -0.1245
    136  CA       -28.1360   20.6370  -14.4830 C.3   114  LEU114      0.1561
    137  C        -28.7350   20.7410  -15.8750 C.2   114  LEU114      0.2260
    138  O        -29.5920   21.6100  -16.1340 O.2   114  LEU114     -0.2867
    139  CB       -26.7500   21.3080  -14.4020 C.3   114  LEU114      0.0270
    140  CG       -26.6590   22.7540  -14.9130 C.3   114  LEU114      0.0019
    141  CD1      -27.5910   23.6430  -14.1140 C.3   114  LEU114      0.0001
    142  CD2      -25.1840   23.3110  -14.9130 C.3   114  LEU114      0.0001
    143  N         -5.7540   14.5140  -12.8580 N.3   185  SER185     -0.1202
    144  CA        -6.9900   15.0430  -13.4390 C.3   185  SER185      0.2020
    145  C         -7.5320   14.1090  -14.5170 C.2   185  SER185      0.2619
    146  O         -6.7600   13.5140  -15.2630 O.2   185  SER185     -0.2717
    147  CB        -6.7590   16.4430  -14.0340 C.3   185  SER185      0.2103
    148  OG        -7.7950   16.7890  -14.9470 O.3   185  SER185     -0.2182
    149  N         -8.8600   13.9950  -14.6040 N.am  186  SER186     -0.1937
    150  CA        -9.4720   13.1220  -15.6060 C.3   186  SER186      0.2055
    151  C         -9.3130   13.6860  -17.0180 C.2   186  SER186      0.2642
    152  O         -8.9190   12.9670  -17.9510 O.2   186  SER186     -0.2714
    153  CB       -10.9560   12.9240  -15.2880 C.3   186  SER186      0.2130
    154  OG       -11.6040   12.2160  -16.3340 O.3   186  SER186     -0.2179
    155  N         -9.6520   14.9670  -17.2040 N.am  187  ARG187     -0.1977
    156  CA        -9.7240   15.5340  -18.5470 C.3   187  ARG187      0.1597
    157  C         -8.3360   15.8090  -19.1210 C.2   187  ARG187      0.2287
    158  O         -8.1260   15.6750  -20.3360 O.2   187  ARG187     -0.2864
    159  CB       -10.5790   16.8060  -18.5090 C.3   187  ARG187      0.0334
    160  CG       -10.7030   17.5430  -19.8270 C.3   187  ARG187      0.0492
    161  CD       -11.6720   18.7180  -19.7200 C.3   187  ARG187      0.2205
    162  NE       -13.0650   18.3000  -19.8700 N.pl3 187  ARG187     -0.0865
    163  CZ       -14.0640   19.1130  -20.2140 C.cat 187  ARG187      0.5346
    164  NH1      -13.8360   20.4060  -20.4420 N.pl3 187  ARG187      0.1354
    165  NH2      -15.3000   18.6300  -20.3310 N.pl3 187  ARG187      0.1354
    166  N        -10.7100    7.5310  -13.3150 N.3   278  ALA278     -0.1245
    167  CA        -9.5550    8.4350  -13.2020 C.3   278  ALA278      0.1562
    168  C         -9.2840    8.8480  -11.7560 C.2   278  ALA278      0.2260
    169  O         -9.3840   10.0120  -11.3770 O.2   278  ALA278     -0.2867
    170  CB        -9.7680    9.6630  -14.0660 C.3   278  ALA278      0.0290
@<TRIPOS>BOND
     1   164   163    1
     2   158   157    2
     3   165   163    1
     4   163   162    2
     5   162   161    1
     6   160   161    1
     7   160   159    1
     8   157   156    1
     9   156   159    1
    10   156   155    1
    11   152   151    2
    12   155   151   am
    13   151   150    1
    14    64    63    2
    15   133   132    1
    16    68    69    1
    17    68    67    1
    18   130   129    2
    19   154   153    1
    20    73    72    2
    21   131   132    1
    22   131   128    1
    23   132   134    1
    24   138   137    2
    25    66    67    1
    26    66    65    1
    27   137   136    1
    28   129   128    1
    29    63    62    1
    30    63    70   am
    31    62    65    1
    32    62    61    1
    33   150   153    1
    34   150   149    1
    35    72    71    1
    36   146   145    2
    37   128   127    1
    38   148   147    1
    39   142   140    1
    40   140   139    1
    41   140   141    1
    42    70    71    1
    43    71    74    1
    44   149   145   am
    45   122   121    1
    46   145   144    1
    47   136   139    1
    48   136   135    1
    49   120   119    2
    50   170   167    1
    51   147   144    1
    52   127   125   am
    53   119   118    1
    54   121   118    1
    55   144   143    1
    56   166   167    1
    57   167   168    1
    58    74    75    1
    59    74    76    1
    60   126   125    2
    61   125   124    1
    62   118   117    1
    63    83    81    1
    64   168   169    2
    65   123   124    1
    66   117   113   am
    67    46    45    2
    68   114   113    2
    69   113   112    1
    70    14    12    1
    71    81    82    1
    72    81    78    1
    73    50    51    1
    74    50    49    1
    75    44    45    1
    76    44    43    1
    77    44    47    1
    78   110   107    1
    79    48    49    1
    80    48    47    1
    81    45    52   am
    82    12    13    1
    83    12     9    1
    84    11    10    2
    85    55    54    2
    86   109   108    2
    87    54    53    1
    88    77    78    1
    89    78    79    1
    90   112   111    1
    91   112   115    1
    92   108   111   am
    93   108   107    1
    94    10     9    1
    95   107   106    1
    96    52    53    1
    97    22    24   ar
    98    22    20   ar
    99    19    20    1
   100    19    16    1
   101    24    25   ar
   102    53    56    1
   103     9     8    1
   104    20    21   ar
   105    25    23   ar
   106     5     6    1
   107     5     7    1
   108     5     2    1
   109    21    23   ar
   110     4     3    2
   111    15    16    1
   112   115   116    1
   113    79    80    2
   114    16    17    1
   115   106   100   am
   116     1     2    1
   117     3     2    1
   118    89    88    1
   119    56    57    1
   120    88    85    1
   121   100   101    2
   122   100    99    1
   123    96    95    2
   124    17    18    2
   125    57    58    1
   126    38    39    1
   127    38    35    1
   128    85    84    1
   129    85    86    1
   130    37    36    2
   131    97    95   am
   132    95    94    1
   133    36    35    1
   134    39    40    1
   135    99   102    1
   136    99    98    1
   137    32    31    1
   138    41    40    2
   139   102   103    1
   140    33    31    1
   141    35    34    1
   142    58    59    2
   143    58    60   am
   144    86    87    2
   145    40    42   am
   146    30    31    1
   147    30    27    1
   148    94    91    1
   149   104   103    1
   150   105   103    1
   151    91    90    1
   152    91    92    1
   153    26    27    1
   154    27    28    1
   155    92    93    2
   156    28    29    2
