@<TRIPOS>MOLECULE
tmp/5v2oA01.pdb
 81 73 0 0 0
SMALL
GASTEIGER

@<TRIPOS>ATOM
      1  N         -2.6420   45.5850   35.8760 N.3     8  ILE8       -0.1301
      2  CA        -1.4270   44.8750   35.4010 C.3     8  ILE8        0.1246
      3  C         -0.5430   45.8890   34.6650 C.3     8  ILE8        0.2009
      4  O          0.7320   45.8170   34.8530 O.3     8  ILE8       -0.2188
      5  CB        -1.8650   43.7930   34.4160 C.3     8  ILE8        0.0202
      6  CG1       -2.5320   42.5950   35.2060 C.3     8  ILE8        0.0015
      7  CG2       -0.6640   43.2600   33.6520 C.3     8  ILE8        0.0016
      8  CD1       -3.2370   41.5860   34.2790 C.3     8  ILE8        0.0000
      9  N          1.2250   47.9950   37.2970 N.3    11  CYS11      -0.1221
     10  CA         2.1780   47.2110   38.0800 C.3    11  CYS11       0.1808
     11  C          3.4310   46.9720   37.2580 C.2    11  CYS11       0.2601
     12  O          4.5610   47.0510   37.8280 O.2    11  CYS11      -0.2717
     13  CB         1.4690   45.8820   38.4400 C.3    11  CYS11       0.0970
     14  SG         2.0490   45.0640   39.9640 S.3    11  CYS11      -0.0800
     15  N          3.2780   46.7670   35.9350 N.am   12  THR12      -0.1953
     16  CA         4.4290   46.5620   35.0690 C.3    12  THR12       0.1897
     17  C          5.3190   47.8440   35.1230 C.2    12  THR12       0.2313
     18  O          6.5150   47.7880   35.2650 O.2    12  THR12      -0.2863
     19  CB         3.9470   46.3600   33.6370 C.3    12  THR12       0.1794
     20  OG1        3.1330   45.1660   33.6030 O.3    12  THR12      -0.2208
     21  CG2        5.1480   46.1370   32.7130 C.3    12  THR12       0.0378
     22  N          7.2110   48.1500   38.4490 N.3    15  LEU15      -0.1245
     23  CA         8.3620   47.2520   38.5460 C.3    15  LEU15       0.1561
     24  C          9.4880   47.7820   37.7390 C.2    15  LEU15       0.2260
     25  O         10.6740   47.7640   38.1980 O.2    15  LEU15      -0.2867
     26  CB         8.1150   45.8100   38.1250 C.3    15  LEU15       0.0270
     27  CG         7.1360   45.0440   38.9160 C.3    15  LEU15       0.0019
     28  CD1        7.0160   43.5750   38.3650 C.3    15  LEU15       0.0001
     29  CD2        7.5440   44.8850   40.4190 C.3    15  LEU15       0.0001
     30  N          6.7620   38.9340   35.6390 N.3    31  CYS31      -0.1235
     31  CA         5.8810   39.8270   34.9970 C.3    31  CYS31       0.1677
     32  C          5.9070   39.6800   33.4970 C.2    31  CYS31       0.2270
     33  O          4.8100   39.5710   32.8550 O.2    31  CYS31      -0.2867
     34  CB         6.2450   41.2900   35.4280 C.3    31  CYS31       0.0956
     35  SG         5.4160   42.5990   34.5210 S.3    31  CYS31      -0.0801
     36  N          4.1630   36.4600   32.4330 N.3    34  LEU34      -0.1231
     37  CA         2.6760   36.5560   32.4720 C.3    34  LEU34       0.1693
     38  C          2.1980   37.4070   31.4030 C.2    34  LEU34       0.2591
     39  O          1.1810   37.0390   30.7090 O.2    34  LEU34      -0.2718
     40  CB         2.2960   37.2250   33.8660 C.3    34  LEU34       0.0284
     41  CG         0.7570   37.4400   33.9810 C.3    34  LEU34       0.0019
     42  CD1        0.0310   36.0510   34.0220 C.3    34  LEU34       0.0001
     43  CD2        0.4520   38.2330   35.2450 C.3    34  LEU34       0.0001
     44  N          2.8420   38.5740   31.1010 N.am   35  LEU35      -0.1980
     45  CA         2.3940   39.4110   30.0150 C.3    35  LEU35       0.1596
     46  C          2.3960   38.7070   28.6420 C.2    35  LEU35       0.2287
     47  O          1.6480   39.1140   27.7600 O.2    35  LEU35      -0.2864
     48  CB         3.2540   40.6580   29.9430 C.3    35  LEU35       0.0297
     49  CG         3.0510   41.6830   31.1160 C.3    35  LEU35       0.0022
     50  CD1        3.9460   42.9060   30.8610 C.3    35  LEU35       0.0001
     51  CD2        1.5970   42.1740   31.2130 C.3    35  LEU35       0.0001
     52  N          1.5510   34.9520   40.4940 N.3    51  CYS51      -0.1292
     53  CA         1.9570   36.3850   40.4660 C.3    51  CYS51       0.1363
     54  C          0.9220   37.1950   41.2830 C.3    51  CYS51       0.2019
     55  O          1.1450   38.4450   41.5040 O.3    51  CYS51      -0.2188
     56  CB         1.9440   36.8280   38.9800 C.3    51  CYS51       0.0903
     57  SG         3.0450   38.2130   38.6300 S.3    51  CYS51      -0.0805
     58  N          1.9720   39.7390   44.0300 N.3    54  LEU54      -0.1231
     59  CA         2.5770   40.9940   43.6630 C.3    54  LEU54       0.1693
     60  C          1.5370   42.0150   43.1750 C.2    54  LEU54       0.2591
     61  O          1.6240   43.2330   43.5130 O.2    54  LEU54      -0.2718
     62  CB         3.6030   40.8530   42.5400 C.3    54  LEU54       0.0284
     63  CG         4.7810   39.9530   42.9280 C.3    54  LEU54       0.0019
     64  CD1        5.7540   39.7160   41.7620 C.3    54  LEU54       0.0001
     65  CD2        5.5760   40.5810   44.1590 C.3    54  LEU54       0.0001
     66  N          0.5940   41.5750   42.3310 N.am   55  LEU55      -0.1980
     67  CA        -0.4910   42.4390   41.9340 C.3    55  LEU55       0.1596
     68  C         -1.3150   42.9620   43.1450 C.2    55  LEU55       0.2287
     69  O         -1.6820   44.1480   43.1820 O.2    55  LEU55      -0.2864
     70  CB        -1.5300   41.6970   40.9930 C.3    55  LEU55       0.0297
     71  CG        -0.9850   41.5170   39.5600 C.3    55  LEU55       0.0022
     72  CD1       -1.8210   40.3920   38.8430 C.3    55  LEU55       0.0001
     73  CD2       -1.0090   42.8360   38.7310 C.3    55  LEU55       0.0001
     74  N          0.5190   45.8420   44.9780 N.3    58  LEU58      -0.1245
     75  CA         0.6000   47.1250   44.3860 C.3    58  LEU58       0.1561
     76  C         -0.7850   47.6440   43.8560 C.2    58  LEU58       0.2260
     77  O         -0.8110   48.7510   43.2670 O.2    58  LEU58      -0.2867
     78  CB         1.6260   47.1650   43.2360 C.3    58  LEU58       0.0270
     79  CG         3.0350   46.7620   43.7160 C.3    58  LEU58       0.0019
     80  CD1        4.0620   46.9210   42.6280 C.3    58  LEU58       0.0001
     81  CD2        3.4460   47.6970   44.9100 C.3    58  LEU58       0.0001
@<TRIPOS>BOND
     1    47    46    2
     2    46    45    1
     3    48    45    1
     4    48    49    1
     5    45    44    1
     6    39    38    2
     7    50    49    1
     8    44    38   am
     9    49    51    1
    10    38    37    1
    11    36    37    1
    12    37    40    1
    13    21    19    1
    14    33    32    2
    15    32    31    1
    16    20    19    1
    17    19    16    1
    18     7     5    1
    19    40    41    1
    20    41    42    1
    21    41    43    1
    22     8     6    1
    23     5     6    1
    24     5     2    1
    25    35    34    1
    26     3     4    1
    27     3     2    1
    28    31    34    1
    29    31    30    1
    30    16    17    1
    31    16    15    1
    32    17    18    2
    33     2     1    1
    34    15    11   am
    35    11    12    2
    36    11    10    1
    37     9    10    1
    38    24    25    2
    39    24    23    1
    40    10    13    1
    41    26    23    1
    42    26    27    1
    43    28    27    1
    44    13    14    1
    45    22    23    1
    46    57    56    1
    47    73    71    1
    48    72    71    1
    49    27    29    1
    50    56    53    1
    51    71    70    1
    52    53    52    1
    53    53    54    1
    54    70    67    1
    55    54    55    1
    56    64    63    1
    57    67    66    1
    58    67    68    1
    59    66    60   am
    60    62    63    1
    61    62    59    1
    62    80    79    1
    63    63    65    1
    64    68    69    2
    65    60    61    2
    66    60    59    1
    67    78    79    1
    68    78    75    1
    69    77    76    2
    70    59    58    1
    71    79    81    1
    72    76    75    1
    73    75    74    1
