@<TRIPOS>MOLECULE
tmp/5v2oE00.pdb
 89 82 0 0 0
SMALL
GASTEIGER

@<TRIPOS>ATOM
      1  N         -3.7640   34.8010   69.9760 N.3     9  ALA9       -0.1231
      2  CA        -2.4920   35.0780   69.3140 C.3     9  ALA9        0.1694
      3  C         -2.6640   35.3930   67.8360 C.2     9  ALA9        0.2592
      4  O         -1.7290   35.9610   67.2380 O.2     9  ALA9       -0.2718
      5  CB        -1.5720   33.8260   69.4910 C.3     9  ALA9        0.0304
      6  N         -3.7560   34.9320   67.2650 N.am   10  ARG10      -0.1966
      7  CA        -3.9660   35.1120   65.8040 C.3    10  ARG10       0.1729
      8  C         -2.8030   34.4310   65.0340 C.2    10  ARG10       0.2616
      9  O         -2.4340   34.8550   63.9340 O.2    10  ARG10      -0.2715
     10  CB        -4.1320   36.5480   65.3330 C.3    10  ARG10       0.0348
     11  CG        -5.3730   37.2220   66.0170 C.3    10  ARG10       0.0492
     12  CD        -5.4690   38.6610   65.6680 C.3    10  ARG10       0.2205
     13  NE        -5.7310   38.8390   64.1970 N.pl3  10  ARG10      -0.0865
     14  CZ        -6.9370   38.9160   63.6940 C.cat  10  ARG10       0.5346
     15  NH1       -7.0940   39.0510   62.3920 N.pl3  10  ARG10       0.1354
     16  NH2       -8.0490   38.8060   64.4680 N.pl3  10  ARG10       0.1354
     17  N         -2.3560   33.2820   65.5790 N.am   11  CYS11      -0.1968
     18  CA        -1.2430   32.5530   64.9200 C.3    11  CYS11       0.1712
     19  C         -1.6820   31.9330   63.6060 C.2    11  CYS11       0.2296
     20  O         -0.9940   32.0750   62.6030 O.2    11  CYS11      -0.2864
     21  CB        -0.7170   31.5180   65.8970 C.3    11  CYS11       0.0983
     22  SG         0.7360   30.6530   65.3040 S.3    11  CYS11      -0.0798
     23  N         -2.0060   34.7000   61.0360 N.3    14  LEU14      -0.1231
     24  CA        -0.6860   35.0810   60.5410 C.3    14  LEU14       0.1693
     25  C         -0.1750   34.0630   59.5210 C.2    14  LEU14       0.2591
     26  O          0.3470   34.4520   58.4400 O.2    14  LEU14      -0.2718
     27  CB         0.2830   35.2970   61.6520 C.3    14  LEU14       0.0284
     28  CG         1.6650   35.7780   61.0410 C.3    14  LEU14       0.0019
     29  CD1        1.5940   37.1270   60.3090 C.3    14  LEU14       0.0001
     30  CD2        2.6170   35.8570   62.2080 C.3    14  LEU14       0.0001
     31  N         -0.2430   32.7650   59.8510 N.am   15  LEU15      -0.1980
     32  CA         0.2230   31.7430   58.8620 C.3    15  LEU15       0.1596
     33  C         -0.5580   31.8180   57.5800 C.2    15  LEU15       0.2287
     34  O          0.0250   31.7040   56.5060 O.2    15  LEU15      -0.2864
     35  CB         0.1530   30.3890   59.5490 C.3    15  LEU15       0.0297
     36  CG         1.1430   30.2010   60.7110 C.3    15  LEU15       0.0022
     37  CD1        0.8580   28.8970   61.4610 C.3    15  LEU15       0.0001
     38  CD2        2.6260   30.3070   60.3270 C.3    15  LEU15       0.0001
     39  N          0.6220   40.9310   64.9720 N.3    31  CYS31      -0.1235
     40  CA         1.4450   40.0110   65.7360 C.3    31  CYS31       0.1677
     41  C          2.6020   40.8080   66.4240 C.2    31  CYS31       0.2270
     42  O          2.9280   40.5480   67.5600 O.2    31  CYS31      -0.2867
     43  CB         1.9680   38.9710   64.7380 C.3    31  CYS31       0.0956
     44  SG         2.8740   37.6060   65.5810 S.3    31  CYS31      -0.0801
     45  N          1.2590   42.3550   69.5590 N.3    34  LEU34      -0.1231
     46  CA         1.1840   41.3470   70.5800 C.3    34  LEU34       0.1693
     47  C          2.5770   41.0910   71.1650 C.2    34  LEU34       0.2591
     48  O          2.7150   41.1010   72.3960 O.2    34  LEU34      -0.2718
     49  CB         0.5050   40.0300   70.0740 C.3    34  LEU34       0.0284
     50  CG         0.5340   38.9070   71.0930 C.3    34  LEU34       0.0019
     51  CD1       -0.3650   39.1920   72.2940 C.3    34  LEU34       0.0001
     52  CD2       -0.0360   37.6630   70.4240 C.3    34  LEU34       0.0001
     53  N          3.5640   40.8800   70.3240 N.am   35  LEU35      -0.1980
     54  CA         4.8940   40.4650   70.7570 C.3    35  LEU35       0.1596
     55  C          5.7150   41.6530   71.2780 C.2    35  LEU35       0.2287
     56  O          6.7040   41.4330   71.9010 O.2    35  LEU35      -0.2864
     57  CB         5.6160   39.7270   69.6270 C.3    35  LEU35       0.0297
     58  CG         4.9180   38.3700   69.2570 C.3    35  LEU35       0.0022
     59  CD1        5.7950   37.7240   68.1410 C.3    35  LEU35       0.0001
     60  CD2        4.8660   37.5080   70.4500 C.3    35  LEU35       0.0001
     61  N          8.2070   34.9190   66.5880 N.3    48  ILE48      -0.1245
     62  CA         6.9850   34.1510   66.2080 C.3    48  ILE48       0.1561
     63  C          7.2190   32.7080   66.5100 C.2    48  ILE48       0.2260
     64  O          6.3750   32.0250   67.0430 O.2    48  ILE48      -0.2867
     65  CB         6.6760   34.4050   64.7420 C.3    48  ILE48       0.0252
     66  CG1        6.1970   35.8330   64.5100 C.3    48  ILE48       0.0019
     67  CG2        5.6400   33.3910   64.2240 C.3    48  ILE48       0.0019
     68  CD1        6.2000   36.2330   63.0330 C.3    48  ILE48       0.0001
     69  N          7.0280   32.1430   70.2290 N.3    51  CYS51      -0.1221
     70  CA         5.5900   32.2940   70.7160 C.3    51  CYS51       0.1808
     71  C          4.8220   31.0280   70.3380 C.2    51  CYS51       0.2601
     72  O          4.0080   30.5370   71.1050 O.2    51  CYS51      -0.2717
     73  CB         5.0240   33.5630   70.1090 C.3    51  CYS51       0.0970
     74  SG         3.4170   34.0010   70.8680 S.3    51  CYS51      -0.0800
     75  N          5.1000   30.4850   69.1200 N.am   52  THR52      -0.1953
     76  CA         4.3880   29.3420   68.6840 C.3    52  THR52       0.1897
     77  C          4.7740   28.1390   69.5430 C.2    52  THR52       0.2313
     78  O          3.9280   27.2860   69.8980 O.2    52  THR52      -0.2863
     79  CB         4.6420   29.0540   67.1650 C.3    52  THR52       0.1794
     80  OG1        4.3500   30.2280   66.4110 O.3    52  THR52      -0.2208
     81  CG2        3.7200   27.9430   66.7200 C.3    52  THR52       0.0378
     82  N          2.7490   28.4360   72.6350 N.3    55  LEU55      -0.1245
     83  CA         1.3510   27.9420   72.4470 C.3    55  LEU55       0.1561
     84  C          1.3450   26.4300   72.5180 C.2    55  LEU55       0.2260
     85  O          0.4340   25.8680   73.0850 O.2    55  LEU55      -0.2867
     86  CB         0.8300   28.4240   71.0730 C.3    55  LEU55       0.0270
     87  CG         0.5920   29.8630   70.9170 C.3    55  LEU55       0.0019
     88  CD1        0.0260   30.1950   69.4900 C.3    55  LEU55       0.0001
     89  CD2       -0.4180   30.3410   71.9620 C.3    55  LEU55       0.0001
@<TRIPOS>BOND
     1    34    33    2
     2    33    32    1
     3    26    25    2
     4    32    35    1
     5    32    31    1
     6    25    31   am
     7    25    24    1
     8    35    36    1
     9    29    28    1
    10    38    36    1
    11    24    23    1
    12    24    27    1
    13    36    37    1
    14    28    27    1
    15    28    30    1
    16    15    14    1
    17    20    19    2
    18    68    66    1
    19    19    18    1
    20    14    13    2
    21    14    16    1
    22     9     8    2
    23    13    12    1
    24    67    65    1
    25    66    65    1
    26    43    44    1
    27    43    40    1
    28    65    62    1
    29    18    17    1
    30    18    21    1
    31    39    40    1
    32     8    17   am
    33     8     7    1
    34    22    21    1
    35    10     7    1
    36    10    11    1
    37    12    11    1
    38    40    41    1
    39     7     6    1
    40    62    63    1
    41    62    61    1
    42    80    79    1
    43    41    42    2
    44    63    64    2
    45    81    79    1
    46    79    76    1
    47     4     3    2
    48     6     3   am
    49     3     2    1
    50    59    58    1
    51    76    75    1
    52    76    77    1
    53    75    71   am
    54    58    57    1
    55    58    60    1
    56     2     5    1
    57     2     1    1
    58    88    87    1
    59    77    78    2
    60    45    46    1
    61    57    54    1
    62    49    46    1
    63    49    50    1
    64    73    70    1
    65    73    74    1
    66    69    70    1
    67    53    54    1
    68    53    47   am
    69    71    70    1
    70    71    72    2
    71    52    50    1
    72    46    47    1
    73    54    55    1
    74    87    86    1
    75    87    89    1
    76    86    83    1
    77    50    51    1
    78    47    48    2
    79    55    56    2
    80    83    84    1
    81    83    82    1
    82    84    85    2
