@<TRIPOS>MOLECULE
tmp/5v2pA00.pdb
 93 92 0 0 0
SMALL
GASTEIGER

@<TRIPOS>ATOM
      1  N          8.0600   40.4340  109.2240 N.3    21  GLN21      -0.1245
      2  CA         8.3360   40.6010  110.6560 C.3    21  GLN21       0.1566
      3  C          8.9150   39.3070  111.2620 C.2    21  GLN21       0.2260
      4  O          9.7930   39.3530  112.1390 O.2    21  GLN21      -0.2867
      5  CB         7.0740   41.0240  111.4260 C.3    21  GLN21       0.0367
      6  CG         7.3260   41.3200  112.9040 C.3    21  GLN21       0.0905
      7  CD         6.0970   41.8030  113.6640 C.2    21  GLN21       0.2608
      8  OE1        5.1110   42.2360  113.0730 O.2    21  GLN21      -0.2717
      9  NE2        6.1580   41.7260  114.9850 N.am   21  GLN21      -0.0878
     10  N         16.5730   38.6470  116.4710 N.3    28  LYS28      -0.1245
     11  CA        16.2510   39.3330  117.7220 C.3    28  LYS28       0.1561
     12  C         16.5320   38.4240  118.9120 C.2    28  LYS28       0.2260
     13  O         16.5090   37.1970  118.7830 O.2    28  LYS28      -0.2867
     14  CB        14.7880   39.7600  117.7700 C.3    28  LYS28       0.0271
     15  CG        14.5370   41.1840  117.3240 C.3    28  LYS28       0.0035
     16  CD        14.9020   41.3810  115.8680 C.3    28  LYS28       0.0206
     17  CE        14.4600   42.7530  115.3720 C.3    28  LYS28       0.1093
     18  NZ        12.9720   42.9010  115.3500 N.3    28  LYS28      -0.1314
     19  N         13.0210   37.4040  124.6640 N.3    31  ALA31      -0.1231
     20  CA        12.5400   38.3570  125.6730 C.3    31  ALA31       0.1694
     21  C         12.1660   37.6470  126.9630 C.2    31  ALA31       0.2592
     22  O         12.5200   38.0850  128.0440 O.2    31  ALA31      -0.2718
     23  CB        11.3500   39.1490  125.1420 C.3    31  ALA31       0.0304
     24  N         11.4350   36.5500  126.8400 N.am   32  PHE32      -0.1976
     25  CA        11.0840   35.7270  127.9890 C.3    32  PHE32       0.1639
     26  C         10.6880   34.3280  127.5020 C.2    32  PHE32       0.2290
     27  O         10.5810   34.0890  126.2990 O.2    32  PHE32      -0.2864
     28  CB         9.9490   36.3740  128.8180 C.3    32  PHE32       0.0560
     29  CG         8.6450   36.4770  128.0840 C.ar   32  PHE32      -0.0200
     30  CD1        8.4090   37.5230  127.2020 C.ar   32  PHE32      -0.0042
     31  CD2        7.6480   35.5220  128.2700 C.ar   32  PHE32      -0.0042
     32  CE1        7.2030   37.6180  126.5160 C.ar   32  PHE32      -0.0003
     33  CE2        6.4460   35.6040  127.5830 C.ar   32  PHE32      -0.0003
     34  CZ         6.2210   36.6540  126.7040 C.ar   32  PHE32      -0.0000
     35  N          9.9060   33.2840  123.6080 N.3    65  VAL65      -0.1231
     36  CA         9.1490   34.3470  122.9640 C.3    65  VAL65       0.1692
     37  C         10.0670   35.5210  122.6550 C.2    65  VAL65       0.2592
     38  O         10.7280   36.0280  123.5380 O.2    65  VAL65      -0.2718
     39  CB         8.0020   34.8480  123.8690 C.3    65  VAL65       0.0266
     40  CG1        7.1510   35.8420  123.0970 C.3    65  VAL65       0.0020
     41  CG2        7.1470   33.6880  124.3410 C.3    65  VAL65       0.0020
     42  N         10.0880   35.9500  121.3990 N.am   66  LYS66      -0.1966
     43  CA        10.9250   37.0740  120.9750 C.3    66  LYS66       0.1728
     44  C         10.1590   38.3870  121.0330 C.2    66  LYS66       0.2616
     45  O         10.6670   39.3900  121.5400 O.2    66  LYS66      -0.2715
     46  CB        11.4110   36.8750  119.5430 C.3    66  LYS66       0.0311
     47  CG        12.0620   35.5330  119.2680 C.3    66  LYS66       0.0038
     48  CD        13.5720   35.5800  119.3070 C.3    66  LYS66       0.0206
     49  CE        14.1480   34.4410  118.4800 C.3    66  LYS66       0.1093
     50  NZ        15.4800   34.7420  117.9240 N.3    66  LYS66      -0.1314
     51  N          8.9440   38.3750  120.4910 N.am   67  GLU67      -0.1963
     52  CA         8.1110   39.5790  120.4240 C.3    67  GLU67       0.1733
     53  C          6.6420   39.3210  120.1360 C.2    67  GLU67       0.2616
     54  O          6.2190   38.1790  119.8880 O.2    67  GLU67      -0.2715
     55  CB         8.6650   40.5600  119.3840 C.3    67  GLU67       0.0429
     56  CG         8.4940   40.1520  117.9330 C.3    67  GLU67       0.1163
     57  CD         9.3470   40.9960  117.0080 C.2    67  GLU67       0.3649
     58  OE1       10.3950   41.4860  117.4760 O.co2  67  GLU67      -0.2457
     59  OE2        8.9720   41.1730  115.8220 O.co2  67  GLU67      -0.2457
     60  N          5.8810   40.4090  120.1750 N.am   68  LYS68      -0.1963
     61  CA         4.4520   40.3830  119.9420 C.3    68  LYS68       0.1728
     62  C          4.1990   40.7790  118.4970 C.2    68  LYS68       0.2616
     63  O          4.7830   41.7310  117.9940 O.2    68  LYS68      -0.2715
     64  CB         3.7910   41.3640  120.9040 C.3    68  LYS68       0.0311
     65  CG         2.2700   41.4120  120.8920 C.3    68  LYS68       0.0038
     66  CD         1.8020   42.6990  121.5570 C.3    68  LYS68       0.0206
     67  CE         0.3440   42.6470  121.9600 C.3    68  LYS68       0.1093
     68  NZ         0.0700   43.6210  123.0530 N.3    68  LYS68      -0.1314
     69  N          3.3790   40.0030  117.8040 N.am   69  PHE69      -0.1974
     70  CA         2.8860   40.3980  116.5010 C.3    69  PHE69       0.1639
     71  C          1.6050   41.2450  116.6990 C.2    69  PHE69       0.2290
     72  O          1.5150   42.3620  116.2010 O.2    69  PHE69      -0.2864
     73  CB         2.6120   39.1710  115.6280 C.3    69  PHE69       0.0560
     74  CG         1.8660   39.4980  114.3830 C.ar   69  PHE69      -0.0200
     75  CD1        2.5340   39.9840  113.2830 C.ar   69  PHE69      -0.0042
     76  CD2        0.4930   39.3820  114.3340 C.ar   69  PHE69      -0.0042
     77  CE1        1.8480   40.3280  112.1420 C.ar   69  PHE69      -0.0003
     78  CE2       -0.2010   39.7280  113.1970 C.ar   69  PHE69      -0.0003
     79  CZ         0.4870   40.1980  112.0980 C.ar   69  PHE69      -0.0000
     80  N          1.9350   35.9210  119.4450 N.3    74  TRP74      -0.1241
     81  CA         3.3510   36.2310  119.6600 C.3    74  TRP74       0.1605
     82  C          4.2150   35.5590  118.6020 C.2    74  TRP74       0.2264
     83  O          3.7460   34.7200  117.8330 O.2    74  TRP74      -0.2867
     84  CB         3.8080   35.7770  121.0380 C.3    74  TRP74       0.0550
     85  CG         3.0560   36.3480  122.1910 C.ar   74  TRP74       0.0003
     86  CD1        2.3260   37.5060  122.2210 C.ar   74  TRP74       0.0946
     87  CD2        2.9920   35.7990  123.5070 C.ar   74  TRP74       0.0152
     88  NE1        1.7960   37.6950  123.4730 N.ar   74  TRP74      -0.2442
     89  CE2        2.1920   36.6600  124.2810 C.ar   74  TRP74       0.0810
     90  CE3        3.5270   34.6500  124.1050 C.ar   74  TRP74       0.0012
     91  CZ2        1.9180   36.4140  125.6280 C.ar   74  TRP74       0.0191
     92  CZ3        3.2550   34.4050  125.4350 C.ar   74  TRP74       0.0001
     93  CH2        2.4540   35.2860  126.1840 C.ar   74  TRP74       0.0015
@<TRIPOS>BOND
     1     1     2    1
     2     2     3    1
     3     2     5    1
     4     3     4    2
     5     5     6    1
     6    79    77   ar
     7    79    78   ar
     8    77    75   ar
     9     6     7    1
    10     8     7    2
    11    78    76   ar
    12    75    74   ar
    13     7     9   am
    14    76    74   ar
    15    74    73    1
    16    18    17    1
    17    17    16    1
    18    73    70    1
    19    59    57   ar
    20    16    15    1
    21    72    71    2
    22    10    11    1
    23    70    71    1
    24    70    69    1
    25    57    58   ar
    26    57    56    1
    27    15    14    1
    28    11    14    1
    29    11    12    1
    30    69    62   am
    31    83    82    2
    32    50    49    1
    33    56    55    1
    34    63    62    2
    35    49    48    1
    36    62    61    1
    37    82    81    1
    38    13    12    2
    39    47    48    1
    40    47    46    1
    41    55    52    1
    42    80    81    1
    43    46    43    1
    44    81    84    1
    45    54    53    2
    46    61    60    1
    47    61    64    1
    48    53    60   am
    49    53    52    1
    50    52    51    1
    51    51    44   am
    52    65    64    1
    53    65    66    1
    54    43    44    1
    55    43    42    1
    56    44    45    2
    57    84    85    1
    58    42    37   am
    59    66    67    1
    60    67    68    1
    61    85    86   ar
    62    85    87   ar
    63    86    88   ar
    64    37    36    1
    65    37    38    2
    66    36    35    1
    67    36    39    1
    68    40    39    1
    69    88    89   ar
    70    87    90   ar
    71    87    89   ar
    72    39    41    1
    73    90    92   ar
    74    89    91   ar
    75    19    20    1
    76    23    20    1
    77    92    93   ar
    78    91    93   ar
    79    20    21    1
    80    27    26    2
    81    32    34   ar
    82    32    30   ar
    83    34    33   ar
    84    24    21   am
    85    24    25    1
    86    21    22    2
    87    30    29   ar
    88    26    25    1
    89    33    31   ar
    90    25    28    1
    91    29    31   ar
    92    29    28    1
