@<TRIPOS>MOLECULE
tmp/5v2zA01.pdb
 151 146 0 0 0
SMALL
GASTEIGER

@<TRIPOS>ATOM
      1  N         11.6170   -2.2530   11.1780 N.3    83  GLU83      -0.1231
      2  CA        11.0450   -3.2520   10.2890 C.3    83  GLU83       0.1699
      3  C         12.1170   -3.8420    9.4020 C.2    83  GLU83       0.2592
      4  O         13.0290   -3.1500    8.9660 O.2    83  GLU83      -0.2718
      5  CB         9.9540   -2.6530    9.4250 C.3    83  GLU83       0.0402
      6  CG         9.2590   -3.7200    8.5800 C.3    83  GLU83       0.1161
      7  CD         7.8680   -3.3490    8.1230 C.2    83  GLU83       0.3649
      8  OE1        7.3330   -2.3110    8.6060 O.co2  83  GLU83      -0.2457
      9  OE2        7.2980   -4.0880    7.2820 O.co2  83  GLU83      -0.2457
     10  N         11.9960   -5.1370    9.1250 N.am   84  VAL84      -0.1966
     11  CA        12.8840   -5.8530    8.2270 C.3    84  VAL84       0.1727
     12  C         12.1010   -6.2110    6.9670 C.2    84  VAL84       0.2617
     13  O         10.9870   -6.7480    7.0440 O.2    84  VAL84      -0.2715
     14  CB        13.4360   -7.1260    8.9010 C.3    84  VAL84       0.0290
     15  CG1       14.4320   -7.8140    7.9890 C.3    84  VAL84       0.0023
     16  CG2       14.0510   -6.8120   10.2720 C.3    84  VAL84       0.0023
     17  N         12.6940   -5.9420    5.8020 N.am   85  THR85      -0.1937
     18  CA        12.1960   -6.4310    4.5140 C.3    85  THR85       0.2028
     19  C         13.3680   -7.1040    3.8220 C.2    85  THR85       0.2642
     20  O         14.4020   -6.4720    3.5910 O.2    85  THR85      -0.2714
     21  CB        11.6910   -5.2770    3.6500 C.3    85  THR85       0.1808
     22  OG1       10.5730   -4.6790    4.3000 O.3    85  THR85      -0.2208
     23  CG2       11.2620   -5.7600    2.2590 C.3    85  THR85       0.0379
     24  N         13.2180   -8.3750    3.4580 N.am   86  ALA86      -0.1977
     25  CA        14.3030   -9.0800    2.7450 C.3    86  ALA86       0.1597
     26  C         15.6430   -8.9550    3.4740 C.2    86  ALA86       0.2287
     27  O         16.6830   -8.7080    2.8590 O.2    86  ALA86      -0.2864
     28  CB        14.4170   -8.5910    1.3010 C.3    86  ALA86       0.0319
     29  N         14.1830   -1.3150    7.1070 N.3    90  ASP90      -0.1239
     30  CA        13.4690   -0.2330    6.4310 C.3    90  ASP90       0.1674
     31  C         13.5290    1.0240    7.2950 C.2    90  ASP90       0.2266
     32  O         13.5420    0.9460    8.5290 O.2    90  ASP90      -0.2867
     33  CB        11.9990   -0.6080    6.2430 C.3    90  ASP90       0.1410
     34  CG        11.7960   -1.7670    5.2870 C.2    90  ASP90       0.3668
     35  OD1       12.5940   -1.9660    4.3250 O.co2  90  ASP90      -0.2456
     36  OD2       10.7470   -2.4290    5.4840 O.co2  90  ASP90      -0.2456
     37  N         -6.4770   -2.6220    7.8700 N.3   168  HIS168     -0.1241
     38  CA        -5.4540   -1.9940    8.6840 C.3   168  HIS168      0.1621
     39  C         -4.7720   -0.9170    7.8770 C.2   168  HIS168      0.2264
     40  O         -5.0130   -0.7690    6.6720 O.2   168  HIS168     -0.2867
     41  CB        -4.5090   -3.0080    9.3230 C.3   168  HIS168      0.0745
     42  CG        -3.7310   -3.8480    8.3640 C.ar  168  HIS168      0.0817
     43  ND1       -4.2670   -4.9320    7.7090 N.ar  168  HIS168     -0.2268
     44  CD2       -2.4360   -3.7890    7.9700 C.ar  168  HIS168      0.1154
     45  CE1       -3.3420   -5.4860    6.9350 C.ar  168  HIS168      0.1986
     46  NE2       -2.2120   -4.8180    7.0790 N.ar  168  HIS168     -0.2212
     47  N         -0.9970    1.6160    7.6260 N.3   170  ARG170     -0.1245
     48  CA         0.3340    2.0290    8.0140 C.3   170  ARG170      0.1563
     49  C          0.4400    3.5200    7.7720 C.2   170  ARG170      0.2260
     50  O          0.3010    3.9700    6.6350 O.2   170  ARG170     -0.2867
     51  CB         1.3770    1.2410    7.2340 C.3   170  ARG170      0.0307
     52  CG         1.5190   -0.1620    7.7650 C.3   170  ARG170      0.0489
     53  CD         2.1450   -1.1170    6.7540 C.3   170  ARG170      0.2205
     54  NE         3.3820   -0.6580    6.1510 N.pl3 170  ARG170     -0.0865
     55  CZ         4.6110   -0.9690    6.5460 C.cat 170  ARG170      0.5346
     56  NH1        4.7980   -1.6620    7.6500 N.pl3 170  ARG170      0.1354
     57  NH2        5.6480   -0.5490    5.8380 N.pl3 170  ARG170      0.1354
     58  N         11.8670    1.6830    1.8750 N.3   185  ILE185     -0.1245
     59  CA        11.3390    0.3380    2.0720 C.3   185  ILE185      0.1561
     60  C         11.7760   -0.4920    0.8790 C.2   185  ILE185      0.2260
     61  O         11.6410   -0.0480   -0.2680 O.2   185  ILE185     -0.2867
     62  CB         9.8040    0.2880    2.1970 C.3   185  ILE185      0.0252
     63  CG1        9.2850    1.0800    3.3930 C.3   185  ILE185      0.0019
     64  CG2        9.3440   -1.1550    2.3460 C.3   185  ILE185      0.0019
     65  CD1        7.7610    1.2990    3.3710 C.3   185  ILE185      0.0001
     66  N          8.5830   -5.1880   -2.2510 N.3   188  HIS188     -0.1241
     67  CA         7.7300   -6.1800   -1.6040 C.3   188  HIS188      0.1621
     68  C          6.3400   -6.0750   -2.2240 C.2   188  HIS188      0.2264
     69  O          6.0420   -5.1540   -2.9900 O.2   188  HIS188     -0.2867
     70  CB         7.6560   -5.9060   -0.0980 C.3   188  HIS188      0.0745
     71  CG         6.9130   -4.6540    0.2210 C.ar  188  HIS188      0.0817
     72  ND1        7.4810   -3.4010    0.0910 N.ar  188  HIS188     -0.2268
     73  CD2        5.6520   -4.4550    0.6730 C.ar  188  HIS188      0.1154
     74  CE1        6.5770   -2.4830    0.4160 C.ar  188  HIS188      0.1986
     75  NE2        5.4490   -3.0920    0.7640 N.ar  188  HIS188     -0.2212
     76  N          2.1560   -6.3920   -0.7030 N.3   190  ASP190     -0.1225
     77  CA         1.3080   -6.4570    0.4740 C.3   190  ASP190      0.1805
     78  C          0.2930   -7.6020    0.3420 C.2   190  ASP190      0.2597
     79  O          0.2400   -8.3080   -0.6680 O.2   190  ASP190     -0.2718
     80  CB         0.7040   -5.0900    0.7750 C.3   190  ASP190      0.1424
     81  CG         1.7810   -4.0400    1.0430 C.2   190  ASP190      0.3668
     82  OD1        2.6650   -4.3060    1.8590 O.co2 190  ASP190     -0.2456
     83  OD2        1.6390   -2.9760    0.4290 O.co2 190  ASP190     -0.2456
     84  N         -0.4690   -7.8320    1.4150 N.am  191  TYR191     -0.1976
     85  CA        -0.8860   -9.1910    1.7540 C.3   191  TYR191      0.1639
     86  C         -2.3500   -9.5070    1.5340 C.2   191  TYR191      0.2290
     87  O         -2.7120  -10.6910    1.5570 O.2   191  TYR191     -0.2864
     88  CB        -0.5660   -9.4550    3.2310 C.3   191  TYR191      0.0560
     89  CG         0.8300   -9.0310    3.6490 C.ar  191  TYR191     -0.0198
     90  CD1        1.9520   -9.2300    2.8360 C.ar  191  TYR191     -0.0009
     91  CD2        1.0170   -8.3940    4.8620 C.ar  191  TYR191     -0.0009
     92  CE1        3.2090   -8.8020    3.2480 C.ar  191  TYR191      0.0417
     93  CE2        2.2650   -7.9570    5.2600 C.ar  191  TYR191      0.0417
     94  CZ         3.3440   -8.1730    4.4580 C.ar  191  TYR191      0.1957
     95  OH         4.5610   -7.7440    4.9350 O.3   191  TYR191     -0.2866
     96  N          9.4860  -10.4790   -0.9980 N.3   227  ALA227     -0.1245
     97  CA        10.3330   -9.4240   -0.4550 C.3   227  ALA227      0.1562
     98  C         11.6860   -9.4210   -1.1360 C.2   227  ALA227      0.2260
     99  O         12.3410  -10.4580   -1.2360 O.2   227  ALA227     -0.2867
    100  CB        10.5030   -9.6070    1.0390 C.3   227  ALA227      0.0290
    101  N         -4.9860   -1.0960    3.8800 N.3   282  PHE282     -0.1241
    102  CA        -5.0830   -2.4730    3.4480 C.3   282  PHE282      0.1605
    103  C         -6.5030   -2.9510    3.6740 C.2   282  PHE282      0.2264
    104  O         -6.9610   -3.0100    4.8200 O.2   282  PHE282     -0.2867
    105  CB        -4.0520   -3.3100    4.2050 C.3   282  PHE282      0.0534
    106  CG        -2.6770   -2.7340    4.0630 C.ar  282  PHE282     -0.0203
    107  CD1       -1.9360   -2.9830    2.9220 C.ar  282  PHE282     -0.0042
    108  CD2       -2.1730   -1.8450    4.9970 C.ar  282  PHE282     -0.0042
    109  CE1       -0.6940   -2.3790    2.7250 C.ar  282  PHE282     -0.0003
    110  CE2       -0.9130   -1.2530    4.8200 C.ar  282  PHE282     -0.0003
    111  CZ        -0.1920   -1.5500    3.6800 C.ar  282  PHE282     -0.0000
    112  N          3.5340  -10.4760    9.5680 N.3   313  PHE313     -0.1241
    113  CA         3.9280   -9.5310   10.6050 C.3   313  PHE313      0.1605
    114  C          5.0170  -10.1020   11.5030 C.2   313  PHE313      0.2264
    115  O          5.8900   -9.3560   11.9620 O.2   313  PHE313     -0.2867
    116  CB         2.6900   -8.9900   11.3370 C.3   313  PHE313      0.0534
    117  CG         2.0640   -7.8300   10.6260 C.ar  313  PHE313     -0.0203
    118  CD1        1.4620   -7.9760    9.4010 C.ar  313  PHE313     -0.0042
    119  CD2        2.1290   -6.5550   11.1620 C.ar  313  PHE313     -0.0042
    120  CE1        0.9470   -6.8930    8.7340 C.ar  313  PHE313     -0.0003
    121  CE2        1.6310   -5.4940   10.4960 C.ar  313  PHE313     -0.0003
    122  CZ         1.0420   -5.6460    9.2760 C.ar  313  PHE313     -0.0000
    123  N          7.4400  -11.9610   10.3680 N.3   315  ARG315     -0.1231
    124  CA         8.6890  -11.8020    9.6170 C.3   315  ARG315      0.1694
    125  C          9.1020  -10.3340    9.5280 C.2   315  ARG315      0.2592
    126  O         10.3120  -10.0570    9.4560 O.2   315  ARG315     -0.2718
    127  CB         8.5620  -12.4500    8.2240 C.3   315  ARG315      0.0321
    128  CG         8.1810  -11.5480    7.0860 C.3   315  ARG315      0.0489
    129  CD         8.1080  -12.3370    5.7760 C.3   315  ARG315      0.2205
    130  NE         7.7830  -11.4710    4.6700 N.pl3 315  ARG315     -0.0865
    131  CZ         7.4240  -11.8920    3.4490 C.cat 315  ARG315      0.5346
    132  NH1        7.4080  -13.1970    3.1890 N.pl3 315  ARG315      0.1354
    133  NH2        7.1520  -11.0160    2.5230 N.pl3 315  ARG315      0.1354
    134  N          8.1460   -9.4080    9.5680 N.am  316  CYS316     -0.1956
    135  CA         8.4580   -7.9830    9.5600 C.3   316  CYS316      0.1843
    136  C          9.1350   -7.5650   10.8510 C.2   316  CYS316      0.2625
    137  O         10.0010   -6.6800   10.8440 O.2   316  CYS316     -0.2714
    138  CB         7.1780   -7.1660    9.4210 C.3   316  CYS316      0.0997
    139  SG         6.3260   -7.1650    7.8570 S.3   316  CYS316     -0.0797
    140  N          8.7100   -8.1490   11.9670 N.am  317  TYR317     -0.1974
    141  CA         9.0550   -7.6590   13.2970 C.3   317  TYR317      0.1639
    142  C          9.5250   -8.8170   14.1630 C.2   317  TYR317      0.2290
    143  O          8.8850   -9.1470   15.1830 O.2   317  TYR317     -0.2864
    144  CB         7.8480   -6.9510   13.9260 C.3   317  TYR317      0.0560
    145  CG         7.2530   -5.8780   13.0750 C.ar  317  TYR317     -0.0198
    146  CD1        8.0080   -4.7690   12.7000 C.ar  317  TYR317     -0.0009
    147  CD2        5.9720   -5.9760   12.5920 C.ar  317  TYR317     -0.0009
    148  CE1        7.4780   -3.8030   11.8780 C.ar  317  TYR317      0.0417
    149  CE2        5.4380   -5.0160   11.7860 C.ar  317  TYR317      0.0417
    150  CZ         6.1750   -3.9070   11.4270 C.ar  317  TYR317      0.1957
    151  OH         5.6290   -2.9710   10.5880 O.3   317  TYR317     -0.2866
@<TRIPOS>BOND
     1    69    68    2
     2    66    67    1
     3    68    67    1
     4    67    70    1
     5    99    98    2
     6    98    97    1
     7    96    97    1
     8    76    77    1
     9    79    78    2
    10    97   100    1
    11    61    60    2
    12    70    71    1
    13    72    71   ar
    14    72    74   ar
    15    71    73   ar
    16    78    77    1
    17    78    84   am
    18    74    75   ar
    19    83    81   ar
    20    77    80    1
    21    73    75   ar
    22    80    81    1
    23    60    59    1
    24    81    82   ar
    25    28    25    1
    26    84    85    1
    27    86    87    2
    28    86    85    1
    29    85    88    1
    30    58    59    1
    31    59    62    1
    32    62    64    1
    33    62    63    1
    34    23    21    1
    35   133   131    1
    36   109   107   ar
    37   109   111   ar
    38    25    24    1
    39    25    26    1
    40    90    92   ar
    41    90    89   ar
    42    27    26    2
    43   107   106   ar
    44   132   131    1
    45    88    89    1
    46    92    94   ar
    47    65    63    1
    48   102   103    1
    49   102   101    1
    50   102   105    1
    51   131   130    2
    52    24    19   am
    53    20    19    2
    54    89    91   ar
    55    21    22    1
    56    21    18    1
    57   103   104    2
    58   111   110   ar
    59    19    18    1
    60   106   105    1
    61   106   108   ar
    62    35    34   ar
    63    94    95    1
    64    94    93   ar
    65    18    17    1
    66   130   129    1
    67   110   108   ar
    68    91    93   ar
    69    34    36   ar
    70    34    33    1
    71   129   128    1
    72    17    12   am
    73    57    55    1
    74    54    55    2
    75    54    53    1
    76    33    30    1
    77    30    29    1
    78    30    31    1
    79    55    56    1
    80    50    49    2
    81    40    39    2
    82    53    52    1
    83    45    46   ar
    84    45    43   ar
    85    12    13    2
    86    12    11    1
    87    46    44   ar
    88   128   127    1
    89    51    52    1
    90    51    48    1
    91     9     7   ar
    92    31    32    2
    93    47    48    1
    94    43    42   ar
    95    49    48    1
    96   139   138    1
    97    37    38    1
    98    39    38    1
    99    44    42   ar
   100    15    14    1
   101     7     6    1
   102     7     8   ar
   103   127   124    1
   104    11    14    1
   105    11    10    1
   106    42    41    1
   107     6     5    1
   108    38    41    1
   109   120   122   ar
   110   120   118   ar
   111    14    16    1
   112     4     3    2
   113    10     3   am
   114   122   121   ar
   115   118   117   ar
   116     3     2    1
   117   138   135    1
   118     5     2    1
   119   126   125    2
   120   125   134   am
   121   125   124    1
   122   135   134    1
   123   135   136    1
   124   112   113    1
   125   124   123    1
   126     2     1    1
   127   121   119   ar
   128   151   150    1
   129   113   116    1
   130   113   114    1
   131   117   119   ar
   132   117   116    1
   133   137   136    2
   134   136   140   am
   135   150   149   ar
   136   150   148   ar
   137   114   115    2
   138   149   147   ar
   139   148   146   ar
   140   140   141    1
   141   147   145   ar
   142   146   145   ar
   143   145   144    1
   144   141   144    1
   145   141   142    1
   146   142   143    2
