@<TRIPOS>MOLECULE
tmp/5v2zA00.pdb
 149 140 0 0 0
SMALL
GASTEIGER

@<TRIPOS>ATOM
      1  N         -0.9970    1.6160    7.6260 N.3   170  ARG170     -0.1245
      2  CA         0.3340    2.0290    8.0140 C.3   170  ARG170      0.1563
      3  C          0.4400    3.5200    7.7720 C.2   170  ARG170      0.2260
      4  O          0.3010    3.9700    6.6350 O.2   170  ARG170     -0.2867
      5  CB         1.3770    1.2410    7.2340 C.3   170  ARG170      0.0307
      6  CG         1.5190   -0.1620    7.7650 C.3   170  ARG170      0.0489
      7  CD         2.1450   -1.1170    6.7540 C.3   170  ARG170      0.2205
      8  NE         3.3820   -0.6580    6.1510 N.pl3 170  ARG170     -0.0865
      9  CZ         4.6110   -0.9690    6.5460 C.cat 170  ARG170      0.5346
     10  NH1        4.7980   -1.6620    7.6500 N.pl3 170  ARG170      0.1354
     11  NH2        5.6480   -0.5490    5.8380 N.pl3 170  ARG170      0.1354
     12  N          2.8920    6.5080    7.7820 N.3   172  LEU172     -0.1245
     13  CA         4.3350    6.4790    7.5770 C.3   172  LEU172      0.1561
     14  C          4.9440    7.8640    7.5360 C.2   172  LEU172      0.2260
     15  O          4.3890    8.7800    6.9260 O.2   172  LEU172     -0.2867
     16  CB         4.6600    5.8090    6.2410 C.3   172  LEU172      0.0270
     17  CG         4.1630    4.3890    6.0640 C.3   172  LEU172      0.0019
     18  CD1        3.4080    4.2100    4.8010 C.3   172  LEU172      0.0001
     19  CD2        5.3050    3.4080    6.1120 C.3   172  LEU172      0.0001
     20  N          8.8000    8.9620    6.2670 N.3   174  PHE174     -0.1241
     21  CA        10.1420    8.6310    5.8140 C.3   174  PHE174      0.1605
     22  C         11.0500    9.7950    6.1380 C.2   174  PHE174      0.2264
     23  O         10.7210   10.9380    5.7990 O.2   174  PHE174     -0.2867
     24  CB        10.1380    8.3620    4.2990 C.3   174  PHE174      0.0534
     25  CG         9.3080    7.1920    3.9140 C.ar  174  PHE174     -0.0203
     26  CD1        7.9690    7.3490    3.6940 C.ar  174  PHE174     -0.0042
     27  CD2        9.8580    5.9290    3.8220 C.ar  174  PHE174     -0.0042
     28  CE1        7.1720    6.2610    3.3820 C.ar  174  PHE174     -0.0003
     29  CE2        9.0470    4.8430    3.4830 C.ar  174  PHE174     -0.0003
     30  CZ         7.7320    5.0190    3.2900 C.ar  174  PHE174     -0.0000
     31  N         11.8670    1.6830    1.8750 N.3   185  ILE185     -0.1245
     32  CA        11.3390    0.3380    2.0720 C.3   185  ILE185      0.1561
     33  C         11.7760   -0.4920    0.8790 C.2   185  ILE185      0.2260
     34  O         11.6410   -0.0480   -0.2680 O.2   185  ILE185     -0.2867
     35  CB         9.8040    0.2880    2.1970 C.3   185  ILE185      0.0252
     36  CG1        9.2850    1.0800    3.3930 C.3   185  ILE185      0.0019
     37  CG2        9.3440   -1.1550    2.3460 C.3   185  ILE185      0.0019
     38  CD1        7.7610    1.2990    3.3710 C.3   185  ILE185      0.0001
     39  N          8.5830   -5.1880   -2.2510 N.3   188  HIS188     -0.1241
     40  CA         7.7300   -6.1800   -1.6040 C.3   188  HIS188      0.1621
     41  C          6.3400   -6.0750   -2.2240 C.2   188  HIS188      0.2264
     42  O          6.0420   -5.1540   -2.9900 O.2   188  HIS188     -0.2867
     43  CB         7.6560   -5.9060   -0.0980 C.3   188  HIS188      0.0745
     44  CG         6.9130   -4.6540    0.2210 C.ar  188  HIS188      0.0817
     45  ND1        7.4810   -3.4010    0.0910 N.ar  188  HIS188     -0.2268
     46  CD2        5.6520   -4.4550    0.6730 C.ar  188  HIS188      0.1154
     47  CE1        6.5770   -2.4830    0.4160 C.ar  188  HIS188      0.1986
     48  NE2        5.4490   -3.0920    0.7640 N.ar  188  HIS188     -0.2212
     49  N          2.1560   -6.3920   -0.7030 N.3   190  ASP190     -0.1239
     50  CA         1.3080   -6.4570    0.4740 C.3   190  ASP190      0.1674
     51  C          0.2930   -7.6020    0.3420 C.2   190  ASP190      0.2266
     52  O          0.2400   -8.3080   -0.6680 O.2   190  ASP190     -0.2867
     53  CB         0.7040   -5.0900    0.7750 C.3   190  ASP190      0.1410
     54  CG         1.7810   -4.0400    1.0430 C.2   190  ASP190      0.3668
     55  OD1        2.6650   -4.3060    1.8590 O.co2 190  ASP190     -0.2456
     56  OD2        1.6390   -2.9760    0.4290 O.co2 190  ASP190     -0.2456
     57  N         -3.6960    4.0190   -1.1390 N.3   197  ALA197     -0.1231
     58  CA        -2.6060    4.7930   -0.5480 C.3   197  ALA197      0.1694
     59  C         -2.7390    6.2670   -0.8690 C.2   197  ALA197      0.2592
     60  O         -3.2760    6.6610   -1.9210 O.2   197  ALA197     -0.2718
     61  CB        -1.2480    4.2770   -0.9450 C.3   197  ALA197      0.0304
     62  N         -2.2480    7.0800    0.0600 N.am  198  ALA198     -0.1966
     63  CA        -2.1920    8.5190   -0.0820 C.3   198  ALA198      0.1728
     64  C         -0.7640    8.9620    0.2130 C.2   198  ALA198      0.2616
     65  O         -0.0450    8.3440    1.0050 O.2   198  ALA198     -0.2715
     66  CB        -3.1440    9.2200    0.8710 C.3   198  ALA198      0.0334
     67  N         -0.3470   10.0600   -0.3930 N.am  199  GLN199     -0.1977
     68  CA         0.9870   10.6160   -0.1340 C.3   199  GLN199      0.1601
     69  C          0.9510   12.1280   -0.1950 C.2   199  GLN199      0.2287
     70  O          0.0620   12.7210   -0.8070 O.2   199  GLN199     -0.2864
     71  CB         2.0280   10.0950   -1.1260 C.3   199  GLN199      0.0394
     72  CG         1.7090   10.4700   -2.5660 C.3   199  GLN199      0.0908
     73  CD         2.7590    9.9710   -3.5670 C.2   199  GLN199      0.2608
     74  OE1        3.9610    9.8880   -3.2500 O.2   199  GLN199     -0.2717
     75  NE2        2.3310    9.6870   -4.7860 N.am  199  GLN199     -0.0878
     76  N          7.4890    6.7980   -3.9750 N.3   205  LEU205     -0.1245
     77  CA         6.9200    5.4800   -4.2110 C.3   205  LEU205      0.1561
     78  C          7.1360    5.0600   -5.6590 C.2   205  LEU205      0.2260
     79  O          6.8260    5.8220   -6.5880 O.2   205  LEU205     -0.2867
     80  CB         5.4240    5.5030   -3.9110 C.3   205  LEU205      0.0270
     81  CG         4.6310    4.2270   -4.1580 C.3   205  LEU205      0.0019
     82  CD1        5.0600    3.0920   -3.2660 C.3   205  LEU205      0.0001
     83  CD2        3.1420    4.5080   -4.0140 C.3   205  LEU205      0.0001
     84  N         -3.8260   -0.5710   -5.7060 N.3   249  PHE249     -0.1241
     85  CA        -3.2280   -1.7250   -6.3670 C.3   249  PHE249      0.1605
     86  C         -3.5870   -3.0160   -5.6470 C.2   249  PHE249      0.2264
     87  O         -3.9550   -2.9920   -4.4710 O.2   249  PHE249     -0.2867
     88  CB        -1.7160   -1.5710   -6.6210 C.3   249  PHE249      0.0534
     89  CG        -0.8770   -1.2580   -5.4300 C.ar  249  PHE249     -0.0203
     90  CD1       -0.3450   -0.0020   -5.2740 C.ar  249  PHE249     -0.0042
     91  CD2       -0.5340   -2.2210   -4.5160 C.ar  249  PHE249     -0.0042
     92  CE1        0.4950    0.2790   -4.1940 C.ar  249  PHE249     -0.0003
     93  CE2        0.2630   -1.9640   -3.4610 C.ar  249  PHE249     -0.0003
     94  CZ         0.7870   -0.7000   -3.2890 C.ar  249  PHE249     -0.0000
     95  N          6.2650   -3.0380   -4.9870 N.3   267  HIS267     -0.1241
     96  CA         6.5030   -1.6240   -4.8130 C.3   267  HIS267      0.1621
     97  C          7.5920   -1.4330   -3.7700 C.2   267  HIS267      0.2264
     98  O          7.9090   -2.3490   -2.9930 O.2   267  HIS267     -0.2867
     99  CB         5.2210   -0.8780   -4.4650 C.3   267  HIS267      0.0745
    100  CG         4.5050   -1.4190   -3.2670 C.ar  267  HIS267      0.0817
    101  ND1        3.7760   -2.5970   -3.2740 N.ar  267  HIS267     -0.2268
    102  CD2        4.3920   -0.9210   -2.0150 C.ar  267  HIS267      0.1154
    103  CE1        3.2510   -2.7940   -2.0750 C.ar  267  HIS267      0.1986
    104  NE2        3.6140   -1.7860   -1.2840 N.ar  267  HIS267     -0.2212
    105  N          9.9890    2.1210   -1.7330 N.3   269  VAL269     -0.1245
    106  CA        10.0770    3.5600   -1.4800 C.3   269  VAL269      0.1561
    107  C         11.5300    3.9500   -1.3830 C.2   269  VAL269      0.2260
    108  O         12.3110    3.3020   -0.6790 O.2   269  VAL269     -0.2867
    109  CB         9.3200    3.9780   -0.2120 C.3   269  VAL269      0.0252
    110  CG1        9.4980    5.4660    0.0630 C.3   269  VAL269      0.0019
    111  CG2        7.8410    3.6240   -0.3390 C.3   269  VAL269      0.0019
    112  N          8.9860   12.6540    4.1780 N.3   276  ARG276     -0.1245
    113  CA         7.8460   12.3520    3.3290 C.3   276  ARG276      0.1563
    114  C          6.8030   11.6240    4.1620 C.2   276  ARG276      0.2260
    115  O          7.1160   10.6190    4.8120 O.2   276  ARG276     -0.2867
    116  CB         8.2740   11.4340    2.1700 C.3   276  ARG276      0.0307
    117  CG         7.1530   10.8990    1.3320 C.3   276  ARG276      0.0489
    118  CD         7.6680   10.1390    0.1010 C.3   276  ARG276      0.2205
    119  NE         6.5640    9.6240   -0.6640 N.pl3 276  ARG276     -0.0865
    120  CZ         6.0160    8.4280   -0.5030 C.cat 276  ARG276      0.5346
    121  NH1        6.5140    7.5530    0.3670 N.pl3 276  ARG276      0.1354
    122  NH2        4.9680    8.0850   -1.1860 N.pl3 276  ARG276      0.1354
    123  N          3.1440    9.5200    4.1460 N.3   278  ALA278     -0.1231
    124  CA         2.2210    8.7190    3.3440 C.3   278  ALA278      0.1694
    125  C          1.3920    7.8670    4.2890 C.2   278  ALA278      0.2592
    126  O          1.7750    7.6160    5.4310 O.2   278  ALA278     -0.2718
    127  CB         2.9980    7.8260    2.3650 C.3   278  ALA278      0.0304
    128  N          0.2680    7.3900    3.7840 N.am  279  CYS279     -0.1956
    129  CA        -0.5710    6.4230    4.4860 C.3   279  CYS279      0.1843
    130  C         -0.9160    5.3130    3.5060 C.2   279  CYS279      0.2625
    131  O         -1.3010    5.5960    2.3590 O.2   279  CYS279     -0.2714
    132  CB        -1.8510    7.0770    4.9770 C.3   279  CYS279      0.0997
    133  SG        -1.6490    8.3380    6.2660 S.3   279  CYS279     -0.0797
    134  N         -0.7830    4.0640    3.9070 N.am  280  ALA280     -0.1977
    135  CA        -1.1470    2.9070    3.1030 C.3   280  ALA280      0.1597
    136  C         -2.2220    2.1490    3.8670 C.2   280  ALA280      0.2287
    137  O         -2.0190    1.7800    5.0350 O.2   280  ALA280     -0.2864
    138  CB         0.0780    2.0250    2.8370 C.3   280  ALA280      0.0319
    139  N         -4.9860   -1.0960    3.8800 N.3   282  PHE282     -0.1241
    140  CA        -5.0830   -2.4730    3.4480 C.3   282  PHE282      0.1605
    141  C         -6.5030   -2.9510    3.6740 C.2   282  PHE282      0.2264
    142  O         -6.9610   -3.0100    4.8200 O.2   282  PHE282     -0.2867
    143  CB        -4.0520   -3.3100    4.2050 C.3   282  PHE282      0.0534
    144  CG        -2.6770   -2.7340    4.0630 C.ar  282  PHE282     -0.0203
    145  CD1       -1.9360   -2.9830    2.9220 C.ar  282  PHE282     -0.0042
    146  CD2       -2.1730   -1.8450    4.9970 C.ar  282  PHE282     -0.0042
    147  CE1       -0.6940   -2.3790    2.7250 C.ar  282  PHE282     -0.0003
    148  CE2       -0.9130   -1.2530    4.8200 C.ar  282  PHE282     -0.0003
    149  CZ        -0.1920   -1.5500    3.6800 C.ar  282  PHE282     -0.0000
@<TRIPOS>BOND
     1    88    85    1
     2    88    89    1
     3    79    78    2
     4    85    84    1
     5    85    86    1
     6    78    77    1
     7    86    87    2
     8    89    90   ar
     9    89    91   ar
    10    90    92   ar
    11    95    96    1
    12    96    99    1
    13    96    97    1
    14    75    73   am
    15    91    93   ar
    16    99   100    1
    17    77    76    1
    18    77    80    1
    19    92    94   ar
    20    81    83    1
    21    81    80    1
    22    81    82    1
    23    97    98    2
    24    73    74    2
    25    73    72    1
    26    93    94   ar
    27   101   100   ar
    28   101   103   ar
    29   100   102   ar
    30    42    41    2
    31    72    71    1
    32    39    40    1
    33    41    40    1
    34   103   104   ar
    35   102   104   ar
    36    60    59    2
    37   105   106    1
    38    40    43    1
    39   106   107    1
    40   106   109    1
    41   107   108    2
    42   122   120    1
    43    57    58    1
    44    71    68    1
    45    61    58    1
    46    59    58    1
    47    59    62   am
    48    70    69    2
    49    49    50    1
    50    52    51    2
    51   119   120    2
    52   119   118    1
    53   120   121    1
    54    67    68    1
    55    67    64   am
    56   111   109    1
    57    34    33    2
    58   109   110    1
    59    69    68    1
    60    43    44    1
    61    63    62    1
    62    63    64    1
    63    63    66    1
    64    45    44   ar
    65    45    47   ar
    66   118   117    1
    67    64    65    2
    68    44    46   ar
    69    51    50    1
    70    47    48   ar
    71    56    54   ar
    72    50    53    1
    73    46    48   ar
    74    53    54    1
    75    33    32    1
    76    54    55   ar
    77   117   116    1
    78    31    32    1
    79    32    35    1
    80   116   113    1
    81    35    37    1
    82    35    36    1
    83   131   130    2
    84   127   124    1
    85   147   145   ar
    86   147   149   ar
    87   138   135    1
    88   145   144   ar
    89   135   136    1
    90   135   134    1
    91    30    28   ar
    92    30    29   ar
    93   113   114    1
    94   113   112    1
    95   124   123    1
    96   124   125    1
    97    38    36    1
    98    28    26   ar
    99   140   141    1
   100   140   139    1
   101   140   143    1
   102    29    27   ar
   103   130   134   am
   104   130   129    1
   105   141   142    2
   106   149   148   ar
   107    26    25   ar
   108   128   125   am
   109   128   129    1
   110    27    25   ar
   111   136   137    2
   112    25    24    1
   113   144   143    1
   114   144   146   ar
   115   114   115    2
   116   125   126    2
   117    24    21    1
   118   129   132    1
   119    18    17    1
   120   148   146   ar
   121   132   133    1
   122    23    22    2
   123    21    22    1
   124    21    20    1
   125    11     9    1
   126    17    19    1
   127    17    16    1
   128     8     9    2
   129     8     7    1
   130    16    13    1
   131     9    10    1
   132     4     3    2
   133     7     6    1
   134    15    14    2
   135     5     6    1
   136     5     2    1
   137    14    13    1
   138    13    12    1
   139     1     2    1
   140     3     2    1
