@<TRIPOS>MOLECULE
tmp/5v32A00.pdb
 147 137 0 0 0
SMALL
GASTEIGER

@<TRIPOS>ATOM
      1  N         15.9770   27.7790   17.9560 N.3   170  ARG170     -0.1245
      2  CA        16.2760   26.4630   18.5150 C.3   170  ARG170      0.1563
      3  C         15.2210   26.1250   19.5570 C.2   170  ARG170      0.2260
      4  O         15.0840   26.8260   20.5710 O.2   170  ARG170     -0.2867
      5  CB        17.6500   26.4580   19.1810 C.3   170  ARG170      0.0307
      6  CG        18.7800   26.5520   18.2120 C.3   170  ARG170      0.0489
      7  CD        20.0910   26.8960   18.9070 C.3   170  ARG170      0.2205
      8  NE        20.5690   25.9830   19.9590 N.pl3 170  ARG170     -0.0865
      9  CZ        21.2070   24.8340   19.7440 C.cat 170  ARG170      0.5346
     10  NH1       21.3280   24.3650   18.5200 N.pl3 170  ARG170      0.1354
     11  NH2       21.6870   24.1310   20.7650 N.pl3 170  ARG170      0.1354
     12  N         14.4100   23.5330   22.2420 N.3   172  LEU172     -0.1245
     13  CA        15.3080   22.6450   22.9720 C.3   172  LEU172      0.1561
     14  C         14.6010   21.8720   24.0770 C.2   172  LEU172      0.2260
     15  O         13.7090   22.4000   24.7600 O.2   172  LEU172     -0.2867
     16  CB        16.4120   23.4510   23.6650 C.3   172  LEU172      0.0270
     17  CG        17.3120   24.2760   22.7600 C.3   172  LEU172      0.0019
     18  CD1       17.2860   25.7470   23.1730 C.3   172  LEU172      0.0001
     19  CD2       18.7060   23.7220   22.8190 C.3   172  LEU172      0.0001
     20  N         16.2720   19.6350   27.2640 N.3   174  PHE174     -0.1241
     21  CA        17.3820   19.0430   27.9900 C.3   174  PHE174      0.1605
     22  C         16.8660   17.8930   28.8420 C.2   174  PHE174      0.2264
     23  O         15.8280   18.0280   29.5120 O.2   174  PHE174     -0.2867
     24  CB        18.0240   20.0750   28.9050 C.3   174  PHE174      0.0534
     25  CG        18.7150   21.1780   28.1520 C.ar  174  PHE174     -0.0203
     26  CD1       18.0020   22.2450   27.6550 C.ar  174  PHE174     -0.0042
     27  CD2       20.0700   21.1050   27.8980 C.ar  174  PHE174     -0.0042
     28  CE1       18.6350   23.2280   26.9280 C.ar  174  PHE174     -0.0003
     29  CE2       20.7090   22.0890   27.1930 C.ar  174  PHE174     -0.0003
     30  CZ        19.9850   23.1620   26.7090 C.ar  174  PHE174     -0.0000
     31  N         25.0370   22.1180   27.9450 N.3   185  ILE185     -0.1245
     32  CA        25.8150   22.7550   26.8840 C.3   185  ILE185      0.1561
     33  C         26.9320   23.5340   27.5610 C.2   185  ILE185      0.2260
     34  O         26.6930   24.2330   28.5530 O.2   185  ILE185     -0.2867
     35  CB        25.0020   23.7170   25.9870 C.3   185  ILE185      0.0252
     36  CG1       23.8290   23.0360   25.3010 C.3   185  ILE185      0.0019
     37  CG2       25.9270   24.3120   24.9040 C.3   185  ILE185      0.0019
     38  CD1       22.8650   24.0190   24.5990 C.3   185  ILE185      0.0001
     39  N         29.7210   29.0850   25.6710 N.3   188  HIS188     -0.1241
     40  CA        29.8820   29.5050   24.2850 C.3   188  HIS188      0.1621
     41  C         29.1990   30.8550   24.1160 C.2   188  HIS188      0.2264
     42  O         28.4980   31.3330   25.0030 O.2   188  HIS188     -0.2867
     43  CB        29.2930   28.4820   23.3040 C.3   188  HIS188      0.0745
     44  CG        27.8000   28.3850   23.3710 C.ar  188  HIS188      0.0817
     45  ND1       27.1430   27.7800   24.4180 N.ar  188  HIS188     -0.2268
     46  CD2       26.8360   28.8600   22.5490 C.ar  188  HIS188      0.1154
     47  CE1       25.8380   27.8670   24.2260 C.ar  188  HIS188      0.1986
     48  NE2       25.6260   28.5110   23.0930 N.ar  188  HIS188     -0.2212
     49  N         26.7700   32.9630   21.0860 N.3   190  ASP190     -0.1239
     50  CA        25.9060   32.6960   19.9440 C.3   190  ASP190      0.1674
     51  C         26.3920   33.5010   18.7490 C.2   190  ASP190      0.2266
     52  O         26.8410   34.6420   18.8980 O.2   190  ASP190     -0.2867
     53  CB        24.4500   33.0570   20.2500 C.3   190  ASP190      0.1410
     54  CG        23.7600   32.0420   21.1350 C.2   190  ASP190      0.3668
     55  OD1       24.2020   30.8520   21.1820 O.co2 190  ASP190     -0.2456
     56  OD2       22.7560   32.4290   21.7810 O.co2 190  ASP190     -0.2456
     57  N         19.7010   37.7280   20.4800 N.3   195  VAL195     -0.1245
     58  CA        19.0900   36.5050   21.0100 C.3   195  VAL195      0.1561
     59  C         17.9670   36.8450   21.9870 C.2   195  VAL195      0.2260
     60  O         18.1690   37.5900   22.9550 O.2   195  VAL195     -0.2867
     61  CB        20.1240   35.5960   21.6930 C.3   195  VAL195      0.0252
     62  CG1       19.4670   34.2750   22.1080 C.3   195  VAL195      0.0019
     63  CG2       21.3240   35.3660   20.7860 C.3   195  VAL195      0.0019
     64  N         15.4530   34.7310   24.4810 N.3   197  ALA197     -0.1231
     65  CA        15.3450   33.4000   25.0690 C.3   197  ALA197      0.1694
     66  C         14.1000   33.2840   25.9440 C.2   197  ALA197      0.2591
     67  O         13.7470   34.2090   26.6880 O.2   197  ALA197     -0.2718
     68  CB        16.5890   33.0780   25.8990 C.3   197  ALA197      0.0304
     69  N         13.4390   32.1330   25.8560 N.am  198  ALA198     -0.1980
     70  CA        12.3200   31.8080   26.7250 C.3   198  ALA198      0.1597
     71  C         12.5650   30.4440   27.3520 C.2   198  ALA198      0.2287
     72  O         13.2300   29.5860   26.7640 O.2   198  ALA198     -0.2864
     73  CB        11.0020   31.7870   25.9580 C.3   198  ALA198      0.0319
     74  N         19.9080   27.8630   32.7510 N.3   205  LEU205     -0.1245
     75  CA        20.7220   28.7660   31.9470 C.3   205  LEU205      0.1561
     76  C         21.5400   29.6890   32.8470 C.2   205  LEU205      0.2260
     77  O         21.0020   30.3170   33.7660 O.2   205  LEU205     -0.2867
     78  CB        19.8120   29.6050   31.0510 C.3   205  LEU205      0.0270
     79  CG        20.4960   30.6740   30.1850 C.3   205  LEU205      0.0019
     80  CD1       21.4180   30.0610   29.1240 C.3   205  LEU205      0.0001
     81  CD2       19.4580   31.5470   29.5220 C.3   205  LEU205      0.0001
     82  N         19.9020   38.9690   24.9990 N.3   249  PHE249     -0.1241
     83  CA        21.3310   39.2510   25.0400 C.3   249  PHE249      0.1605
     84  C         21.9260   39.3970   23.6460 C.2   249  PHE249      0.2264
     85  O         21.3600   38.8990   22.6580 O.2   249  PHE249     -0.2867
     86  CB        22.1380   38.2430   25.8850 C.3   249  PHE249      0.0534
     87  CG        21.9880   36.7770   25.5020 C.ar  249  PHE249     -0.0203
     88  CD1       21.0810   35.9710   26.1540 C.ar  249  PHE249     -0.0042
     89  CD2       22.8200   36.2000   24.5520 C.ar  249  PHE249     -0.0042
     90  CE1       20.9880   34.6060   25.8560 C.ar  249  PHE249     -0.0003
     91  CE2       22.7400   34.8570   24.2470 C.ar  249  PHE249     -0.0003
     92  CZ        21.8160   34.0540   24.8910 C.ar  249  PHE249     -0.0000
     93  N         27.3100   31.9760   27.5860 N.3   267  HIS267     -0.1241
     94  CA        26.2700   31.2760   28.3230 C.3   267  HIS267      0.1621
     95  C         26.5120   29.7750   28.2610 C.2   267  HIS267      0.2264
     96  O         27.2270   29.2720   27.3950 O.2   267  HIS267     -0.2867
     97  CB        24.8640   31.6620   27.8380 C.3   267  HIS267      0.0745
     98  CG        24.6470   31.4670   26.3710 C.ar  267  HIS267      0.0817
     99  ND1       25.1900   32.3060   25.4240 N.ar  267  HIS267     -0.2268
    100  CD2       23.9440   30.5310   25.6880 C.ar  267  HIS267      0.1154
    101  CE1       24.8280   31.8980   24.2180 C.ar  267  HIS267      0.1986
    102  NE2       24.0770   30.8180   24.3490 N.ar  267  HIS267     -0.2212
    103  N         24.4830   25.8150   29.8820 N.3   269  VAL269     -0.1245
    104  CA        23.2800   25.2390   30.4660 C.3   269  VAL269      0.1561
    105  C         23.6670   24.0330   31.3060 C.2   269  VAL269      0.2260
    106  O         24.3940   23.1490   30.8370 O.2   269  VAL269     -0.2867
    107  CB        22.2370   24.8360   29.4100 C.3   269  VAL269      0.0252
    108  CG1       21.0050   24.1820   30.0920 C.3   269  VAL269      0.0019
    109  CG2       21.7990   26.0210   28.5710 C.3   269  VAL269      0.0019
    110  N         14.0710   19.9820   30.9730 N.3   276  ARG276     -0.1245
    111  CA        13.9060   21.4270   30.8230 C.3   276  ARG276      0.1563
    112  C         13.6130   21.7620   29.3660 C.2   276  ARG276      0.2260
    113  O         14.3550   21.3490   28.4650 O.2   276  ARG276     -0.2867
    114  CB        15.1620   22.1870   31.2760 C.3   276  ARG276      0.0307
    115  CG        15.1380   23.6730   30.9570 C.3   276  ARG276      0.0489
    116  CD        16.3430   24.3990   31.5160 C.3   276  ARG276      0.2205
    117  NE        16.3430   25.8180   31.1520 N.pl3 276  ARG276     -0.0865
    118  CZ        16.9870   26.3250   30.1070 C.cat 276  ARG276      0.5346
    119  NH1       17.7090   25.5640   29.3030 N.pl3 276  ARG276      0.1354
    120  NH2       16.8940   27.6180   29.8430 N.pl3 276  ARG276      0.1354
    121  N         13.1470   24.9080   26.6010 N.3   278  ALA278     -0.1231
    122  CA        13.5750   26.2770   26.3660 C.3   278  ALA278      0.1694
    123  C         13.5500   26.5340   24.8690 C.2   278  ALA278      0.2592
    124  O         13.6100   25.6060   24.0650 O.2   278  ALA278     -0.2718
    125  CB        14.9880   26.5440   26.9060 C.3   278  ALA278      0.0304
    126  N         13.4800   27.8150   24.5000 N.am  279  CYS279     -0.1956
    127  CA        13.6060   28.2330   23.1150 C.3   279  CYS279      0.1843
    128  C         14.5970   29.3820   23.0460 C.2   279  CYS279      0.2625
    129  O         14.5450   30.2960   23.8710 O.2   279  CYS279     -0.2714
    130  CB        12.2740   28.7150   22.5490 C.3   279  CYS279      0.0997
    131  SG        10.9840   27.4400   22.3640 S.3   279  CYS279     -0.0797
    132  N         15.5030   29.3230   22.0780 N.am  280  ALA280     -0.1977
    133  CA        16.4690   30.3910   21.8270 C.3   280  ALA280      0.1597
    134  C         16.2020   30.9110   20.4190 C.2   280  ALA280      0.2287
    135  O         16.3650   30.1800   19.4300 O.2   280  ALA280     -0.2864
    136  CB        17.9040   29.8740   21.9810 C.3   280  ALA280      0.0319
    137  N         16.9030   33.5910   17.3820 N.3   282  PHE282     -0.1241
    138  CA        17.9520   34.4110   16.7890 C.3   282  PHE282      0.1605
    139  C         17.3330   35.3550   15.7640 C.2   282  PHE282      0.2264
    140  O         16.7710   34.9130   14.7580 O.2   282  PHE282     -0.2867
    141  CB        19.0140   33.5260   16.1370 C.3   282  PHE282      0.0534
    142  CG        19.6790   32.5650   17.0970 C.ar  282  PHE282     -0.0203
    143  CD1       19.8230   32.8800   18.4340 C.ar  282  PHE282     -0.0042
    144  CD2       20.1510   31.3470   16.6530 C.ar  282  PHE282     -0.0042
    145  CE1       20.4360   32.0120   19.3180 C.ar  282  PHE282     -0.0003
    146  CE2       20.7710   30.4670   17.5330 C.ar  282  PHE282     -0.0003
    147  CZ        20.9060   30.8100   18.8740 C.ar  282  PHE282     -0.0000
@<TRIPOS>BOND
     1   140   139    2
     2   139   138    1
     3   141   138    1
     4   141   142    1
     5   144   142   ar
     6   144   146   ar
     7   138   137    1
     8   142   143   ar
     9   146   147   ar
    10     1     2    1
    11     6     7    1
    12     6     5    1
    13   143   145   ar
    14     2     5    1
    15     2     3    1
    16    10     9    1
    17    51    52    2
    18    51    50    1
    19   147   145   ar
    20     7     8    1
    21   135   134    2
    22     3     4    2
    23     9     8    2
    24     9    11    1
    25    50    53    1
    26    50    49    1
    27    53    54    1
    28   134   133    1
    29    57    58    1
    30    63    61    1
    31    58    61    1
    32    58    59    1
    33    54    55   ar
    34    54    56   ar
    35    61    62    1
    36   133   136    1
    37   133   132    1
    38    59    60    2
    39   132   128   am
    40    12    13    1
    41   131   130    1
    42   130   127    1
    43    46    48   ar
    44    46    44   ar
    45    85    84    2
    46    17    19    1
    47    17    18    1
    48    17    16    1
    49    13    16    1
    50    13    14    1
    51   128   127    1
    52   128   129    2
    53    48    47   ar
    54   127   126    1
    55    43    44    1
    56    43    40    1
    57    44    45   ar
    58    84    83    1
    59   124   123    2
    60    14    15    2
    61    41    40    1
    62    41    42    2
    63   101   102   ar
    64   101    99   ar
    65    47    45   ar
    66    91    89   ar
    67    91    92   ar
    68    40    39    1
    69   102   100   ar
    70    64    65    1
    71   126   123   am
    72    89    87   ar
    73    38    36    1
    74   123   122    1
    75    92    90   ar
    76    37    35    1
    77    82    83    1
    78    83    86    1
    79    65    68    1
    80    65    66    1
    81    36    35    1
    82    99    98   ar
    83    87    86    1
    84    87    88   ar
    85   100    98   ar
    86    69    66   am
    87    69    70    1
    88    90    88   ar
    89    66    67    2
    90    73    70    1
    91    35    32    1
    92   122   121    1
    93   122   125    1
    94    98    97    1
    95    30    28   ar
    96    30    29   ar
    97    70    71    1
    98    72    71    2
    99    32    33    1
   100    32    31    1
   101    28    26   ar
   102    29    27   ar
   103    20    21    1
   104    96    95    2
   105    33    34    2
   106    93    94    1
   107    26    25   ar
   108    97    94    1
   109    27    25   ar
   110    21    22    1
   111    21    24    1
   112    25    24    1
   113    95    94    1
   114   113   112    2
   115   109   107    1
   116    22    23    2
   117    80    79    1
   118   119   118    1
   119   112   111    1
   120   107   108    1
   121   107   104    1
   122    81    79    1
   123   120   118    1
   124   103   104    1
   125   118   117    2
   126    79    78    1
   127   104   105    1
   128   111   110    1
   129   111   114    1
   130   106   105    2
   131   115   114    1
   132   115   116    1
   133    78    75    1
   134   117   116    1
   135    75    74    1
   136    75    76    1
   137    76    77    2
