@<TRIPOS>MOLECULE
tmp/5v35A00.pdb
 159 155 0 0 0
SMALL
GASTEIGER

@<TRIPOS>ATOM
      1  N          8.4780   12.4580   16.6920 N.3    28  PHE28      -0.1241
      2  CA         7.5190   13.2440   17.4860 C.3    28  PHE28       0.1605
      3  C          6.4810   12.3800   18.1790 C.2    28  PHE28       0.2264
      4  O          6.4110   11.1790   17.9530 O.2    28  PHE28      -0.2867
      5  CB         6.8110   14.2750   16.5920 C.3    28  PHE28       0.0534
      6  CG         6.0100   13.6580   15.4660 C.ar   28  PHE28      -0.0203
      7  CD1        6.6470   13.0820   14.3770 C.ar   28  PHE28      -0.0042
      8  CD2        4.6380   13.6570   15.5010 C.ar   28  PHE28      -0.0042
      9  CE1        5.9280   12.5020   13.3610 C.ar   28  PHE28      -0.0003
     10  CE2        3.9180   13.1020   14.4880 C.ar   28  PHE28      -0.0003
     11  CZ         4.5620   12.5250   13.4120 C.ar   28  PHE28      -0.0000
     12  N          2.2270   12.6140   19.1010 N.3    30  PHE30      -0.1241
     13  CA         1.0120   13.2870   18.8210 C.3    30  PHE30       0.1605
     14  C         -0.1290   12.6180   19.5760 C.2    30  PHE30       0.2264
     15  O         -0.0500   11.4500   20.0410 O.2    30  PHE30      -0.2867
     16  CB         0.7590   13.2920   17.3170 C.3    30  PHE30       0.0534
     17  CG         0.2780   11.9910   16.8040 C.ar   30  PHE30      -0.0203
     18  CD1        1.1640   10.9680   16.5810 C.ar   30  PHE30      -0.0042
     19  CD2       -1.0670   11.7890   16.5680 C.ar   30  PHE30      -0.0042
     20  CE1        0.7120    9.7470   16.1110 C.ar   30  PHE30      -0.0003
     21  CE2       -1.5210   10.5720   16.1240 C.ar   30  PHE30      -0.0003
     22  CZ        -0.6290    9.5420   15.8740 C.ar   30  PHE30      -0.0000
     23  N         -4.3670   12.9100   19.0680 N.3    32  THR32      -0.1218
     24  CA        -5.3450   13.4100   18.1280 C.3    32  THR32       0.1862
     25  C         -6.6710   13.3890   18.8220 C.2    32  THR32       0.2287
     26  O         -7.0610   12.3480   19.3540 O.2    32  THR32      -0.2866
     27  CB        -5.4200   12.4880   16.8940 C.3    32  THR32       0.1770
     28  OG1       -4.2370   12.6360   16.0660 O.3    32  THR32      -0.2211
     29  CG2       -6.6850   12.7990   16.0960 C.3    32  THR32       0.0375
     30  N          6.4780    8.5510   16.9260 N.3    52  MET52      -0.1230
     31  CA         6.2800    8.5080   15.4780 C.3    52  MET52       0.1702
     32  C          7.4820    9.0560   14.6970 C.2    52  MET52       0.2592
     33  O          8.2350    9.8960   15.1940 O.2    52  MET52      -0.2718
     34  CB         5.0280    9.3070   15.1460 C.3    52  MET52       0.0401
     35  CG         4.4890    9.1610   13.7280 C.3    52  MET52       0.0596
     36  SD         4.1550    7.4840   13.1510 S.3    52  MET52      -0.1393
     37  CE         3.4830    6.7360   14.6620 C.3    52  MET52       0.0692
     38  N          7.6430    8.5390   13.4820 N.am   53  HIS53      -0.1962
     39  CA         8.7880    8.7760   12.5790 C.3    53  HIS53       0.1787
     40  C          8.1530    9.0990   11.2270 C.2    53  HIS53       0.2620
     41  O          7.3740    8.3160   10.7000 O.2    53  HIS53      -0.2715
     42  CB         9.6600    7.5070   12.4180 C.3    53  HIS53       0.0785
     43  CG        10.3960    7.0930   13.6650 C.ar   53  HIS53       0.0821
     44  ND1       10.1580    7.6500   14.9090 N.ar   53  HIS53      -0.2267
     45  CD2       11.3630    6.1580   13.8590 C.ar   53  HIS53       0.1154
     46  CE1       10.9550    7.0900   15.8080 C.ar   53  HIS53       0.1986
     47  NE2       11.6970    6.1810   15.1970 N.ar   53  HIS53      -0.2212
     48  N          8.4260   10.2760   10.6840 N.am   54  ILE54      -0.1963
     49  CA         8.1840   10.4960    9.2650 C.3    54  ILE54       0.1727
     50  C          9.4640   10.9720    8.6200 C.2    54  ILE54       0.2616
     51  O         10.4380   11.3430    9.3040 O.2    54  ILE54      -0.2715
     52  CB         7.0210   11.4680    8.9610 C.3    54  ILE54       0.0290
     53  CG1        7.3740   12.9050    9.3330 C.3    54  ILE54       0.0022
     54  CG2        5.7540   11.0150    9.6480 C.3    54  ILE54       0.0023
     55  CD1        7.8910   13.7290    8.1690 C.3    54  ILE54       0.0001
     56  N          9.4790   10.9670    7.2910 N.am   55  ILE55      -0.1977
     57  CA        10.6480   11.4010    6.5360 C.3    55  ILE55       0.1596
     58  C         10.2520   12.3210    5.3870 C.2    55  ILE55       0.2287
     59  O          9.6730   11.8780    4.3950 O.2    55  ILE55      -0.2864
     60  CB        11.4330   10.2020    5.9740 C.3    55  ILE55       0.0276
     61  CG1       11.9640    9.3300    7.1130 C.3    55  ILE55       0.0022
     62  CG2       12.5730   10.6800    5.0870 C.3    55  ILE55       0.0022
     63  CD1       12.8250    8.1750    6.6490 C.3    55  ILE55       0.0001
     64  N          0.3100   18.0870    4.4250 N.3    64  PHE64      -0.1227
     65  CA        -0.3350   18.7970    5.4930 C.3    64  PHE64       0.1736
     66  C          0.2090   18.5320    6.8640 C.2    64  PHE64       0.2595
     67  O          0.1970   19.3970    7.6820 O.2    64  PHE64      -0.2718
     68  CB        -1.8100   18.5090    5.4820 C.3    64  PHE64       0.0547
     69  CG        -2.5650   19.2830    6.4880 C.ar   64  PHE64      -0.0202
     70  CD1       -3.0590   20.5110    6.1850 C.ar   64  PHE64      -0.0042
     71  CD2       -2.7780   18.7730    7.7290 C.ar   64  PHE64      -0.0042
     72  CE1       -3.7570   21.2270    7.1060 C.ar   64  PHE64      -0.0003
     73  CE2       -3.4760   19.4770    8.6570 C.ar   64  PHE64      -0.0003
     74  CZ        -3.9660   20.7070    8.3460 C.ar   64  PHE64      -0.0000
     75  N          0.6730   17.3370    7.1310 N.am   65  TRP65      -0.1976
     76  CA         1.2270   17.0870    8.4400 C.3    65  TRP65       0.1640
     77  C          2.5870   17.6990    8.5220 C.2    65  TRP65       0.2290
     78  O          3.0110   18.1480    9.5940 O.2    65  TRP65      -0.2864
     79  CB         1.2910   15.6080    8.7910 C.3    65  TRP65       0.0576
     80  CG         2.0140   14.7010    7.8460 C.ar   65  TRP65       0.0006
     81  CD1        3.3390   14.3070    7.8970 C.ar   65  TRP65       0.0946
     82  CD2        1.4290   13.9990    6.7470 C.ar   65  TRP65       0.0152
     83  NE1        3.6100   13.4480    6.8530 N.ar   65  TRP65      -0.2442
     84  CE2        2.4580   13.2400    6.1390 C.ar   65  TRP65       0.0810
     85  CE3        0.1350   13.9480    6.2070 C.ar   65  TRP65       0.0012
     86  CZ2        2.2230   12.4290    5.0440 C.ar   65  TRP65       0.0191
     87  CZ3       -0.0810   13.1690    5.0960 C.ar   65  TRP65       0.0001
     88  CH2        0.9530   12.4210    4.5270 C.ar   65  TRP65       0.0015
     89  N          2.4810   21.3160    9.4370 N.3    68  LEU68      -0.1231
     90  CA         2.3620   21.3970   10.8930 C.3    68  LEU68       0.1693
     91  C          3.6640   21.1630   11.5880 C.2    68  LEU68       0.2591
     92  O          4.0690   21.9760   12.4230 O.2    68  LEU68      -0.2718
     93  CB         1.3670   20.3690   11.4430 C.3    68  LEU68       0.0284
     94  CG        -0.0320   20.4330   10.8700 C.3    68  LEU68       0.0019
     95  CD1       -1.0190   19.8110   11.8280 C.3    68  LEU68       0.0001
     96  CD2       -0.4990   21.8410   10.5610 C.3    68  LEU68       0.0001
     97  N          4.3080   20.0460   11.2670 N.am   69  LEU69      -0.1980
     98  CA         5.5470   19.6920   11.9200 C.3    69  LEU69       0.1596
     99  C          6.6730   20.6550   11.5920 C.2    69  LEU69       0.2287
    100  O          7.4450   21.0150   12.4670 O.2    69  LEU69      -0.2864
    101  CB         6.0150   18.3170   11.4790 C.3    69  LEU69       0.0297
    102  CG         5.1940   17.0840   11.8440 C.3    69  LEU69       0.0022
    103  CD1        5.7850   15.8660   11.1150 C.3    69  LEU69       0.0001
    104  CD2        5.1640   16.9040   13.3540 C.3    69  LEU69       0.0001
    105  N         -7.8190   11.7470    7.5880 N.3    90  TYR90      -0.1241
    106  CA        -7.3050   11.2300    8.8770 C.3    90  TYR90       0.1605
    107  C         -7.6480    9.7580    9.1420 C.2    90  TYR90       0.2264
    108  O         -6.7520    8.9750    9.4870 O.2    90  TYR90      -0.2867
    109  CB        -7.6470   12.1210   10.1130 C.3    90  TYR90       0.0534
    110  CG        -6.8890   11.6310   11.3540 C.ar   90  TYR90      -0.0201
    111  CD1       -5.5300   11.8240   11.4770 C.ar   90  TYR90      -0.0009
    112  CD2       -7.5090   10.8880   12.3320 C.ar   90  TYR90      -0.0009
    113  CE1       -4.8250   11.3330   12.5540 C.ar   90  TYR90       0.0417
    114  CE2       -6.8070   10.4040   13.4200 C.ar   90  TYR90       0.0417
    115  CZ        -5.4550   10.6360   13.5220 C.ar   90  TYR90       0.1957
    116  OH        -4.7380   10.1610   14.5990 O.3    90  TYR90      -0.2866
    117  N         -5.4040    7.4850    7.3790 N.3    93  LEU93      -0.1245
    118  CA        -4.0590    7.6630    7.9020 C.3    93  LEU93       0.1561
    119  C         -3.9930    6.8300    9.1680 C.2    93  LEU93       0.2260
    120  O         -3.1780    5.9140    9.2820 O.2    93  LEU93      -0.2867
    121  CB        -3.7890    9.1340    8.2160 C.3    93  LEU93       0.0270
    122  CG        -2.3210    9.5360    8.3720 C.3    93  LEU93       0.0019
    123  CD1       -1.4360    8.7040    7.4570 C.3    93  LEU93       0.0001
    124  CD2       -2.1380   11.0210    8.0970 C.3    93  LEU93       0.0001
    125  N         -1.5620    3.7820   10.6170 N.3    97  LEU97      -0.1245
    126  CA        -0.6800    3.8630   11.8030 C.3    97  LEU97       0.1561
    127  C         -0.9520    2.7170   12.7290 C.2    97  LEU97       0.2260
    128  O         -0.0260    2.0380   13.1700 O.2    97  LEU97      -0.2867
    129  CB        -0.8150    5.2000   12.5680 C.3    97  LEU97       0.0270
    130  CG        -0.6110    6.4360   11.6870 C.3    97  LEU97       0.0019
    131  CD1       -0.8880    7.7150   12.4620 C.3    97  LEU97       0.0001
    132  CD2        0.7450    6.4520   10.9650 C.3    97  LEU97       0.0001
    133  N          0.8380   -0.3360   11.4100 N.3   100  MET100     -0.1245
    134  CA         2.2810   -0.2110   11.6770 C.3   100  MET100      0.1570
    135  C          2.5870   -0.4340   13.1690 C.2   100  MET100      0.2261
    136  O          3.5920   -1.0680   13.5110 O.2   100  MET100     -0.2867
    137  CB         2.8170    1.1520   11.2150 C.3   100  MET100      0.0387
    138  CG         4.3120    1.3390   11.5450 C.3   100  MET100      0.0595
    139  SD         4.9690    3.0020   11.3080 S.3   100  MET100     -0.1393
    140  CE         5.1530    2.9210    9.6740 C.3   100  MET100      0.0692
    141  N         -4.8510   18.3100   17.0490 N.3   142  PHE142     -0.1241
    142  CA        -3.6920   17.4820   17.2080 C.3   142  PHE142      0.1605
    143  C         -2.8680   18.2380   18.2020 C.2   142  PHE142      0.2264
    144  O         -2.7830   19.4530   18.0770 O.2   142  PHE142     -0.2867
    145  CB        -2.9550   17.3390   15.8680 C.3   142  PHE142      0.0534
    146  CG        -3.8040   16.7210   14.8060 C.ar  142  PHE142     -0.0203
    147  CD1       -4.0260   15.3710   14.8060 C.ar  142  PHE142     -0.0042
    148  CD2       -4.4670   17.5030   13.8760 C.ar  142  PHE142     -0.0042
    149  CE1       -4.8540   14.7960   13.8690 C.ar  142  PHE142     -0.0003
    150  CE2       -5.3080   16.9410   12.9360 C.ar  142  PHE142     -0.0003
    151  CZ        -5.4980   15.5810   12.9260 C.ar  142  PHE142     -0.0000
    152  N          1.0610   18.0180   19.5570 N.3   144  ILE144     -0.1245
    153  CA         2.2580   17.4150   18.9940 C.3   144  ILE144      0.1561
    154  C          3.4620   17.9280   19.7530 C.2   144  ILE144      0.2260
    155  O          3.4530   19.0830   20.1210 O.2   144  ILE144     -0.2867
    156  CB         2.3970   17.7990   17.4990 C.3   144  ILE144      0.0252
    157  CG1        1.1380   17.3450   16.7260 C.3   144  ILE144      0.0019
    158  CG2        3.6950   17.2220   16.8860 C.3   144  ILE144      0.0019
    159  CD1        1.1640   17.7370   15.2860 C.3   144  ILE144      0.0001
@<TRIPOS>BOND
     1    59    58    2
     2    64    65    1
     3    88    86   ar
     4    88    87   ar
     5    86    84   ar
     6    62    60    1
     7    87    85   ar
     8    58    57    1
     9    68    65    1
    10    68    69    1
    11    65    66    1
    12    60    57    1
    13    60    61    1
    14    84    82   ar
    15    84    83   ar
    16    70    69   ar
    17    70    72   ar
    18    85    82   ar
    19    69    71   ar
    20    57    56    1
    21    63    61    1
    22    82    80   ar
    23    83    81   ar
    24    66    75   am
    25    66    67    2
    26    72    74   ar
    27    75    76    1
    28    56    50   am
    29   117   118    1
    30   123   122    1
    31   105   106    1
    32    71    73   ar
    33    80    81   ar
    34    80    79    1
    35   118   121    1
    36   118   119    1
    37   124   122    1
    38    55    53    1
    39   121   122    1
    40    74    73   ar
    41    76    77    1
    42    76    79    1
    43    77    78    2
    44    50    49    1
    45    50    51    2
    46   106   107    1
    47   106   109    1
    48    52    49    1
    49    52    53    1
    50    52    54    1
    51   107   108    2
    52   119   120    2
    53    49    48    1
    54    89    90    1
    55   140   139    1
    56   109   110    1
    57    96    94    1
    58   125   126    1
    59    48    40   am
    60    41    40    2
    61    94    93    1
    62    94    95    1
    63    90    93    1
    64    90    91    1
    65   132   130    1
    66   103   102    1
    67   137   138    1
    68   137   134    1
    69    40    39    1
    70    97    91   am
    71    97    98    1
    72   139   138    1
    73   110   111   ar
    74   110   112   ar
    75   133   134    1
    76   111   113   ar
    77   101   102    1
    78   101    98    1
    79    91    92    2
    80    99    98    1
    81    99   100    2
    82   134   135    1
    83   130   131    1
    84   130   129    1
    85   126   129    1
    86   126   127    1
    87   102   104    1
    88   112   114   ar
    89    42    39    1
    90    42    43    1
    91   113   115   ar
    92    39    38    1
    93   127   128    2
    94   151   150   ar
    95   151   149   ar
    96   150   148   ar
    97    36    35    1
    98    36    37    1
    99   135   136    2
   100     9    11   ar
   101     9     7   ar
   102    11    10   ar
   103   114   115   ar
   104    38    32   am
   105   115   116    1
   106    43    45   ar
   107    43    44   ar
   108    35    34    1
   109    45    47   ar
   110   149   147   ar
   111   148   146   ar
   112     7     6   ar
   113    10     8   ar
   114    32    33    2
   115    32    31    1
   116   147   146   ar
   117   146   145    1
   118    44    46   ar
   119    34    31    1
   120    47    46   ar
   121   159   157    1
   122     6     8   ar
   123     6     5    1
   124    31    30    1
   125   145   142    1
   126    22    20   ar
   127    22    21   ar
   128    28    27    1
   129    29    27    1
   130    20    18   ar
   131    21    19   ar
   132    19    17   ar
   133    18    17   ar
   134     5     2    1
   135     1     2    1
   136   157   156    1
   137    17    16    1
   138   158   156    1
   139    27    24    1
   140   141   142    1
   141   142   143    1
   142    16    13    1
   143     2     3    1
   144   156   153    1
   145     4     3    2
   146   144   143    2
   147    24    25    1
   148    24    23    1
   149    13    12    1
   150    13    14    1
   151    25    26    2
   152   153   152    1
   153   153   154    1
   154    14    15    2
   155   154   155    2
