@<TRIPOS>MOLECULE
tmp/5v36A01.pdb
 77 73 0 0 0
SMALL
GASTEIGER

@<TRIPOS>ATOM
      1  N         45.0270   97.8270   17.8570 N.3    61  ALA61      -0.1245
      2  CA        45.1050   98.9390   18.8010 C.3    61  ALA61       0.1562
      3  C         45.5200   98.4670   20.1980 C.2    61  ALA61       0.2260
      4  O         46.3900   99.0630   20.8340 O.2    61  ALA61      -0.2867
      5  CB        43.7860   99.6890   18.8670 C.3    61  ALA61       0.0290
      6  N         48.7460   99.5990   22.2130 N.3    65  ASN65      -0.1240
      7  CA        48.5100  100.4050   23.4110 C.3    65  ASN65       0.1653
      8  C         48.7430   99.7140   24.7430 C.2    65  ASN65       0.2266
      9  O         49.1970  100.3610   25.6920 O.2    65  ASN65      -0.2867
     10  CB        47.0860  100.9680   23.3910 C.3    65  ASN65       0.1155
     11  CG        46.8300  101.8990   22.2010 C.2    65  ASN65       0.2627
     12  OD1       47.7280  102.5960   21.7480 O.2    65  ASN65      -0.2716
     13  ND2       45.5920  101.9210   21.7150 N.am   65  ASN65      -0.0877
     14  N         52.5170  105.8380   17.9880 N.3    77  THR77      -0.1218
     15  CA        51.5060  105.8610   16.9460 C.3    77  THR77       0.1862
     16  C         51.4990  107.2700   16.3820 C.2    77  THR77       0.2287
     17  O         51.0220  108.1970   17.0260 O.2    77  THR77      -0.2866
     18  CB        50.1190  105.4970   17.5010 C.3    77  THR77       0.1770
     19  OG1       50.1610  104.1790   18.0500 O.3    77  THR77      -0.2211
     20  CG2       49.0590  105.5380   16.4050 C.3    77  THR77       0.0375
     21  N         46.3350  107.6520   13.3140 N.3    80  PHE80      -0.1241
     22  CA        45.3590  106.5950   13.0610 C.3    80  PHE80       0.1605
     23  C         44.4220  107.0820   11.9700 C.2    80  PHE80       0.2264
     24  O         43.7120  108.0550   12.1630 O.2    80  PHE80      -0.2867
     25  CB        44.5600  106.2290   14.3020 C.3    80  PHE80       0.0534
     26  CG        43.4310  105.2960   14.0200 C.ar   80  PHE80      -0.0203
     27  CD1       43.6730  104.0400   13.4820 C.ar   80  PHE80      -0.0042
     28  CD2       42.1140  105.6760   14.2540 C.ar   80  PHE80      -0.0042
     29  CE1       42.6290  103.1710   13.1960 C.ar   80  PHE80      -0.0003
     30  CE2       41.0710  104.8110   13.9860 C.ar   80  PHE80      -0.0003
     31  CZ        41.3230  103.5570   13.4440 C.ar   80  PHE80      -0.0000
     32  N         34.7080  108.0840   10.5430 N.3   166  ALA166     -0.1231
     33  CA        35.6780  108.4410   11.5740 C.3   166  ALA166      0.1694
     34  C         35.1460  107.9490   12.9060 C.2   166  ALA166      0.2592
     35  O         33.9450  107.7210   13.0530 O.2   166  ALA166     -0.2718
     36  CB        35.8980  109.9480   11.6070 C.3   166  ALA166      0.0304
     37  N         36.0400  107.7460   13.8630 N.am  167  ILE167     -0.1966
     38  CA        35.6300  107.3550   15.2050 C.3   167  ILE167      0.1712
     39  C         35.1120  108.6280   15.9030 C.2   167  ILE167      0.2458
     40  O         35.8290  109.6180   15.9540 O.2   167  ILE167     -0.2730
     41  CB        36.8180  106.7650   16.0080 C.3   167  ILE167      0.0289
     42  CG1       37.3230  105.4730   15.3570 C.3   167  ILE167      0.0022
     43  CG2       36.4190  106.5050   17.4620 C.3   167  ILE167      0.0023
     44  CD1       36.2900  104.3760   15.2470 C.3   167  ILE167      0.0001
     45  N         33.8640  108.6150   16.4100 N.am  168  PRO168     -0.2716
     46  CA        33.3690  109.7990   17.1280 C.3   168  PRO168      0.1536
     47  C         34.1940  110.0290   18.3690 C.2   168  PRO168      0.2598
     48  O         34.6810  109.0690   18.9620 O.2   168  PRO168     -0.2715
     49  CB        31.9260  109.4060   17.5280 C.3   168  PRO168      0.0310
     50  CG        31.5650  108.2720   16.6340 C.3   168  PRO168      0.0237
     51  CD        32.8470  107.5510   16.3520 C.3   168  PRO168      0.0939
     52  N         34.3640  111.2820   18.7600 N.am  169  LYS169     -0.1978
     53  CA        35.1110  111.5930   19.9720 C.3   169  LYS169      0.1596
     54  C         34.4470  110.9230   21.1920 C.2   169  LYS169      0.2287
     55  O         35.1310  110.3520   22.0470 O.2   169  LYS169     -0.2864
     56  CB        35.1620  113.1070   20.1690 C.3   169  LYS169      0.0298
     57  CG        35.9940  113.5930   21.3470 C.3   169  LYS169      0.0038
     58  CD        37.4720  113.7270   21.0010 C.3   169  LYS169      0.0206
     59  CE        38.2350  114.4380   22.1170 C.3   169  LYS169      0.1093
     60  NZ        39.6660  114.6840   21.7650 N.3   169  LYS169     -0.1314
     61  N         38.1800  100.5820   22.0280 N.3   189  ALA189     -0.1231
     62  CA        39.5270  100.1690   21.6290 C.3   189  ALA189      0.1694
     63  C         40.1300  101.1140   20.6140 C.2   189  ALA189      0.2592
     64  O         41.3460  101.3320   20.6040 O.2   189  ALA189     -0.2718
     65  CB        39.5190   98.7490   21.0670 C.3   189  ALA189      0.0304
     66  N         39.2680  101.6820   19.7710 N.am  190  LEU190     -0.1966
     67  CA        39.7060  102.5750   18.7090 C.3   190  LEU190      0.1728
     68  C         39.7000  104.0450   19.0930 C.2   190  LEU190      0.2616
     69  O         39.8160  104.9030   18.2140 O.2   190  LEU190     -0.2715
     70  CB        38.8980  102.3280   17.4330 C.3   190  LEU190      0.0311
     71  CG        39.0340  100.9260   16.8440 C.3   190  LEU190      0.0022
     72  CD1       38.1110  100.7790   15.6450 C.3   190  LEU190      0.0001
     73  CD2       40.4640  100.6210   16.4620 C.3   190  LEU190      0.0001
     74  N         39.5390  104.3380   20.3890 N.am  191  GLY191     -0.1955
     75  CA        39.7460  105.6990   20.9000 C.3   191  GLY191      0.1869
     76  C         38.5760  106.5640   21.2850 C.2   191  GLY191      0.2309
     77  O         38.7830  107.6690   21.7570 O.2   191  GLY191     -0.2863
@<TRIPOS>BOND
     1    32    33    1
     2    33    36    1
     3    33    34    1
     4    23    24    2
     5    23    22    1
     6    34    35    2
     7    34    37   am
     8    22    21    1
     9    22    25    1
    10    29    31   ar
    11    29    27   ar
    12    31    30   ar
    13    27    26   ar
    14    37    38    1
    15    30    28   ar
    16    26    28   ar
    17    26    25    1
    18    38    39    1
    19    38    41    1
    20    44    42    1
    21    42    41    1
    22    72    71    1
    23    39    40    2
    24    39    45   am
    25    41    43    1
    26    51    45    1
    27    51    50    1
    28    16    15    1
    29    16    17    2
    30    20    18    1
    31    45    46    1
    32    73    71    1
    33    50    49    1
    34    71    70    1
    35    15    18    1
    36    15    14    1
    37    46    49    1
    38    46    47    1
    39    70    67    1
    40    18    19    1
    41     1     2    1
    42    69    68    2
    43    47    52   am
    44    47    48    2
    45    67    68    1
    46    67    66    1
    47    52    53    1
    48     2     5    1
    49     2     3    1
    50    68    74   am
    51    66    63   am
    52    53    56    1
    53    53    54    1
    54    56    57    1
    55     3     4    2
    56    74    75    1
    57    64    63    2
    58    63    62    1
    59    75    76    1
    60    58    57    1
    61    58    59    1
    62    65    62    1
    63    54    55    2
    64    76    77    2
    65    62    61    1
    66    13    11   am
    67    12    11    2
    68    60    59    1
    69    11    10    1
    70     6     7    1
    71    10     7    1
    72     7     8    1
    73     8     9    2
