@<TRIPOS>MOLECULE
tmp/5v37A01.pdb
 220 213 0 0 0
SMALL
GASTEIGER

@<TRIPOS>ATOM
      1  N         17.6170   14.1730   14.3370 N.3   178  CYS178     -0.1221
      2  CA        17.1780   13.6380   15.6420 C.3   178  CYS178      0.1808
      3  C         15.8660   12.8480   15.6070 C.2   178  CYS178      0.2601
      4  O         15.3870   12.4320   16.6670 O.2   178  CYS178     -0.2717
      5  CB        17.1180   14.7500   16.6900 C.3   178  CYS178      0.0970
      6  SG        15.8520   15.9910   16.4070 S.3   178  CYS178     -0.0800
      7  N         15.2920   12.6270   14.4200 N.am  179  ASN179     -0.1960
      8  CA        14.0840   11.7810   14.2900 C.3   179  ASN179      0.1819
      9  C         14.1300   10.6160   13.2780 C.2   179  ASN179      0.2622
     10  O         13.1870    9.8280   13.2380 O.2   179  ASN179     -0.2715
     11  CB        12.8590   12.6540   13.9910 C.3   179  ASN179      0.1195
     12  CG        12.4770   13.5480   15.1610 C.2   179  ASN179      0.2630
     13  OD1       11.8750   13.0870   16.1310 O.2   179  ASN179     -0.2716
     14  ND2       12.7990   14.8400   15.0620 N.am  179  ASN179     -0.0877
     15  N         15.2190   10.4980   12.5170 N.am  180  SER180     -0.1936
     16  CA        15.3850    9.4300   11.5310 C.3   180  SER180      0.2055
     17  C         15.5950    8.0830   12.2010 C.2   180  SER180      0.2643
     18  O         16.3000    8.0050   13.2040 O.2   180  SER180     -0.2714
     19  CB        16.6040    9.7030   10.6590 C.3   180  SER180      0.2130
     20  OG        16.3070   10.6160    9.6320 O.3   180  SER180     -0.2179
     21  N         14.9900    7.0380   11.6360 N.am  181  PHE181     -0.1959
     22  CA        15.1920    5.6670   12.1090 C.3   181  PHE181      0.1771
     23  C         16.0070    4.8980   11.0780 C.2   181  PHE181      0.2620
     24  O         15.7110    4.9460    9.8870 O.2   181  PHE181     -0.2715
     25  CB        13.8470    4.9650   12.2710 C.3   181  PHE181      0.0574
     26  CG        13.0160    5.4930   13.3980 C.ar  181  PHE181     -0.0200
     27  CD1       12.2580    6.6490   13.2460 C.ar  181  PHE181     -0.0042
     28  CD2       12.9820    4.8270   14.6200 C.ar  181  PHE181     -0.0042
     29  CE1       11.4900    7.1350   14.2950 C.ar  181  PHE181     -0.0003
     30  CE2       12.2170    5.3020   15.6690 C.ar  181  PHE181     -0.0003
     31  CZ        11.4670    6.4610   15.5080 C.ar  181  PHE181     -0.0000
     32  N         17.0230    4.1910   11.5490 N.am  182  THR182     -0.1951
     33  CA        17.7510    3.2350   10.7360 C.3   182  THR182      0.1897
     34  C         16.8960    1.9760   10.6440 C.2   182  THR182      0.2313
     35  O         16.5860    1.3640   11.6600 O.2   182  THR182     -0.2863
     36  CB        19.0960    2.8870   11.3810 C.3   182  THR182      0.1794
     37  OG1       19.8760    4.0750   11.5180 O.3   182  THR182     -0.2208
     38  CG2       19.8890    1.8880   10.5380 C.3   182  THR182      0.0378
     39  N         16.4460   -1.7530    9.8440 N.3   184  CYS184     -0.1235
     40  CA        17.2580   -2.9630    9.7800 C.3   184  CYS184      0.1677
     41  C         16.4120   -4.1000    9.2230 C.2   184  CYS184      0.2270
     42  O         15.2080   -4.1680    9.4620 O.2   184  CYS184     -0.2867
     43  CB        17.7980   -3.3340   11.1660 C.3   184  CYS184      0.0956
     44  SG        18.9920   -2.1640   11.8520 S.3   184  CYS184     -0.0801
     45  N         19.0690   -8.1050   11.1630 N.3   188  MET188     -0.1245
     46  CA        19.6350   -6.9580   11.8910 C.3   188  MET188      0.1570
     47  C         20.8180   -6.2820   11.1810 C.2   188  MET188      0.2261
     48  O         21.7240   -5.7390   11.8190 O.2   188  MET188     -0.2867
     49  CB        19.9550   -7.3470   13.3500 C.3   188  MET188      0.0387
     50  CG        18.7150   -7.6410   14.1760 C.3   188  MET188      0.0595
     51  SD        17.7250   -6.1500   14.4100 S.3   188  MET188     -0.1393
     52  CE        16.3760   -6.7970   15.3960 C.3   188  MET188      0.0692
     53  N         21.7320   -3.1560    8.6560 N.3   190  GLU190     -0.1245
     54  CA        21.1850   -1.8600    8.2550 C.3   190  GLU190      0.1567
     55  C         20.9130   -1.8510    6.7500 C.2   190  GLU190      0.2260
     56  O         21.8090   -2.1510    5.9590 O.2   190  GLU190     -0.2867
     57  CB        22.1590   -0.7380    8.6130 C.3   190  GLU190      0.0388
     58  CG        22.3070   -0.4940   10.1080 C.3   190  GLU190      0.1160
     59  CD        23.4170   -1.2860   10.7790 C.2   190  GLU190      0.3649
     60  OE1       23.8270   -2.3600   10.2690 O.co2 190  GLU190     -0.2457
     61  OE2       23.8760   -0.8260   11.8460 O.co2 190  GLU190     -0.2457
     62  N          8.1630    8.8050   16.5040 N.3   200  SER200     -0.1217
     63  CA         9.0570    9.8620   16.9930 C.3   200  SER200      0.1889
     64  C          8.6790   10.5170   18.3150 C.2   200  SER200      0.2288
     65  O          9.4960   11.2330   18.8660 O.2   200  SER200     -0.2866
     66  CB         9.2270   10.9650   15.9360 C.3   200  SER200      0.2089
     67  OG        10.1060   10.5470   14.9290 O.3   200  SER200     -0.2183
     68  N          8.3390    8.8130   21.0260 N.3   202  LEU202     -0.1245
     69  CA         9.0330    8.0330   22.0530 C.3   202  LEU202      0.1561
     70  C         10.3790    8.6250   22.4430 C.2   202  LEU202      0.2260
     71  O         11.2550    8.7980   21.5940 O.2   202  LEU202     -0.2867
     72  CB         9.2550    6.5950   21.5760 C.3   202  LEU202      0.0270
     73  CG         7.9830    5.7690   21.3790 C.3   202  LEU202      0.0019
     74  CD1        8.1770    4.7000   20.3130 C.3   202  LEU202      0.0001
     75  CD2        7.5380    5.1410   22.6980 C.3   202  LEU202      0.0001
     76  N         11.1320   -1.1900   19.1630 N.3   212  ILE212     -0.1245
     77  CA        10.6380   -1.1590   17.8010 C.3   212  ILE212      0.1561
     78  C         11.2840   -2.3170   17.0730 C.2   212  ILE212      0.2260
     79  O         12.3800   -2.7620   17.4220 O.2   212  ILE212     -0.2867
     80  CB        10.9260    0.1780   17.0710 C.3   212  ILE212      0.0252
     81  CG1       12.4350    0.3920   16.8400 C.3   212  ILE212      0.0019
     82  CG2       10.2750    1.3170   17.8410 C.3   212  ILE212      0.0019
     83  CD1       12.7600    1.5700   15.9570 C.3   212  ILE212      0.0001
     84  N         11.4740   -3.8240   12.7980 N.3   214  PHE214     -0.1241
     85  CA        11.1500   -3.6140   11.3970 C.3   214  PHE214      0.1605
     86  C         10.8600   -4.9230   10.6840 C.2   214  PHE214      0.2264
     87  O         11.5710   -5.9170   10.8720 O.2   214  PHE214     -0.2867
     88  CB        12.2830   -2.8840   10.6900 C.3   214  PHE214      0.0534
     89  CG        12.5000   -1.4880   11.2020 C.ar  214  PHE214     -0.0203
     90  CD1       11.6980   -0.4410   10.7500 C.ar  214  PHE214     -0.0042
     91  CD2       13.4820   -1.2230   12.1410 C.ar  214  PHE214     -0.0042
     92  CE1       11.8880    0.8540   11.2230 C.ar  214  PHE214     -0.0003
     93  CE2       13.6760    0.0730   12.6140 C.ar  214  PHE214     -0.0003
     94  CZ        12.8750    1.1060   12.1550 C.ar  214  PHE214     -0.0000
     95  N         12.0480    3.8790   24.3240 N.3   235  ILE235     -0.1231
     96  CA        12.8400    2.9360   23.5320 C.3   235  ILE235      0.1692
     97  C         14.2900    3.3170   23.6950 C.2   235  ILE235      0.2592
     98  O         14.5920    4.4490   24.0580 O.2   235  ILE235     -0.2718
     99  CB        12.4530    2.9270   22.0280 C.3   235  ILE235      0.0266
    100  CG1       12.5970    4.3280   21.3840 C.3   235  ILE235      0.0019
    101  CG2       11.0430    2.3990   21.8730 C.3   235  ILE235      0.0020
    102  CD1       12.3390    4.3860   19.8860 C.3   235  ILE235      0.0001
    103  N         15.1960    2.3810   23.4400 N.am  236  CYS236     -0.1956
    104  CA        16.6120    2.6960   23.3790 C.3   236  CYS236      0.1843
    105  C         16.9750    3.0110   21.9300 C.2   236  CYS236      0.2625
    106  O         16.9250    2.1480   21.0580 O.2   236  CYS236     -0.2714
    107  CB        17.4830    1.5580   23.9250 C.3   236  CYS236      0.0997
    108  SG        19.2440    1.9500   23.9890 S.3   236  CYS236     -0.0797
    109  N         17.3500    4.2620   21.6870 N.am  237  TYR237     -0.1960
    110  CA        17.7600    4.7400   20.3720 C.3   237  TYR237      0.1771
    111  C         19.0590    4.1260   19.8810 C.2   237  TYR237      0.2619
    112  O         19.3490    4.2000   18.6830 O.2   237  TYR237     -0.2715
    113  CB        17.9960    6.2720   20.3720 C.3   237  TYR237      0.0574
    114  CG        16.8260    7.1910   20.6790 C.ar  237  TYR237     -0.0198
    115  CD1       15.5250    6.7200   20.8330 C.ar  237  TYR237     -0.0009
    116  CD2       17.0350    8.5750   20.7800 C.ar  237  TYR237     -0.0009
    117  CE1       14.4750    7.5830   21.1120 C.ar  237  TYR237      0.0417
    118  CE2       15.9920    9.4400   21.0490 C.ar  237  TYR237      0.0417
    119  CZ        14.7210    8.9480   21.2200 C.ar  237  TYR237      0.1957
    120  OH        13.6860    9.7970   21.4910 O.3   237  TYR237     -0.2866
    121  N         19.8610    3.5690   20.7950 N.am  238  LEU238     -0.1963
    122  CA        21.2260    3.1880   20.4940 C.3   238  LEU238      0.1728
    123  C         21.5040    1.6860   20.5260 C.2   238  LEU238      0.2616
    124  O         20.8080    0.9100   21.1910 O.2   238  LEU238     -0.2715
    125  CB        22.1670    3.8640   21.4790 C.3   238  LEU238      0.0311
    126  CG        22.0830    5.3880   21.5710 C.3   238  LEU238      0.0022
    127  CD1       23.1090    5.8410   22.5810 C.3   238  LEU238      0.0001
    128  CD2       22.3420    6.0540   20.2300 C.3   238  LEU238      0.0001
    129  N         22.5370    1.3250   19.7700 N.am  239  ASP239     -0.1957
    130  CA        23.2560    0.0520   19.8590 C.3   239  ASP239      0.1840
    131  C         23.5930   -0.2320   21.3290 C.2   239  ASP239      0.2621
    132  O         24.1350    0.6290   22.0260 O.2   239  ASP239     -0.2715
    133  CB        24.5140    0.1890   18.9860 C.3   239  ASP239      0.1450
    134  CG        25.5500   -0.9060   19.1860 C.2   239  ASP239      0.3671
    135  OD1       25.2210   -2.0480   19.5870 O.co2 239  ASP239     -0.2456
    136  OD2       26.7340   -0.5990   18.9000 O.co2 239  ASP239     -0.2456
    137  N         23.2560   -1.4320   21.8010 N.am  240  MET240     -0.1977
    138  CA        23.5160   -1.8090   23.1970 C.3   240  MET240      0.1605
    139  C         24.9920   -1.9660   23.5310 C.2   240  MET240      0.2287
    140  O         25.3830   -1.7970   24.6970 O.2   240  MET240     -0.2864
    141  CB        22.7700   -3.1010   23.5660 C.3   240  MET240      0.0413
    142  CG        21.2520   -3.0110   23.5280 C.3   240  MET240      0.0598
    143  SD        20.5150   -1.5590   24.3090 S.3   240  MET240     -0.1393
    144  CE        20.9870   -1.8650   26.0120 C.3   240  MET240      0.0692
    145  N         21.3380   13.9350   19.3560 N.3   255  TYR255     -0.1241
    146  CA        20.0350   14.1580   19.9820 C.3   255  TYR255      0.1605
    147  C         19.9390   15.3470   20.9420 C.2   255  TYR255      0.2264
    148  O         18.8530   15.6390   21.4320 O.2   255  TYR255     -0.2867
    149  CB        19.5830   12.8610   20.6610 C.3   255  TYR255      0.0534
    150  CG        19.4030   11.7500   19.6530 C.ar  255  TYR255     -0.0201
    151  CD1       18.3430   11.7730   18.7620 C.ar  255  TYR255     -0.0009
    152  CD2       20.3260   10.7070   19.5500 C.ar  255  TYR255     -0.0009
    153  CE1       18.1730   10.7660   17.8150 C.ar  255  TYR255      0.0417
    154  CE2       20.1650    9.6960   18.6060 C.ar  255  TYR255      0.0417
    155  CZ        19.0880    9.7280   17.7440 C.ar  255  TYR255      0.1957
    156  OH        18.9100    8.7520   16.7890 O.3   255  TYR255     -0.2866
    157  N         31.2140   -4.2320    5.8240 N.3   295  LYS295     -0.1245
    158  CA        29.9320   -4.9090    6.0700 C.3   295  LYS295      0.1561
    159  C         28.7480   -4.1140    5.5110 C.2   295  LYS295      0.2260
    160  O         27.8330   -4.6960    4.9230 O.2   295  LYS295     -0.2867
    161  CB        29.7210   -5.1780    7.5720 C.3   295  LYS295      0.0271
    162  CG        28.2840   -5.4910    7.9530 C.3   295  LYS295      0.0035
    163  CD        28.1100   -5.9390    9.3990 C.3   295  LYS295      0.0206
    164  CE        26.6340   -5.9220    9.7710 C.3   295  LYS295      0.1093
    165  NZ        26.3750   -6.1580   11.2140 N.3   295  LYS295     -0.1314
    166  N         30.5700  -11.0510   15.8240 N.3   330  ASP330     -0.1239
    167  CA        29.2740  -10.9580   15.1740 C.3   330  ASP330      0.1674
    168  C         29.4010  -10.6980   13.6650 C.2   330  ASP330      0.2266
    169  O         28.6770  -11.3010   12.8710 O.2   330  ASP330     -0.2867
    170  CB        28.4160   -9.8660   15.8230 C.3   330  ASP330      0.1410
    171  CG        27.0940   -9.6860   15.1240 C.2   330  ASP330      0.3668
    172  OD1       26.2580  -10.6130   15.1980 O.co2 330  ASP330     -0.2456
    173  OD2       26.8930   -8.6180   14.4880 O.co2 330  ASP330     -0.2456
    174  N         25.8390  -11.7330   24.6740 N.3   356  TYR356     -0.1241
    175  CA        24.5100  -11.2020   24.2990 C.3   356  TYR356      0.1605
    176  C         23.4660  -11.3300   25.4110 C.2   356  TYR356      0.2264
    177  O         22.6500  -10.4250   25.6010 O.2   356  TYR356     -0.2867
    178  CB        23.9790  -11.8180   22.9910 C.3   356  TYR356      0.0534
    179  CG        24.4060  -11.0670   21.7360 C.ar  356  TYR356     -0.0201
    180  CD1       25.7420  -10.7550   21.5060 C.ar  356  TYR356     -0.0009
    181  CD2       23.4680  -10.6760   20.7700 C.ar  356  TYR356     -0.0009
    182  CE1       26.1350  -10.0710   20.3580 C.ar  356  TYR356      0.0417
    183  CE2       23.8550   -9.9940   19.6160 C.ar  356  TYR356      0.0417
    184  CZ        25.1870   -9.6960   19.4150 C.ar  356  TYR356      0.1957
    185  OH        25.5900   -9.0160   18.2830 O.3   356  TYR356     -0.2866
    186  N         22.1160   -7.6700   26.4320 N.3   360  PHE360     -0.1241
    187  CA        20.7450   -7.4630   25.9540 C.3   360  PHE360      0.1605
    188  C         19.7250   -8.0240   26.9680 C.2   360  PHE360      0.2264
    189  O         19.0200   -9.0040   26.6760 O.2   360  PHE360     -0.2867
    190  CB        20.5500   -8.1040   24.5690 C.3   360  PHE360      0.0534
    191  CG        21.4300   -7.5220   23.4910 C.ar  360  PHE360     -0.0203
    192  CD1       22.7300   -7.9650   23.3090 C.ar  360  PHE360     -0.0042
    193  CD2       20.9540   -6.5140   22.6600 C.ar  360  PHE360     -0.0042
    194  CE1       23.5440   -7.4240   22.3220 C.ar  360  PHE360     -0.0003
    195  CE2       21.7570   -5.9680   21.6680 C.ar  360  PHE360     -0.0003
    196  CZ        23.0530   -6.4190   21.4960 C.ar  360  PHE360     -0.0000
    197  N         14.9070   -8.3030   24.1010 N.3   364  HIS364     -0.1227
    198  CA        15.4580   -7.3790   23.1200 C.3   364  HIS364      0.1737
    199  C         15.4980   -8.0990   21.7560 C.2   364  HIS364      0.2438
    200  O         16.0210   -9.2180   21.6680 O.2   364  HIS364     -0.2733
    201  CB        16.8510   -6.9600   23.5670 C.3   364  HIS364      0.0758
    202  CG        17.3760   -5.7370   22.8800 C.ar  364  HIS364      0.0818
    203  ND1       17.5730   -5.6790   21.5210 N.ar  364  HIS364     -0.2268
    204  CD2       17.7960   -4.5470   23.3700 C.ar  364  HIS364      0.1154
    205  CE1       18.0580   -4.4940   21.1930 C.ar  364  HIS364      0.1986
    206  NE2       18.2010   -3.7880   22.3000 N.ar  364  HIS364     -0.2212
    207  N         14.9400   -7.4790   20.6900 N.am  365  PRO365     -0.2718
    208  CA        14.8530   -8.1420   19.3760 C.3   365  PRO365      0.1535
    209  C         16.1930   -8.6130   18.7800 C.2   365  PRO365      0.2598
    210  O         16.2480   -9.6500   18.1160 O.2   365  PRO365     -0.2715
    211  CB        14.1990   -7.0670   18.4850 C.3   365  PRO365      0.0310
    212  CG        14.5270   -5.7740   19.1630 C.3   365  PRO365      0.0237
    213  CD        14.3990   -6.1050   20.6170 C.3   365  PRO365      0.0939
    214  N         17.2500   -7.8450   19.0160 N.am  366  VAL366     -0.1978
    215  CA        18.6070   -8.1530   18.5670 C.3   366  VAL366      0.1596
    216  C         19.1380   -9.4680   19.1720 C.2   366  VAL366      0.2287
    217  O         19.7950  -10.2490   18.4700 O.2   366  VAL366     -0.2864
    218  CB        19.5760   -6.9700   18.8390 C.3   366  VAL366      0.0276
    219  CG1       21.0000   -7.3000   18.4220 C.3   366  VAL366      0.0022
    220  CG2       19.1090   -5.7220   18.0900 C.3   366  VAL366      0.0022
@<TRIPOS>BOND
     1   160   159    2
     2   159   158    1
     3   157   158    1
     4    56    55    2
     5   158   161    1
     6    55    54    1
     7   161   162    1
     8   162   163    1
     9    54    57    1
    10    54    53    1
    11    57    58    1
    12    41    42    2
    13    41    40    1
    14   163   164    1
    15    20    19    1
    16   164   165    1
    17    40    39    1
    18    40    43    1
    19    24    23    2
    20    58    59    1
    21    60    59   ar
    22    38    36    1
    23    34    33    1
    24    34    35    2
    25    19    16    1
    26    86    87    2
    27    86    85    1
    28    88    89    1
    29    88    85    1
    30    33    36    1
    31    33    32    1
    32    90    89   ar
    33    90    92   ar
    34    59    61   ar
    35    23    32   am
    36    23    22    1
    37    45    46    1
    38    43    44    1
    39    47    48    2
    40    47    46    1
    41    89    91   ar
    42    92    94   ar
    43    36    37    1
    44    85    84    1
    45    16    17    1
    46    16    15    1
    47    21    22    1
    48    21    17   am
    49    46    49    1
    50    22    25    1
    51    91    93   ar
    52    94    93   ar
    53    17    18    2
    54    25    26    1
    55    15     9   am
    56   169   168    2
    57    10     9    2
    58    27    26   ar
    59    27    29   ar
    60     9     8    1
    61    49    50    1
    62    26    28   ar
    63   168   167    1
    64    11     8    1
    65    11    12    1
    66    50    51    1
    67     8     7    1
    68    29    31   ar
    69     1     2    1
    70    51    52    1
    71     7     3   am
    72   173   171   ar
    73    28    30   ar
    74    67    66    1
    75    14    12   am
    76   171   172   ar
    77   171   170    1
    78    12    13    2
    79   167   170    1
    80   167   166    1
    81    31    30   ar
    82     3     2    1
    83     3     4    2
    84     2     5    1
    85    66    63    1
    86    83    81    1
    87     6     5    1
    88    62    63    1
    89   156   155    1
    90    81    80    1
    91    63    64    1
    92    80    77    1
    93    80    82    1
    94    78    79    2
    95    78    77    1
    96   155   153   ar
    97   155   154   ar
    98    77    76    1
    99   153   151   ar
   100   220   218    1
   101   210   209    2
   102   185   184    1
   103    64    65    2
   104   219   218    1
   105   217   216    2
   106   211   212    1
   107   211   208    1
   108   215   218    1
   109   215   214    1
   110   215   216    1
   111   154   152   ar
   112   112   111    2
   113   151   150   ar
   114   209   214   am
   115   209   208    1
   116   136   134   ar
   117   133   134    1
   118   133   130    1
   119   212   213    1
   120   134   135   ar
   121   145   146    1
   122   208   207    1
   123   184   183   ar
   124   184   182   ar
   125   152   150   ar
   126   183   181   ar
   127   150   149    1
   128   129   130    1
   129   129   123   am
   130   130   131    1
   131   111   110    1
   132   111   121   am
   133   102   100    1
   134   146   149    1
   135   146   147    1
   136   128   126    1
   137    74    73    1
   138   182   180   ar
   139   110   113    1
   140   110   109    1
   141   113   114    1
   142   122   123    1
   143   122   121    1
   144   122   125    1
   145   123   124    2
   146   213   207    1
   147   114   116   ar
   148   114   115   ar
   149   207   199   am
   150   181   179   ar
   151   116   118   ar
   152   115   117   ar
   153   147   148    2
   154    68    69    1
   155   118   119   ar
   156   106   105    2
   157   117   119   ar
   158   205   203   ar
   159   205   206   ar
   160   119   120    1
   161   131   137   am
   162   131   132    2
   163    73    72    1
   164    73    75    1
   165   100    99    1
   166   125   126    1
   167   196   195   ar
   168   196   194   ar
   169   180   179   ar
   170   203   202   ar
   171   126   127    1
   172    72    69    1
   173    71    70    2
   174   195   193   ar
   175   200   199    2
   176   109   105   am
   177   179   178    1
   178   199   198    1
   179   137   138    1
   180   101    99    1
   181   105   104    1
   182    99    96    1
   183    69    70    1
   184   206   204   ar
   185   194   192   ar
   186   193   191   ar
   187   202   204   ar
   188   202   201    1
   189   178   175    1
   190   198   201    1
   191   198   197    1
   192   138   139    1
   193   138   141    1
   194   192   191   ar
   195   104   103    1
   196   104   107    1
   197   103    97   am
   198   191   190    1
   199   142   141    1
   200   142   143    1
   201   139   140    2
   202    96    97    1
   203    96    95    1
   204    97    98    2
   205   107   108    1
   206   175   174    1
   207   175   176    1
   208   143   144    1
   209   190   187    1
   210   176   177    2
   211   187   186    1
   212   187   188    1
   213   189   188    2
