@<TRIPOS>MOLECULE
tmp/5v3cA02.pdb
 79 75 0 0 0
SMALL
GASTEIGER

@<TRIPOS>ATOM
      1  N          4.6560    0.4990   95.3210 N.3    24  LYS24      -0.1231
      2  CA         3.3950   -0.2330   95.2560 C.3    24  LYS24       0.1693
      3  C          2.7540   -0.1790   93.8710 C.2    24  LYS24       0.2591
      4  O          2.1160   -1.1540   93.4520 O.2    24  LYS24      -0.2718
      5  CB         2.4400    0.2580   96.3470 C.3    24  LYS24       0.0285
      6  CG         2.8520   -0.2600   97.7160 C.3    24  LYS24       0.0035
      7  CD         1.9810    0.2860   98.8050 C.3    24  LYS24       0.0206
      8  CE         2.4970   -0.1500  100.1620 C.3    24  LYS24       0.1093
      9  NZ         2.5400   -1.6410  100.2980 N.3    24  LYS24      -0.1314
     10  N          2.9060    0.9330   93.1490 N.am   25  ARG25      -0.1980
     11  CA         2.3000    1.0850   91.8300 C.3    25  ARG25       0.1597
     12  C          3.2420    0.7130   90.6850 C.2    25  ARG25       0.2287
     13  O          2.8760    0.8960   89.5200 O.2    25  ARG25      -0.2864
     14  CB         1.7770    2.5130   91.6420 C.3    25  ARG25       0.0334
     15  CG         0.5580    2.8570   92.5100 C.3    25  ARG25       0.0492
     16  CD         0.0420    4.2520   92.1880 C.3    25  ARG25       0.2205
     17  NE        -1.2750    4.5500   92.7630 N.pl3  25  ARG25      -0.0865
     18  CZ        -1.4910    5.2840   93.8530 C.cat  25  ARG25       0.5346
     19  NH1       -0.4900    5.8120   94.5410 N.pl3  25  ARG25       0.1354
     20  NH2       -2.7350    5.4930   94.2620 N.pl3  25  ARG25       0.1354
     21  N         -0.5600   14.7090   99.6270 N.3   134  HIS134     -0.1241
     22  CA        -1.3690   13.6150  100.1580 C.3   134  HIS134      0.1621
     23  C         -2.7140   13.5180   99.4360 C.2   134  HIS134      0.2264
     24  O         -3.1170   12.4360   98.9930 O.2   134  HIS134     -0.2867
     25  CB        -1.5510   13.8850  101.6570 C.3   134  HIS134      0.0745
     26  CG        -2.4230   12.9120  102.3830 C.ar  134  HIS134      0.0817
     27  ND1       -2.3930   11.5550  102.1570 N.ar  134  HIS134     -0.2268
     28  CD2       -3.3270   13.1090  103.3730 C.ar  134  HIS134      0.1154
     29  CE1       -3.2550   10.9580  102.9630 C.ar  134  HIS134      0.1986
     30  NE2       -3.8400   11.8800  103.7050 N.ar  134  HIS134     -0.2212
     31  N         -2.4380   12.0940   96.1350 N.3   137  GLY137     -0.1210
     32  CA        -2.1240   10.6820   96.1580 C.3   137  GLY137      0.1956
     33  C         -0.8050   10.3500   95.5040 C.2   137  GLY137      0.2613
     34  O         -0.6240    9.2310   95.0130 O.2   137  GLY137     -0.2717
     35  N          0.1240   11.2920   95.4260 N.am  138  SER138     -0.1938
     36  CA         1.3540   10.9620   94.7210 C.3   138  SER138      0.2055
     37  C          2.2060    9.9680   95.5080 C.2   138  SER138      0.2643
     38  O          2.1490    9.8670   96.7390 O.2   138  SER138     -0.2714
     39  CB         2.1560   12.2020   94.3400 C.3   138  SER138      0.2130
     40  OG         2.1270   13.1470   95.3730 O.3   138  SER138     -0.2179
     41  N          3.0080    9.2340   94.7600 N.am  139  ASP139     -0.1971
     42  CA         3.8220    8.1400   95.2620 C.3   139  ASP139      0.1709
     43  C          5.1610    8.6140   95.7910 C.2   139  ASP139      0.2293
     44  O          5.6500    8.0660   96.7860 O.2   139  ASP139     -0.2864
     45  CB         4.0510    7.1370   94.1420 C.3   139  ASP139      0.1436
     46  CG         2.7710    6.6480   93.5810 C.2   139  ASP139      0.3671
     47  OD1        2.1870    5.7260   94.1960 O.co2 139  ASP139     -0.2456
     48  OD2        2.3440    7.2090   92.5550 O.co2 139  ASP139     -0.2456
     49  N         -1.4740    6.9110  106.3520 N.3   180  GLU180     -0.1231
     50  CA        -1.7120    6.3740  105.0150 C.3   180  GLU180      0.1699
     51  C         -0.6290    6.8210  104.0460 C.2   180  GLU180      0.2592
     52  O         -0.2010    6.0550  103.1740 O.2   180  GLU180     -0.2718
     53  CB        -3.0840    6.8280  104.5180 C.3   180  GLU180      0.0402
     54  CG        -4.2890    6.1200  105.1440 C.3   180  GLU180      0.1161
     55  CD        -4.7640    6.7420  106.4050 C.2   180  GLU180      0.3649
     56  OE1       -4.1190    7.6730  106.8980 O.co2 180  GLU180     -0.2457
     57  OE2       -5.7800    6.3280  106.8990 O.co2 180  GLU180     -0.2457
     58  N         -0.1760    8.0620  104.1820 N.am  181  GLN181     -0.1979
     59  CA         0.8610    8.5760  103.3070 C.3   181  GLN181      0.1601
     60  C          2.2060    7.9380  103.6450 C.2   181  GLN181      0.2287
     61  O          2.9180    7.4450  102.7610 O.2   181  GLN181     -0.2864
     62  CB         0.9070   10.0960  103.4520 C.3   181  GLN181      0.0394
     63  CG         1.7280   10.7940  102.3900 C.3   181  GLN181      0.0908
     64  CD         1.6740   12.3140  102.4910 C.2   181  GLN181      0.2608
     65  OE1        1.5420   12.8720  103.5830 O.2   181  GLN181     -0.2717
     66  NE2        1.7920   12.9870  101.3510 N.am  181  GLN181     -0.0878
     67  N          2.4410    4.3000  102.3300 N.3   184  ASN184     -0.1225
     68  CA         2.2360    4.0250  100.9190 C.3   184  ASN184      0.1785
     69  C          3.0720    4.8700   99.9780 C.2   184  ASN184      0.2597
     70  O          3.1970    4.4960   98.8100 O.2   184  ASN184     -0.2718
     71  CB         0.7500    4.1670  100.5660 C.3   184  ASN184      0.1169
     72  CG        -0.0680    3.1250  101.2400 C.2   184  ASN184      0.2627
     73  OD1        0.0320    1.9450  100.9090 O.2   184  ASN184     -0.2716
     74  ND2       -0.8580    3.5310  102.2200 N.am  184  ASN184     -0.0877
     75  N          3.6510    5.9730  100.4460 N.am  185  ALA185     -0.1979
     76  CA         4.4230    6.8780   99.6130 C.3   185  ALA185      0.1597
     77  C          5.8440    6.9880  100.1620 C.2   185  ALA185      0.2287
     78  O          6.1680    6.4700  101.2390 O.2   185  ALA185     -0.2864
     79  CB         3.7550    8.2600   99.5710 C.3   185  ALA185      0.0319
@<TRIPOS>BOND
     1    13    12    2
     2    12    11    1
     3    14    11    1
     4    14    15    1
     5    11    10    1
     6    16    15    1
     7    16    17    1
     8    48    46   ar
     9    17    18    2
    10    10     3   am
    11     4     3    2
    12    46    45    1
    13    46    47   ar
    14    18    20    1
    15    18    19    1
    16     3     2    1
    17    45    42    1
    18    39    36    1
    19    39    40    1
    20    36    35    1
    21    36    37    1
    22    41    42    1
    23    41    37   am
    24    34    33    2
    25     2     1    1
    26     2     5    1
    27    42    43    1
    28    35    33   am
    29    33    32    1
    30    37    38    2
    31    43    44    2
    32    31    32    1
    33     5     6    1
    34     6     7    1
    35     7     8    1
    36    70    69    2
    37    24    23    2
    38    23    22    1
    39    79    76    1
    40    76    77    1
    41    76    75    1
    42    21    22    1
    43    69    75   am
    44    69    68    1
    45    22    25    1
    46    77    78    2
    47     8     9    1
    48    71    68    1
    49    71    72    1
    50    73    72    2
    51    68    67    1
    52    72    74   am
    53    66    64   am
    54    25    26    1
    55    27    26   ar
    56    27    29   ar
    57    26    28   ar
    58    63    64    1
    59    63    62    1
    60    64    65    2
    61    61    60    2
    62    29    30   ar
    63    52    51    2
    64    59    62    1
    65    59    60    1
    66    59    58    1
    67    28    30   ar
    68    51    58   am
    69    51    50    1
    70    53    50    1
    71    53    54    1
    72    50    49    1
    73    54    55    1
    74    55    56   ar
    75    55    57   ar
