@<TRIPOS>MOLECULE
tmp/5v3cA00.pdb
 75 70 0 0 0
SMALL
GASTEIGER

@<TRIPOS>ATOM
      1  N          9.2220   26.0220   94.3230 N.3    97  TYR97      -0.1241
      2  CA         9.9080   26.7730   93.2740 C.3    97  TYR97       0.1605
      3  C          8.9460   27.6060   92.4330 C.2    97  TYR97       0.2264
      4  O          9.2310   28.7730   92.1390 O.2    97  TYR97      -0.2867
      5  CB        10.7090   25.8440   92.3690 C.3    97  TYR97       0.0534
      6  CG        11.4420   26.6090   91.2980 C.ar   97  TYR97      -0.0201
      7  CD1       12.4730   27.4750   91.6280 C.ar   97  TYR97      -0.0009
      8  CD2       11.0930   26.4860   89.9630 C.ar   97  TYR97      -0.0009
      9  CE1       13.1470   28.1830   90.6610 C.ar   97  TYR97       0.0417
     10  CE2       11.7640   27.1960   88.9860 C.ar   97  TYR97       0.0417
     11  CZ        12.7870   28.0430   89.3430 C.ar   97  TYR97       0.1957
     12  OH        13.4620   28.7570   88.3820 O.3    97  TYR97      -0.2866
     13  N         10.6150   23.2840   99.7530 N.3   145  ASP145     -0.1239
     14  CA        11.9550   23.8380   99.7760 C.3   145  ASP145      0.1674
     15  C         11.9300   25.2750   99.3000 C.2   145  ASP145      0.2266
     16  O         10.8930   25.8210   98.9090 O.2   145  ASP145     -0.2867
     17  CB        12.9160   23.0310   98.8880 C.3   145  ASP145      0.1410
     18  CG        12.6510   23.2120   97.3970 C.2   145  ASP145      0.3668
     19  OD1       11.4810   23.3300   96.9810 O.co2 145  ASP145     -0.2456
     20  OD2       13.6350   23.2130   96.6260 O.co2 145  ASP145     -0.2456
     21  N         14.4850   27.4140   96.6050 N.3   147  CYS147     -0.1235
     22  CA        15.6510   27.4340   95.7360 C.3   147  CYS147      0.1677
     23  C         16.6090   28.5230   96.2060 C.2   147  CYS147      0.2270
     24  O         16.2200   29.6870   96.3210 O.2   147  CYS147     -0.2867
     25  CB        15.2070   27.7160   94.3050 C.3   147  CYS147      0.0956
     26  SG        16.5640   27.7170   93.1220 S.3   147  CYS147     -0.0801
     27  N         20.2240   22.0140   99.0170 N.3   192  GLN192     -0.1245
     28  CA        20.4150   23.3680   98.5170 C.3   192  GLN192      0.1566
     29  C         21.8450   23.8100   98.8340 C.2   192  GLN192      0.2260
     30  O         22.7040   22.9910   99.1770 O.2   192  GLN192     -0.2867
     31  CB        19.3440   24.2980   99.0890 C.3   192  GLN192      0.0367
     32  CG        17.9290   23.9410   98.6510 C.3   192  GLN192      0.0905
     33  CD        17.6280   24.2780   97.1960 C.2   192  GLN192      0.2608
     34  OE1       18.3660   25.0200   96.5400 O.2   192  GLN192     -0.2717
     35  NE2       16.5250   23.7310   96.6870 N.am  192  GLN192     -0.0878
     36  N         18.8250   20.2010   94.3690 N.3   218  GLY218     -0.1210
     37  CA        18.0570   21.3540   93.9560 C.3   218  GLY218      0.1956
     38  C         18.9530   22.5110   93.5790 C.2   218  GLY218      0.2612
     39  O         20.1740   22.4490   93.6930 O.2   218  GLY218     -0.2717
     40  N         18.3170   23.5800   93.0990 N.am  219  GLY219     -0.1942
     41  CA        19.0030   24.8270   92.8380 C.3   219  GLY219      0.2014
     42  C         19.9240   24.8750   91.6420 C.2   219  GLY219      0.2639
     43  O         20.6940   25.8330   91.5340 O.2   219  GLY219     -0.2714
     44  N         19.8860   23.8950   90.7430 N.am  220  LEU220     -0.1963
     45  CA        20.7360   23.9030   89.5590 C.3   220  LEU220      0.1728
     46  C         19.9060   24.1010   88.2970 C.2   220  LEU220      0.2616
     47  O         18.6700   24.1220   88.3160 O.2   220  LEU220     -0.2715
     48  CB        21.5880   22.6270   89.4790 C.3   220  LEU220      0.0311
     49  CG        22.6380   22.4930   90.5960 C.3   220  LEU220      0.0022
     50  CD1       23.3770   21.1750   90.4620 C.3   220  LEU220      0.0001
     51  CD2       23.6310   23.6560   90.5980 C.3   220  LEU220      0.0001
     52  N         20.6130   24.2790   87.1880 N.am  221  ALA221     -0.1963
     53  CA        19.9840   24.6750   85.9290 C.3   221  ALA221      0.1728
     54  C         19.1660   25.9510   86.1180 C.2   221  ALA221      0.2616
     55  O         18.0300   26.0690   85.6490 O.2   221  ALA221     -0.2715
     56  CB        19.1450   23.5410   85.3380 C.3   221  ALA221      0.0334
     57  N         19.7460   26.9080   86.8340 N.am  222  VAL222     -0.1977
     58  CA        19.1190   28.1960   87.0890 C.3   222  VAL222      0.1596
     59  C         19.9030   29.3290   86.4310 C.2   222  VAL222      0.2287
     60  O         19.8070   30.4810   86.8550 O.2   222  VAL222     -0.2864
     61  CB        18.9160   28.4380   88.5940 C.3   222  VAL222      0.0276
     62  CG1       17.8970   27.4650   89.1670 C.3   222  VAL222      0.0022
     63  CG2       20.2320   28.3190   89.3350 C.3   222  VAL222      0.0022
     64  N         16.8350   17.8100   89.6630 N.3   249  MET249     -0.1230
     65  CA        15.5510   18.3970   89.3210 C.3   249  MET249      0.1702
     66  C         15.6960   19.3580   88.1440 C.2   249  MET249      0.2592
     67  O         16.5850   20.2130   88.1400 O.2   249  MET249     -0.2718
     68  CB        15.0100   19.1430   90.5390 C.3   249  MET249      0.0401
     69  CG        14.8140   18.2420   91.7530 C.3   249  MET249      0.0596
     70  SD        14.2110   19.1060   93.2150 S.3   249  MET249     -0.1393
     71  CE        12.5190   19.3410   92.7710 C.3   249  MET249      0.0692
     72  N         14.8080   19.2280   87.1580 N.am  250  GLY250     -0.1957
     73  CA        14.7450   20.1800   86.0650 C.3   250  GLY250      0.1869
     74  C         15.8970   20.1030   85.0900 C.2   250  GLY250      0.2309
     75  O         16.2740   21.1230   84.5060 O.2   250  GLY250     -0.2863
@<TRIPOS>BOND
     1    75    74    2
     2    74    73    1
     3    56    53    1
     4    55    54    2
     5    53    54    1
     6    53    52    1
     7    73    72    1
     8    54    57   am
     9    59    60    2
    10    59    58    1
    11    57    58    1
    12    58    61    1
    13    72    66   am
    14    52    46   am
    15    67    66    2
    16    66    65    1
    17    46    47    2
    18    46    45    1
    19    12    11    1
    20    61    62    1
    21    61    63    1
    22    10    11   ar
    23    10     8   ar
    24    65    64    1
    25    65    68    1
    26    11     9   ar
    27    48    45    1
    28    48    49    1
    29    45    44    1
    30     8     6   ar
    31    50    49    1
    32    68    69    1
    33    49    51    1
    34     9     7   ar
    35    44    42   am
    36     6     7   ar
    37     6     5    1
    38    43    42    2
    39    42    41    1
    40    69    70    1
    41     4     3    2
    42     5     2    1
    43     3     2    1
    44    71    70    1
    45    41    40    1
    46    40    38   am
    47    26    25    1
    48     2     1    1
    49    38    39    2
    50    38    37    1
    51    37    36    1
    52    25    22    1
    53    22    23    1
    54    22    21    1
    55    23    24    2
    56    34    33    2
    57    20    18   ar
    58    35    33   am
    59    19    18   ar
    60    33    32    1
    61    18    17    1
    62    28    29    1
    63    28    27    1
    64    28    31    1
    65    32    31    1
    66    29    30    2
    67    17    14    1
    68    16    15    2
    69    15    14    1
    70    13    14    1
