@<TRIPOS>MOLECULE
tmp/5v3hA01.pdb
 210 202 0 0 0
SMALL
GASTEIGER

@<TRIPOS>ATOM
      1  N        -23.8560  -10.4840   22.9240 N.3   187  CYS187     -0.1221
      2  CA       -24.3910   -9.2720   23.5820 C.3   187  CYS187      0.1808
      3  C        -25.7170   -8.7860   22.9770 C.2   187  CYS187      0.2601
      4  O        -26.5430   -8.1800   23.6700 O.2   187  CYS187     -0.2717
      5  CB       -23.3500   -8.1310   23.5220 C.3   187  CYS187      0.0970
      6  SG       -23.8860   -6.5030   24.1300 S.3   187  CYS187     -0.0800
      7  N        -25.9190   -9.0380   21.6740 N.am  188  ASN188     -0.1960
      8  CA       -27.1000   -8.5130   20.9420 C.3   188  ASN188      0.1819
      9  C        -28.1120   -9.5250   20.3370 C.2   188  ASN188      0.2622
     10  O        -29.1820   -9.1140   19.8650 O.2   188  ASN188     -0.2715
     11  CB       -26.6070   -7.5550   19.8550 C.3   188  ASN188      0.1195
     12  CG       -25.8760   -6.3500   20.4320 C.2   188  ASN188      0.2630
     13  OD1      -26.4890   -5.3150   20.6990 O.2   188  ASN188     -0.2716
     14  ND2      -24.5630   -6.4800   20.6340 N.am  188  ASN188     -0.0877
     15  N        -27.7950  -10.8230   20.3810 N.am  189  GLY189     -0.1940
     16  CA       -28.6080  -11.8580   19.7360 C.3   189  GLY189      0.2014
     17  C        -29.8980  -12.2400   20.4500 C.2   189  GLY189      0.2639
     18  O        -29.9720  -12.1810   21.6810 O.2   189  GLY189     -0.2714
     19  N        -30.8990  -12.6540   19.6650 N.am  190  PHE190     -0.1959
     20  CA       -32.2150  -13.0530   20.1630 C.3   190  PHE190      0.1771
     21  C        -32.5220  -14.5100   19.9080 C.2   190  PHE190      0.2620
     22  O        -32.0680  -15.0660   18.9200 O.2   190  PHE190     -0.2715
     23  CB       -33.2990  -12.2200   19.4900 C.3   190  PHE190      0.0574
     24  CG       -33.4450  -10.8620   20.0850 C.ar  190  PHE190     -0.0200
     25  CD1      -32.5670   -9.8460   19.7380 C.ar  190  PHE190     -0.0042
     26  CD2      -34.4320  -10.6070   21.0260 C.ar  190  PHE190     -0.0042
     27  CE1      -32.6780   -8.5880   20.3070 C.ar  190  PHE190     -0.0003
     28  CE2      -34.5470   -9.3590   21.6060 C.ar  190  PHE190     -0.0003
     29  CZ       -33.6680   -8.3450   21.2490 C.ar  190  PHE190     -0.0000
     30  N        -33.3090  -15.1090   20.8070 N.am  191  THR191     -0.1951
     31  CA       -33.9440  -16.4280   20.5820 C.3   191  THR191      0.1897
     32  C        -35.4310  -16.2610   20.2440 C.2   191  THR191      0.2313
     33  O        -36.0510  -15.2640   20.6240 O.2   191  THR191     -0.2863
     34  CB       -33.7970  -17.3610   21.8030 C.3   191  THR191      0.1794
     35  OG1      -34.1900  -16.6720   22.9980 O.3   191  THR191     -0.2208
     36  CG2      -32.3660  -17.8280   21.9450 C.3   191  THR191      0.0378
     37  N        -39.0960  -18.3690   20.4750 N.3   193  GLU193     -0.1231
     38  CA       -39.8700  -19.4880   21.0280 C.3   193  GLU193      0.1699
     39  C        -41.3130  -19.4240   20.5410 C.2   193  GLU193      0.2592
     40  O        -41.7810  -18.3660   20.1060 O.2   193  GLU193     -0.2718
     41  CB       -39.8360  -19.5080   22.5740 C.3   193  GLU193      0.0402
     42  CG       -38.4330  -19.5170   23.2040 C.3   193  GLU193      0.1161
     43  CD       -37.7940  -18.1280   23.3720 C.2   193  GLU193      0.3649
     44  OE1      -38.4980  -17.1010   23.2640 O.co2 193  GLU193     -0.2457
     45  OE2      -36.5660  -18.0620   23.6200 O.co2 193  GLU193     -0.2457
     46  N        -42.0080  -20.5610   20.6070 N.am  194  ASP194     -0.1960
     47  CA       -43.4400  -20.6270   20.2460 C.3   194  ASP194      0.1840
     48  C        -44.3320  -20.3100   21.4470 C.2   194  ASP194      0.2621
     49  O        -43.8360  -20.0080   22.5240 O.2   194  ASP194     -0.2715
     50  CB       -43.7790  -22.0000   19.6320 C.3   194  ASP194      0.1450
     51  CG       -43.7220  -23.1450   20.6370 C.2   194  ASP194      0.3671
     52  OD1      -43.5230  -22.9080   21.8510 O.co2 194  ASP194     -0.2456
     53  OD2      -43.8730  -24.2960   20.1900 O.co2 194  ASP194     -0.2456
     54  N        -45.6430  -20.4070   21.2720 N.am  195  GLU195     -0.1977
     55  CA       -46.6080  -20.0370   22.3290 C.3   195  GLU195      0.1602
     56  C        -46.5490  -20.8890   23.6160 C.2   195  GLU195      0.2287
     57  O        -46.9940  -20.4240   24.6640 O.2   195  GLU195     -0.2864
     58  CB       -48.0480  -19.9430   21.7700 C.3   195  GLU195      0.0415
     59  CG       -48.8460  -21.2500   21.6610 C.3   195  GLU195      0.1163
     60  CD       -48.5610  -22.0700   20.4120 C.2   195  GLU195      0.3649
     61  OE1      -47.4440  -21.9690   19.8500 O.co2 195  GLU195     -0.2457
     62  OE2      -49.4670  -22.8270   19.9900 O.co2 195  GLU195     -0.2457
     63  N        -43.5070  -21.8900   24.6980 N.3   197  LEU197     -0.1245
     64  CA       -42.0940  -21.6270   25.0650 C.3   197  LEU197      0.1561
     65  C        -41.0340  -22.6650   24.5900 C.2   197  LEU197      0.2260
     66  O        -39.9220  -22.6780   25.1170 O.2   197  LEU197     -0.2867
     67  CB       -41.9420  -21.3560   26.5780 C.3   197  LEU197      0.0270
     68  CG       -42.8580  -20.3150   27.2220 C.3   197  LEU197      0.0019
     69  CD1      -42.6660  -20.3210   28.7300 C.3   197  LEU197      0.0001
     70  CD2      -42.6040  -18.9300   26.6490 C.3   197  LEU197      0.0001
     71  N        -34.0810   -3.3170   17.4700 N.3   208  VAL208     -0.1231
     72  CA       -34.6150   -3.8250   18.7450 C.3   208  VAL208      0.1692
     73  C        -33.5210   -3.8600   19.8320 C.2   208  VAL208      0.2591
     74  O        -33.7960   -3.6070   21.0110 O.2   208  VAL208     -0.2718
     75  CB       -35.2470   -5.2330   18.5740 C.3   208  VAL208      0.0266
     76  CG1      -35.8390   -5.7630   19.8790 C.3   208  VAL208      0.0020
     77  CG2      -36.3440   -5.2010   17.5190 C.3   208  VAL208      0.0020
     78  N        -32.2840   -4.1490   19.4260 N.am  209  ALA209     -0.1980
     79  CA       -31.1620   -4.2330   20.3580 C.3   209  ALA209      0.1597
     80  C        -30.6430   -2.8790   20.8490 C.2   209  ALA209      0.2287
     81  O        -29.7790   -2.8530   21.7340 O.2   209  ALA209     -0.2864
     82  CB       -30.0160   -5.0390   19.7540 C.3   209  ALA209      0.0319
     83  N        -32.5210   -0.8620   22.5850 N.3   211  MET211     -0.1245
     84  CA       -33.2000   -0.6610   23.8790 C.3   211  MET211      0.1570
     85  C        -32.4050   -1.2820   25.0200 C.2   211  MET211      0.2261
     86  O        -31.8090   -2.3600   24.8630 O.2   211  MET211     -0.2867
     87  CB       -34.6330   -1.2400   23.8900 C.3   211  MET211      0.0387
     88  CG       -35.6100   -0.6060   22.9050 C.3   211  MET211      0.0595
     89  SD       -37.2730   -1.3100   22.9320 S.3   211  MET211     -0.1393
     90  CE       -36.9800   -2.9250   22.2110 C.3   211  MET211      0.0692
     91  N        -41.4280   -7.5130   23.6690 N.3   221  VAL221     -0.1231
     92  CA       -41.0550   -7.9600   22.3080 C.3   221  VAL221      0.1692
     93  C        -41.8000   -9.2510   21.9380 C.2   221  VAL221      0.2593
     94  O        -41.6220  -10.2590   22.6030 O.2   221  VAL221     -0.2718
     95  CB       -39.5320   -8.2210   22.2180 C.3   221  VAL221      0.0266
     96  CG1      -39.1410   -8.8930   20.9030 C.3   221  VAL221      0.0020
     97  CG2      -38.7710   -6.9210   22.4160 C.3   221  VAL221      0.0020
     98  N        -42.6190   -9.2250   20.8890 N.am  222  THR222     -0.1939
     99  CA       -43.2510  -10.4520   20.3920 C.3   222  THR222      0.2028
    100  C        -42.8420  -10.6820   18.9440 C.2   222  THR222      0.2642
    101  O        -42.2050   -9.8250   18.3200 O.2   222  THR222     -0.2714
    102  CB       -44.7900  -10.4340   20.5590 C.3   222  THR222      0.1808
    103  OG1      -45.3700   -9.3730   19.7920 O.3   222  THR222     -0.2208
    104  CG2      -45.1740  -10.2570   22.0340 C.3   222  THR222      0.0379
    105  N        -43.2020  -11.8590   18.4270 N.am  223  TYR223     -0.1973
    106  CA       -42.8620  -12.2590   17.0620 C.3   223  TYR223      0.1639
    107  C        -44.0930  -12.5360   16.1940 C.2   223  TYR223      0.2290
    108  O        -45.1050  -13.0390   16.6760 O.2   223  TYR223     -0.2864
    109  CB       -41.9560  -13.4920   17.0990 C.3   223  TYR223      0.0560
    110  CG       -40.6740  -13.2770   17.8700 C.ar  223  TYR223     -0.0198
    111  CD1      -39.7870  -12.2630   17.5120 C.ar  223  TYR223     -0.0009
    112  CD2      -40.3380  -14.0920   18.9540 C.ar  223  TYR223     -0.0009
    113  CE1      -38.6120  -12.0500   18.2240 C.ar  223  TYR223      0.0417
    114  CE2      -39.1590  -13.8920   19.6640 C.ar  223  TYR223      0.0417
    115  CZ       -38.3000  -12.8610   19.3050 C.ar  223  TYR223      0.1957
    116  OH       -37.1260  -12.6550   20.0020 O.3   223  TYR223     -0.2866
    117  N        -36.9520   -2.7730   27.8660 N.3   244  THR244     -0.1203
    118  CA       -37.4020   -4.1700   27.9280 C.3   244  THR244      0.1994
    119  C        -36.7910   -4.8470   29.1550 C.2   244  THR244      0.2619
    120  O        -35.9720   -4.2380   29.8350 O.2   244  THR244     -0.2717
    121  CB       -36.8980   -4.9730   26.7120 C.3   244  THR244      0.1784
    122  OG1      -35.4650   -4.9430   26.6850 O.3   244  THR244     -0.2211
    123  CG2      -37.4510   -4.4270   25.3860 C.3   244  THR244      0.0376
    124  N        -37.1870   -6.0940   29.4390 N.am  245  SER245     -0.1937
    125  CA       -36.3500   -7.0170   30.2400 C.3   245  SER245      0.2055
    126  C        -35.6550   -8.0150   29.3250 C.2   245  SER245      0.2643
    127  O        -36.2400   -8.4820   28.3660 O.2   245  SER245     -0.2714
    128  CB       -37.1510   -7.8080   31.2720 C.3   245  SER245      0.2130
    129  OG       -36.3650   -8.8630   31.8180 O.3   245  SER245     -0.2179
    130  N        -34.4450   -8.4020   29.7090 N.am  246  TYR246     -0.1973
    131  CA       -33.5410   -9.2280   28.9260 C.3   246  TYR246      0.1639
    132  C        -33.6320  -10.6440   29.4660 C.2   246  TYR246      0.2290
    133  O        -33.0490  -11.5350   28.8660 O.2   246  TYR246     -0.2864
    134  CB       -32.0800   -8.7690   29.1140 C.3   246  TYR246      0.0560
    135  CG       -31.6130   -7.4950   28.4140 C.ar  246  TYR246     -0.0198
    136  CD1      -32.4950   -6.6440   27.7500 C.ar  246  TYR246     -0.0009
    137  CD2      -30.2690   -7.1400   28.4460 C.ar  246  TYR246     -0.0009
    138  CE1      -32.0410   -5.4880   27.1220 C.ar  246  TYR246      0.0417
    139  CE2      -29.7980   -5.9900   27.8210 C.ar  246  TYR246      0.0417
    140  CZ       -30.6830   -5.1590   27.1590 C.ar  246  TYR246      0.1957
    141  OH       -30.2280   -4.0110   26.5370 O.3   246  TYR246     -0.2866
    142  N        -24.1990  -10.0000   30.3030 N.3   264  TYR264     -0.1241
    143  CA       -24.2360   -8.6040   29.7770 C.3   264  TYR264      0.1605
    144  C        -23.3120   -7.5500   30.4530 C.2   264  TYR264      0.2264
    145  O        -23.2890   -6.3850   30.0380 O.2   264  TYR264     -0.2867
    146  CB       -25.6890   -8.0970   29.7610 C.3   264  TYR264      0.0534
    147  CG       -26.5940   -8.9160   28.8700 C.ar  264  TYR264     -0.0201
    148  CD1      -26.5090   -8.8210   27.4870 C.ar  264  TYR264     -0.0009
    149  CD2      -27.5400   -9.8000   29.4090 C.ar  264  TYR264     -0.0009
    150  CE1      -27.3440   -9.5790   26.6620 C.ar  264  TYR264      0.0417
    151  CE2      -28.3720  -10.5680   28.5920 C.ar  264  TYR264      0.0417
    152  CZ       -28.2780  -10.4490   27.2190 C.ar  264  TYR264      0.1957
    153  OH       -29.0900  -11.1940   26.3980 O.3   264  TYR264     -0.2866
    154  N        -45.9230  -12.6940   29.2430 N.3   385  LEU385     -0.1245
    155  CA       -46.0820  -13.8330   28.3180 C.3   385  LEU385      0.1561
    156  C        -45.9100  -15.2140   28.9820 C.2   385  LEU385      0.2260
    157  O        -46.4650  -16.2220   28.5040 O.2   385  LEU385     -0.2867
    158  CB       -45.1110  -13.7320   27.1390 C.3   385  LEU385      0.0270
    159  CG       -45.1530  -12.4740   26.2730 C.3   385  LEU385      0.0019
    160  CD1      -43.9840  -12.4500   25.3190 C.3   385  LEU385      0.0001
    161  CD2      -46.4430  -12.3820   25.5030 C.3   385  LEU385      0.0001
    162  N        -49.2370  -15.8360   30.4130 N.3   388  ALA388     -0.1231
    163  CA       -50.1470  -16.1240   29.3080 C.3   388  ALA388      0.1694
    164  C        -50.0020  -17.5550   28.7830 C.2   388  ALA388      0.2592
    165  O        -51.0180  -18.2050   28.5710 O.2   388  ALA388     -0.2718
    166  CB       -49.9690  -15.1240   28.1770 C.3   388  ALA388      0.0304
    167  N        -48.7720  -18.0520   28.5880 N.am  389  SER389     -0.1952
    168  CA       -48.5840  -19.4350   28.0860 C.3   389  SER389      0.1924
    169  C        -49.0100  -20.5260   29.0890 C.2   389  SER389      0.2314
    170  O        -49.4160  -21.6140   28.6710 O.2   389  SER389     -0.2863
    171  CB       -47.1520  -19.7000   27.5980 C.3   389  SER389      0.2116
    172  OG       -46.2910  -20.1150   28.6310 O.3   389  SER389     -0.2180
    173  N        -52.6400  -20.8770   28.7540 N.3   392  LEU392     -0.1245
    174  CA       -52.7770  -21.5770   27.4690 C.3   392  LEU392      0.1561
    175  C        -52.6410  -23.0940   27.6140 C.2   392  LEU392      0.2260
    176  O        -53.4340  -23.8640   27.0560 O.2   392  LEU392     -0.2867
    177  CB       -51.7170  -21.0490   26.4920 C.3   392  LEU392      0.0270
    178  CG       -52.0840  -20.8880   25.0290 C.3   392  LEU392      0.0019
    179  CD1      -53.3270  -20.0260   24.8690 C.3   392  LEU392      0.0001
    180  CD2      -50.9040  -20.2750   24.2870 C.3   392  LEU392      0.0001
    181  N        -52.7790  -11.5140   25.6370 N.3   418  MET418     -0.1245
    182  CA       -52.1890  -11.4780   24.3040 C.3   418  MET418      0.1570
    183  C        -52.6400  -10.2580   23.4960 C.2   418  MET418      0.2261
    184  O        -51.8500   -9.7080   22.7190 O.2   418  MET418     -0.2867
    185  CB       -52.4790  -12.7860   23.5530 C.3   418  MET418      0.0387
    186  CG       -51.7680  -13.9960   24.1580 C.3   418  MET418      0.0595
    187  SD       -52.4330  -15.5860   23.6350 S.3   418  MET418     -0.1393
    188  CE       -51.6510  -15.7670   22.0470 C.3   418  MET418      0.0692
    189  N        -49.3540   -8.9210   21.8090 N.3   422  HIS422     -0.1241
    190  CA       -49.2700   -9.2940   20.3910 C.3   422  HIS422      0.1621
    191  C        -50.2010   -8.4760   19.4740 C.2   422  HIS422      0.2264
    192  O        -50.1940   -8.6790   18.2450 O.2   422  HIS422     -0.2867
    193  CB       -49.6480  -10.7710   20.2030 C.3   422  HIS422      0.0745
    194  CG       -48.7590  -11.7400   20.9150 C.ar  422  HIS422      0.0817
    195  ND1      -47.6910  -12.3580   20.2980 N.ar  422  HIS422     -0.2268
    196  CD2      -48.8120  -12.2380   22.1710 C.ar  422  HIS422      0.1154
    197  CE1      -47.1060  -13.1730   21.1560 C.ar  422  HIS422      0.1986
    198  NE2      -47.7670  -13.1190   22.2990 N.ar  422  HIS422     -0.2212
    199  N        -52.1400  -16.0390   16.3300 N.3   428  TYR428     -0.1241
    200  CA       -52.3610  -16.8190   17.5530 C.3   428  TYR428      0.1605
    201  C        -53.7660  -16.6290   18.1470 C.2   428  TYR428      0.2264
    202  O        -54.3580  -17.5890   18.6300 O.2   428  TYR428     -0.2867
    203  CB       -51.3120  -16.4780   18.6270 C.3   428  TYR428      0.0534
    204  CG       -49.9070  -16.9830   18.3680 C.ar  428  TYR428     -0.0201
    205  CD1      -49.6750  -18.2800   17.9150 C.ar  428  TYR428     -0.0009
    206  CD2      -48.7960  -16.1770   18.6180 C.ar  428  TYR428     -0.0009
    207  CE1      -48.3870  -18.7440   17.6920 C.ar  428  TYR428      0.0417
    208  CE2      -47.5040  -16.6400   18.4010 C.ar  428  TYR428      0.0417
    209  CZ       -47.3090  -17.9240   17.9400 C.ar  428  TYR428      0.1957
    210  OH       -46.0420  -18.4050   17.7180 O.3   428  TYR428     -0.2866
@<TRIPOS>BOND
     1   107   108    2
     2   107   106    1
     3   199   200    1
     4   106   109    1
     5   106   105    1
     6   109   110    1
     7    71    72    1
     8   111   110   ar
     9   111   113   ar
    10    77    75    1
    11   200   201    1
    12   200   203    1
    13   207   205   ar
    14   207   209   ar
    15   210   209    1
    16   110   112   ar
    17   205   204   ar
    18   209   208   ar
    19   201   202    2
    20   113   115   ar
    21   192   191    2
    22   101   100    2
    23   204   206   ar
    24   204   203    1
    25   208   206   ar
    26   105   100   am
    27    75    72    1
    28    75    76    1
    29    72    73    1
    30    22    21    2
    31   100    99    1
    32   112   114   ar
    33   115   114   ar
    34   115   116    1
    35    78    73   am
    36    78    79    1
    37   191   190    1
    38    23    24    1
    39    23    20    1
    40    50    47    1
    41    50    51    1
    42    19    20    1
    43    19    17   am
    44    16    15    1
    45    16    17    1
    46    25    24   ar
    47    25    27   ar
    48    82    79    1
    49   103   102    1
    50    73    74    2
    51    61    60   ar
    52    11    12    1
    53    11     8    1
    54    10     9    2
    55    21    20    1
    56    21    30   am
    57    62    60   ar
    58    24    26   ar
    59    40    39    2
    60    53    51   ar
    61   193   190    1
    62   193   194    1
    63    32    31    1
    64    32    33    2
    65    47    46    1
    66    47    48    1
    67   195   194   ar
    68   195   197   ar
    69    27    29   ar
    70     9    15   am
    71     9     8    1
    72    79    80    1
    73   190   189    1
    74    99   102    1
    75    99    98    1
    76    60    59    1
    77    12    14   am
    78    12    13    2
    79    17    18    2
    80    37    38    1
    81    39    46   am
    82    39    38    1
    83   102   104    1
    84    31    30    1
    85    31    34    1
    86    51    52   ar
    87    80    81    2
    88    98    93   am
    89    96    95    1
    90   194   196   ar
    91     8     7    1
    92    26    28   ar
    93    38    41    1
    94   197   198   ar
    95    29    28   ar
    96    54    48   am
    97    54    55    1
    98    48    49    2
    99    59    58    1
   100     7     3   am
   101    58    55    1
   102    34    36    1
   103    34    35    1
   104    93    92    1
   105    93    94    2
   106   188   187    1
   107   196   198   ar
   108    90    89    1
   109    95    92    1
   110    95    97    1
   111    92    91    1
   112    55    56    1
   113    41    42    1
   114    83    84    1
   115   184   183    2
   116    88    89    1
   117    88    87    1
   118     1     2    1
   119     3     2    1
   120     3     4    2
   121    42    43    1
   122    44    43   ar
   123    43    45   ar
   124   183   182    1
   125     5     2    1
   126     5     6    1
   127   185   186    1
   128   185   182    1
   129    56    57    2
   130   187   186    1
   131    84    87    1
   132    84    85    1
   133   180   178    1
   134   182   181    1
   135    65    64    1
   136    65    66    2
   137    63    64    1
   138    86    85    2
   139   179   178    1
   140   178   177    1
   141    64    67    1
   142   160   159    1
   143   123   121    1
   144   161   159    1
   145   159   158    1
   146   153   152    1
   147   177   174    1
   148   141   140    1
   149    67    68    1
   150    70    68    1
   151   150   152   ar
   152   150   148   ar
   153   122   121    1
   154   121   118    1
   155   176   175    2
   156   138   140   ar
   157   138   136   ar
   158   158   155    1
   159   140   139   ar
   160   152   151   ar
   161    68    69    1
   162   174   175    1
   163   174   173    1
   164   148   147   ar
   165   171   168    1
   166   171   172    1
   167   136   135   ar
   168   139   137   ar
   169   117   118    1
   170   118   119    1
   171   168   167    1
   172   168   169    1
   173   166   163    1
   174   155   156    1
   175   155   154    1
   176   127   126    2
   177   135   137   ar
   178   135   134    1
   179   157   156    2
   180   165   164    2
   181   167   164   am
   182   151   149   ar
   183   170   169    2
   184   164   163    1
   185   133   132    2
   186   147   149   ar
   187   147   146    1
   188   131   134    1
   189   131   132    1
   190   131   130    1
   191   119   124   am
   192   119   120    2
   193   163   162    1
   194   126   130   am
   195   126   125    1
   196   124   125    1
   197   146   143    1
   198   143   142    1
   199   143   144    1
   200   145   144    2
   201   125   128    1
   202   128   129    1
