@<TRIPOS>MOLECULE
tmp/5v3hA00.pdb
 176 174 0 0 0
SMALL
GASTEIGER

@<TRIPOS>ATOM
      1  N        -24.7790    6.5060   31.7490 N.3    22  GLY22      -0.1210
      2  CA       -24.4150    5.2730   32.4280 C.3    22  GLY22       0.1956
      3  C        -24.8320    3.9890   31.7270 C.2    22  GLY22       0.2612
      4  O        -24.6290    2.9180   32.2870 O.2    22  GLY22      -0.2717
      5  N        -25.4050    4.0730   30.5200 N.am   23  LYS23      -0.1965
      6  CA       -25.8900    2.8860   29.7970 C.3    23  LYS23       0.1728
      7  C        -25.5660    2.9210   28.2900 C.2    23  LYS23       0.2617
      8  O        -26.3270    2.3980   27.4700 O.2    23  LYS23      -0.2715
      9  CB       -27.4080    2.7370   29.9800 C.3    23  LYS23       0.0311
     10  CG       -27.9240    2.8900   31.4000 C.3    23  LYS23       0.0038
     11  CD       -29.4070    2.5660   31.4510 C.3    23  LYS23       0.0206
     12  CE       -29.9390    2.5450   32.8680 C.3    23  LYS23       0.1093
     13  NZ       -29.8610    3.8920   33.4910 N.3    23  LYS23      -0.1314
     14  N        -24.4330    3.5160   27.9300 N.am   24  GLY24      -0.1940
     15  CA       -24.0880    3.7290   26.5310 C.3    24  GLY24       0.2014
     16  C        -25.2020    4.4520   25.7940 C.2    24  GLY24       0.2638
     17  O        -25.7070    5.4610   26.2830 O.2    24  GLY24      -0.2714
     18  N        -25.5970    3.9110   24.6390 N.am   25  ARG25      -0.1977
     19  CA       -26.6590    4.4790   23.8010 C.3    25  ARG25       0.1597
     20  C        -27.9870    3.7930   24.1040 C.2    25  ARG25       0.2287
     21  O        -28.0090    2.6710   24.6260 O.2    25  ARG25      -0.2864
     22  CB       -26.3210    4.3130   22.3160 C.3    25  ARG25       0.0334
     23  CG       -24.9670    4.8970   21.8940 C.3    25  ARG25       0.0492
     24  CD       -24.3800    4.1700   20.6880 C.3    25  ARG25       0.2205
     25  NE       -24.1110    2.7510   20.9680 N.pl3  25  ARG25      -0.0865
     26  CZ       -23.5690    1.8810   20.1100 C.cat  25  ARG25       0.5346
     27  NH1      -23.2070    2.2590   18.8840 N.pl3  25  ARG25       0.1354
     28  NH2      -23.3770    0.6140   20.4830 N.pl3  25  ARG25       0.1354
     29  N        -29.7780    1.7140   14.4730 N.3   135  LEU135     -0.1245
     30  CA       -28.5230    1.0860   14.9030 C.3   135  LEU135      0.1561
     31  C        -28.1140    0.0490   13.8760 C.2   135  LEU135      0.2260
     32  O        -28.9660   -0.6200   13.2990 O.2   135  LEU135     -0.2867
     33  CB       -28.6900    0.4170   16.2680 C.3   135  LEU135      0.0270
     34  CG       -27.4550   -0.2490   16.8930 C.3   135  LEU135      0.0019
     35  CD1      -26.4220    0.8040   17.2710 C.3   135  LEU135      0.0001
     36  CD2      -27.8420   -1.0910   18.1050 C.3   135  LEU135      0.0001
     37  N        -22.1020   -3.4250   20.2550 N.3   141  GLU141     -0.1245
     38  CA       -21.1400   -3.5100   21.3520 C.3   141  GLU141      0.1567
     39  C        -20.7050   -4.9510   21.6280 C.2   141  GLU141      0.2260
     40  O        -21.5180   -5.8810   21.5250 O.2   141  GLU141     -0.2867
     41  CB       -21.7480   -2.9200   22.6080 C.3   141  GLU141      0.0388
     42  CG       -20.7540   -2.7880   23.7430 C.3   141  GLU141      0.1160
     43  CD       -21.2010   -1.7760   24.7640 C.2   141  GLU141      0.3649
     44  OE1      -22.3640   -1.8850   25.2340 O.co2 141  GLU141     -0.2457
     45  OE2      -20.3930   -0.8780   25.0830 O.co2 141  GLU141     -0.2457
     46  N        -18.1450   -5.9510   24.4420 N.3   143  HIS143     -0.1241
     47  CA       -17.5200   -6.2290   25.7450 C.3   143  HIS143      0.1621
     48  C        -16.2350   -7.1250   25.6520 C.2   143  HIS143      0.2264
     49  O        -15.9540   -7.9600   26.5260 O.2   143  HIS143     -0.2867
     50  CB       -18.5750   -6.7370   26.7520 C.3   143  HIS143      0.0745
     51  CG       -19.6180   -5.7110   27.0970 C.ar  143  HIS143      0.0817
     52  ND1      -19.3000   -4.4580   27.5780 N.ar  143  HIS143     -0.2268
     53  CD2      -20.9710   -5.7510   27.0310 C.ar  143  HIS143      0.1154
     54  CE1      -20.4080   -3.7700   27.7870 C.ar  143  HIS143      0.1986
     55  NE2      -21.4360   -4.5340   27.4680 N.ar  143  HIS143     -0.2212
     56  N        -23.8560  -10.4840   22.9240 N.3   187  CYS187     -0.1221
     57  CA       -24.3910   -9.2720   23.5820 C.3   187  CYS187      0.1808
     58  C        -25.7170   -8.7860   22.9770 C.2   187  CYS187      0.2601
     59  O        -26.5430   -8.1800   23.6700 O.2   187  CYS187     -0.2717
     60  CB       -23.3500   -8.1310   23.5220 C.3   187  CYS187      0.0970
     61  SG       -23.8860   -6.5030   24.1300 S.3   187  CYS187     -0.0800
     62  N        -25.9190   -9.0380   21.6740 N.am  188  ASN188     -0.1974
     63  CA       -27.1000   -8.5130   20.9420 C.3   188  ASN188      0.1688
     64  C        -28.1120   -9.5250   20.3370 C.2   188  ASN188      0.2292
     65  O        -29.1820   -9.1140   19.8650 O.2   188  ASN188     -0.2864
     66  CB       -26.6070   -7.5550   19.8550 C.3   188  ASN188      0.1181
     67  CG       -25.8760   -6.3500   20.4320 C.2   188  ASN188      0.2629
     68  OD1      -26.4890   -5.3150   20.6990 O.2   188  ASN188     -0.2716
     69  ND2      -24.5630   -6.4800   20.6340 N.am  188  ASN188     -0.0877
     70  N        -32.2840   -4.1490   19.4260 N.3   209  ALA209     -0.1231
     71  CA       -31.1620   -4.2330   20.3580 C.3   209  ALA209      0.1694
     72  C        -30.6430   -2.8790   20.8490 C.2   209  ALA209      0.2592
     73  O        -29.7790   -2.8530   21.7340 O.2   209  ALA209     -0.2718
     74  CB       -30.0160   -5.0390   19.7540 C.3   209  ALA209      0.0304
     75  N        -31.1280   -1.7610   20.3000 N.am  210  LEU210     -0.1966
     76  CA       -30.7940   -0.4490   20.8730 C.3   210  LEU210      0.1728
     77  C        -31.3450   -0.2870   22.3020 C.2   210  LEU210      0.2616
     78  O        -30.6940    0.3530   23.1280 O.2   210  LEU210     -0.2715
     79  CB       -31.2800    0.7060   19.9860 C.3   210  LEU210      0.0311
     80  CG       -31.0000    2.1390   20.4990 C.3   210  LEU210      0.0022
     81  CD1      -29.5070    2.4000   20.7090 C.3   210  LEU210      0.0001
     82  CD2      -31.5930    3.1910   19.5700 C.3   210  LEU210      0.0001
     83  N        -32.5210   -0.8620   22.5850 N.am  211  MET211     -0.1963
     84  CA       -33.2000   -0.6610   23.8790 C.3   211  MET211      0.1736
     85  C        -32.4050   -1.2820   25.0200 C.2   211  MET211      0.2616
     86  O        -31.8090   -2.3600   24.8630 O.2   211  MET211     -0.2715
     87  CB       -34.6330   -1.2400   23.8900 C.3   211  MET211      0.0427
     88  CG       -35.6100   -0.6060   22.9050 C.3   211  MET211      0.0599
     89  SD       -37.2730   -1.3100   22.9320 S.3   211  MET211     -0.1393
     90  CE       -36.9800   -2.9250   22.2110 C.3   211  MET211      0.0692
     91  N        -32.3980   -0.5810   26.1510 N.am  212  ASN212     -0.1958
     92  CA       -31.7040   -1.0250   27.3580 C.3   212  ASN212      0.1819
     93  C        -32.6430   -1.8490   28.2470 C.2   212  ASN212      0.2621
     94  O        -33.8160   -2.0090   27.9110 O.2   212  ASN212     -0.2715
     95  CB       -31.1410    0.1930   28.1080 C.3   212  ASN212      0.1195
     96  CG       -29.9920    0.8650   27.3690 C.2   212  ASN212      0.2630
     97  OD1      -29.9440    2.1000   27.2590 O.2   212  ASN212     -0.2716
     98  ND2      -29.0460    0.0630   26.8810 N.am  212  ASN212     -0.0877
     99  N        -32.1110   -2.3570   29.3630 N.am  213  HIS213     -0.1973
    100  CA       -32.8270   -3.2510   30.2940 C.3   213  HIS213      0.1656
    101  C        -33.4160   -2.6270   31.5770 C.2   213  HIS213      0.2291
    102  O        -32.7770   -1.8130   32.2320 O.2   213  HIS213     -0.2864
    103  CB       -31.8800   -4.3630   30.7590 C.3   213  HIS213      0.0771
    104  CG       -32.4340   -5.2030   31.8750 C.ar  213  HIS213      0.0820
    105  ND1      -33.2000   -6.3140   31.6410 N.ar  213  HIS213     -0.2267
    106  CD2      -32.3560   -5.0820   33.2240 C.ar  213  HIS213      0.1154
    107  CE1      -33.5620   -6.8570   32.7900 C.ar  213  HIS213      0.1986
    108  NE2      -33.0670   -6.1240   33.7680 N.ar  213  HIS213     -0.2212
    109  N        -34.4450   -8.4020   29.7090 N.3   246  TYR246     -0.1241
    110  CA       -33.5410   -9.2280   28.9260 C.3   246  TYR246      0.1605
    111  C        -33.6320  -10.6440   29.4660 C.2   246  TYR246      0.2264
    112  O        -33.0490  -11.5350   28.8660 O.2   246  TYR246     -0.2867
    113  CB       -32.0800   -8.7690   29.1140 C.3   246  TYR246      0.0534
    114  CG       -31.6130   -7.4950   28.4140 C.ar  246  TYR246     -0.0201
    115  CD1      -32.4950   -6.6440   27.7500 C.ar  246  TYR246     -0.0009
    116  CD2      -30.2690   -7.1400   28.4460 C.ar  246  TYR246     -0.0009
    117  CE1      -32.0410   -5.4880   27.1220 C.ar  246  TYR246      0.0417
    118  CE2      -29.7980   -5.9900   27.8210 C.ar  246  TYR246      0.0417
    119  CZ       -30.6830   -5.1590   27.1590 C.ar  246  TYR246      0.1957
    120  OH       -30.2280   -4.0110   26.5370 O.3   246  TYR246     -0.2866
    121  N        -24.1990  -10.0000   30.3030 N.3   264  TYR264     -0.1227
    122  CA       -24.2360   -8.6040   29.7770 C.3   264  TYR264      0.1736
    123  C        -23.3120   -7.5500   30.4530 C.2   264  TYR264      0.2595
    124  O        -23.2890   -6.3850   30.0380 O.2   264  TYR264     -0.2718
    125  CB       -25.6890   -8.0970   29.7610 C.3   264  TYR264      0.0548
    126  CG       -26.5940   -8.9160   28.8700 C.ar  264  TYR264     -0.0200
    127  CD1      -26.5090   -8.8210   27.4870 C.ar  264  TYR264     -0.0009
    128  CD2      -27.5400   -9.8000   29.4090 C.ar  264  TYR264     -0.0009
    129  CE1      -27.3440   -9.5790   26.6620 C.ar  264  TYR264      0.0417
    130  CE2      -28.3720  -10.5680   28.5920 C.ar  264  TYR264      0.0417
    131  CZ       -28.2780  -10.4490   27.2190 C.ar  264  TYR264      0.1957
    132  OH       -29.0900  -11.1940   26.3980 O.3   264  TYR264     -0.2866
    133  N        -22.5620   -7.9560   31.4750 N.am  265  PHE265     -0.1962
    134  CA       -21.5500   -7.1020   32.1200 C.3   265  PHE265      0.1771
    135  C        -22.0850   -5.7720   32.6880 C.2   265  PHE265      0.2620
    136  O        -21.5060   -4.7150   32.4710 O.2   265  PHE265     -0.2715
    137  CB       -20.3880   -6.8760   31.1350 C.3   265  PHE265      0.0574
    138  CG       -19.7930   -8.1560   30.6000 C.ar  265  PHE265     -0.0200
    139  CD1      -18.7660   -8.8020   31.2820 C.ar  265  PHE265     -0.0042
    140  CD2      -20.2600   -8.7230   29.4290 C.ar  265  PHE265     -0.0042
    141  CE1      -18.2230   -9.9830   30.7990 C.ar  265  PHE265     -0.0003
    142  CE2      -19.7170   -9.9060   28.9410 C.ar  265  PHE265     -0.0003
    143  CZ       -18.7020  -10.5370   29.6260 C.ar  265  PHE265     -0.0000
    144  N        -23.2070   -5.8260   33.3980 N.am  266  PHE266     -0.1960
    145  CA       -23.7270   -4.6380   34.0880 C.3   266  PHE266      0.1771
    146  C        -24.5960   -4.9870   35.3050 C.2   266  PHE266      0.2620
    147  O        -25.0670   -6.1220   35.4460 O.2   266  PHE266     -0.2715
    148  CB       -24.4620   -3.6850   33.1170 C.3   266  PHE266      0.0574
    149  CG       -25.9130   -4.0290   32.8830 C.ar  266  PHE266     -0.0200
    150  CD1      -26.2830   -4.8950   31.8570 C.ar  266  PHE266     -0.0042
    151  CD2      -26.9100   -3.4680   33.6750 C.ar  266  PHE266     -0.0042
    152  CE1      -27.6140   -5.2040   31.6340 C.ar  266  PHE266     -0.0003
    153  CE2      -28.2400   -3.7830   33.4650 C.ar  266  PHE266     -0.0003
    154  CZ       -28.5940   -4.6470   32.4350 C.ar  266  PHE266     -0.0000
    155  N        -24.7800   -3.9890   36.1730 N.am  267  THR267     -0.1937
    156  CA       -25.6010   -4.0880   37.3690 C.3   267  THR267      0.2028
    157  C        -26.8170   -3.1730   37.2040 C.2   267  THR267      0.2642
    158  O        -26.6600   -1.9590   37.0100 O.2   267  THR267     -0.2714
    159  CB       -24.8000   -3.6540   38.6170 C.3   267  THR267      0.1808
    160  OG1      -23.5450   -4.3480   38.6560 O.3   267  THR267     -0.2208
    161  CG2      -25.5820   -3.9330   39.9120 C.3   267  THR267      0.0379
    162  N        -28.0150   -3.7590   37.2910 N.am  268  CYS268     -0.1953
    163  CA       -29.2750   -3.0140   37.1800 C.3   268  CYS268      0.1843
    164  C        -29.5890   -2.1960   38.4510 C.2   268  CYS268      0.2625
    165  O        -29.4700   -2.7170   39.5580 O.2   268  CYS268     -0.2714
    166  CB       -30.4270   -3.9790   36.8820 C.3   268  CYS268      0.0997
    167  SG       -32.0180   -3.1670   36.6490 S.3   268  CYS268     -0.0797
    168  N        -30.0090   -0.9350   38.2810 N.am  269  GLU269     -0.1977
    169  CA       -30.3290   -0.0220   39.4020 C.3   269  GLU269      0.1602
    170  C        -31.8030    0.4610   39.4110 C.2   269  GLU269      0.2287
    171  O        -32.1160    1.5050   39.9970 O.2   269  GLU269     -0.2864
    172  CB       -29.3610    1.1700   39.3830 C.3   269  GLU269      0.0415
    173  CG       -27.9070    0.7790   39.6250 C.3   269  GLU269      0.1163
    174  CD       -26.9310    1.9530   39.5350 C.2   269  GLU269      0.3649
    175  OE1      -26.0970    2.1170   40.4540 O.co2 269  GLU269     -0.2457
    176  OE2      -26.9850    2.7200   38.5500 O.co2 269  GLU269     -0.2457
@<TRIPOS>BOND
     1    32    31    2
     2    31    30    1
     3    29    30    1
     4    30    33    1
     5    33    34    1
     6    34    35    1
     7    34    36    1
     8    27    26    1
     9    70    71    1
    10    82    80    1
    11    74    71    1
    12    66    67    1
    13    66    63    1
    14    65    64    2
    15    79    80    1
    16    79    76    1
    17    26    28    1
    18    26    25    2
    19    37    38    1
    20    75    72   am
    21    75    76    1
    22    64    63    1
    23    71    72    1
    24    67    69   am
    25    67    68    2
    26    80    81    1
    27    24    25    1
    28    24    23    1
    29    72    73    2
    30    76    77    1
    31    63    62    1
    32    38    39    1
    33    38    41    1
    34    40    39    2
    35    62    58   am
    36    23    22    1
    37    90    89    1
    38    77    83   am
    39    77    78    2
    40    22    19    1
    41    83    84    1
    42    41    42    1
    43    88    89    1
    44    88    87    1
    45    56    57    1
    46    58    57    1
    47    58    59    2
    48    60    57    1
    49    60    61    1
    50    42    43    1
    51    19    20    1
    52    19    18    1
    53    84    87    1
    54    84    85    1
    55    20    21    2
    56    46    47    1
    57    18    16   am
    58    43    45   ar
    59    43    44   ar
    60    86    85    2
    61    85    91   am
    62    48    47    1
    63    48    49    2
    64    47    50    1
    65    16    17    2
    66    16    15    1
    67    91    92    1
    68   132   131    1
    69    15    14    1
    70   120   119    1
    71   129   131   ar
    72   129   127   ar
    73    50    51    1
    74    98    96   am
    75    53    51   ar
    76    53    55   ar
    77    51    52   ar
    78   117   119   ar
    79   117   115   ar
    80   119   118   ar
    81   131   130   ar
    82    97    96    2
    83    92    95    1
    84    92    93    1
    85    96    95    1
    86    55    54   ar
    87     8     7    2
    88   127   126   ar
    89    52    54   ar
    90   115   114   ar
    91   118   116   ar
    92    94    93    2
    93    14     7   am
    94    93    99   am
    95     7     6    1
    96   114   116   ar
    97   114   113    1
    98   130   128   ar
    99   112   111    2
   100   126   128   ar
   101   126   125    1
   102   110   113    1
   103   110   111    1
   104   110   109    1
   105   142   140   ar
   106   142   143   ar
   107    99   100    1
   108   140   138   ar
   109   143   141   ar
   110   125   122    1
   111   122   121    1
   112   122   123    1
   113     6     9    1
   114     6     5    1
   115     9    10    1
   116   124   123    2
   117   100   103    1
   118   100   101    1
   119   123   133   am
   120     5     3   am
   121   138   137    1
   122   138   139   ar
   123   103   104    1
   124   141   139   ar
   125   137   134    1
   126    10    11    1
   127    11    12    1
   128   133   134    1
   129   101   102    2
   130   152   150   ar
   131   152   154   ar
   132   105   104   ar
   133   105   107   ar
   134     3     4    2
   135     3     2    1
   136     1     2    1
   137   150   149   ar
   138   104   106   ar
   139   134   135    1
   140   154   153   ar
   141   136   135    2
   142   135   144   am
   143   107   108   ar
   144    12    13    1
   145   149   148    1
   146   149   151   ar
   147   148   145    1
   148   106   108   ar
   149   144   145    1
   150   153   151   ar
   151   145   146    1
   152   146   147    2
   153   146   155   am
   154   155   156    1
   155   167   166    1
   156   166   163    1
   157   158   157    2
   158   163   162    1
   159   163   164    1
   160   157   162   am
   161   157   156    1
   162   156   159    1
   163   168   164   am
   164   168   169    1
   165   164   165    2
   166   176   174   ar
   167   159   160    1
   168   159   161    1
   169   172   169    1
   170   172   173    1
   171   169   170    1
   172   170   171    2
   173   174   173    1
   174   174   175   ar
