@<TRIPOS>MOLECULE
tmp/5v3hA02.pdb
 166 158 0 0 0
SMALL
GASTEIGER

@<TRIPOS>ATOM
      1  N        -25.6220  -23.6470   16.6710 N.3   110  GLU110     -0.1231
      2  CA       -26.5740  -22.6410   16.1900 C.3   110  GLU110      0.1699
      3  C        -25.9690  -21.2330   16.1310 C.2   110  GLU110      0.2592
      4  O        -26.3470  -20.4280   15.2940 O.2   110  GLU110     -0.2718
      5  CB       -27.8360  -22.6480   17.0590 C.3   110  GLU110      0.0402
      6  CG       -29.0380  -21.9880   16.3970 C.3   110  GLU110      0.1161
      7  CD       -30.3650  -22.4590   16.9590 C.2   110  GLU110      0.3649
      8  OE1      -30.6060  -23.6740   16.9470 O.co2 110  GLU110     -0.2457
      9  OE2      -31.1760  -21.6170   17.4090 O.co2 110  GLU110     -0.2457
     10  N        -25.0270  -20.9570   17.0270 N.am  111  THR111     -0.1953
     11  CA       -24.2660  -19.7070   17.0330 C.3   111  THR111      0.1897
     12  C        -23.4270  -19.5410   15.7680 C.2   111  THR111      0.2313
     13  O        -23.4160  -18.4710   15.1510 O.2   111  THR111     -0.2863
     14  CB       -23.3240  -19.6670   18.2480 C.3   111  THR111      0.1794
     15  OG1      -23.9790  -20.2560   19.3750 O.3   111  THR111     -0.2208
     16  CG2      -22.9340  -18.2510   18.5890 C.3   111  THR111      0.0378
     17  N        -25.8970  -19.0180   12.6340 N.3   114  LEU114     -0.1245
     18  CA       -26.4010  -17.6350   12.5290 C.3   114  LEU114      0.1561
     19  C        -25.3170  -16.6330   12.1180 C.2   114  LEU114      0.2260
     20  O        -25.6100  -15.7010   11.3750 O.2   114  LEU114     -0.2867
     21  CB       -27.0510  -17.1780   13.8450 C.3   114  LEU114      0.0270
     22  CG       -27.6080  -15.7460   13.9050 C.3   114  LEU114      0.0019
     23  CD1      -28.6810  -15.5160   12.8540 C.3   114  LEU114      0.0001
     24  CD2      -28.1470  -15.4290   15.2910 C.3   114  LEU114      0.0001
     25  N        -22.5400  -10.8450   18.7530 N.3   185  VAL185     -0.1231
     26  CA       -23.7120  -11.7230   18.6770 C.3   185  VAL185      0.1692
     27  C        -24.2160  -12.0790   20.0740 C.2   185  VAL185      0.2592
     28  O        -25.4120  -11.9930   20.3360 O.2   185  VAL185     -0.2718
     29  CB       -23.4130  -13.0180   17.8780 C.3   185  VAL185      0.0266
     30  CG1      -24.5230  -14.0590   18.0390 C.3   185  VAL185      0.0020
     31  CG2      -23.2140  -12.7020   16.4030 C.3   185  VAL185      0.0020
     32  N        -23.3020  -12.4770   20.9530 N.am  186  ASN186     -0.1974
     33  CA       -23.6550  -12.8360   22.3290 C.3   186  ASN186      0.1688
     34  C        -24.3530  -11.7110   23.0960 C.2   186  ASN186      0.2292
     35  O        -25.3330  -11.9670   23.8140 O.2   186  ASN186     -0.2864
     36  CB       -22.4220  -13.3240   23.1100 C.3   186  ASN186      0.1181
     37  CG       -22.0660  -14.7820   22.8230 C.2   186  ASN186      0.2629
     38  OD1      -22.8950  -15.5770   22.3640 O.2   186  ASN186     -0.2716
     39  ND2      -20.8210  -15.1450   23.1140 N.am  186  ASN186     -0.0877
     40  N        -27.7950  -10.8230   20.3810 N.3   189  GLY189     -0.1210
     41  CA       -28.6080  -11.8580   19.7360 C.3   189  GLY189      0.1956
     42  C        -29.8980  -12.2400   20.4500 C.2   189  GLY189      0.2612
     43  O        -29.9720  -12.1810   21.6810 O.2   189  GLY189     -0.2717
     44  N        -30.8990  -12.6540   19.6650 N.am  190  PHE190     -0.1962
     45  CA       -32.2150  -13.0530   20.1630 C.3   190  PHE190      0.1771
     46  C        -32.5220  -14.5100   19.9080 C.2   190  PHE190      0.2620
     47  O        -32.0680  -15.0660   18.9200 O.2   190  PHE190     -0.2715
     48  CB       -33.2990  -12.2200   19.4900 C.3   190  PHE190      0.0574
     49  CG       -33.4450  -10.8620   20.0850 C.ar  190  PHE190     -0.0200
     50  CD1      -32.5670   -9.8460   19.7380 C.ar  190  PHE190     -0.0042
     51  CD2      -34.4320  -10.6070   21.0260 C.ar  190  PHE190     -0.0042
     52  CE1      -32.6780   -8.5880   20.3070 C.ar  190  PHE190     -0.0003
     53  CE2      -34.5470   -9.3590   21.6060 C.ar  190  PHE190     -0.0003
     54  CZ       -33.6680   -8.3450   21.2490 C.ar  190  PHE190     -0.0000
     55  N        -33.3090  -15.1090   20.8070 N.am  191  THR191     -0.1951
     56  CA       -33.9440  -16.4280   20.5820 C.3   191  THR191      0.1897
     57  C        -35.4310  -16.2610   20.2440 C.2   191  THR191      0.2313
     58  O        -36.0510  -15.2640   20.6240 O.2   191  THR191     -0.2863
     59  CB       -33.7970  -17.3610   21.8030 C.3   191  THR191      0.1794
     60  OG1      -34.1900  -16.6720   22.9980 O.3   191  THR191     -0.2208
     61  CG2      -32.3660  -17.8280   21.9450 C.3   191  THR191      0.0378
     62  N        -39.0960  -18.3690   20.4750 N.3   193  GLU193     -0.1245
     63  CA       -39.8700  -19.4880   21.0280 C.3   193  GLU193      0.1567
     64  C        -41.3130  -19.4240   20.5410 C.2   193  GLU193      0.2260
     65  O        -41.7810  -18.3660   20.1060 O.2   193  GLU193     -0.2867
     66  CB       -39.8360  -19.5080   22.5740 C.3   193  GLU193      0.0388
     67  CG       -38.4330  -19.5170   23.2040 C.3   193  GLU193      0.1160
     68  CD       -37.7940  -18.1280   23.3720 C.2   193  GLU193      0.3649
     69  OE1      -38.4980  -17.1010   23.2640 O.co2 193  GLU193     -0.2457
     70  OE2      -36.5660  -18.0620   23.6200 O.co2 193  GLU193     -0.2457
     71  N        -33.0100  -18.7670   16.1320 N.3   202  SER202     -0.1217
     72  CA       -32.2360  -17.6170   16.5850 C.3   202  SER202      0.1889
     73  C        -32.2080  -16.5330   15.4970 C.2   202  SER202      0.2288
     74  O        -32.3940  -16.8480   14.3120 O.2   202  SER202     -0.2866
     75  CB       -30.8160  -18.0650   16.9520 C.3   202  SER202      0.2089
     76  OG       -30.8170  -18.8640   18.1240 O.3   202  SER202     -0.2183
     77  N        -34.4450   -8.4020   29.7090 N.3   246  TYR246     -0.1227
     78  CA       -33.5410   -9.2280   28.9260 C.3   246  TYR246      0.1736
     79  C        -33.6320  -10.6440   29.4660 C.2   246  TYR246      0.2595
     80  O        -33.0490  -11.5350   28.8660 O.2   246  TYR246     -0.2718
     81  CB       -32.0800   -8.7690   29.1140 C.3   246  TYR246      0.0548
     82  CG       -31.6130   -7.4950   28.4140 C.ar  246  TYR246     -0.0200
     83  CD1      -32.4950   -6.6440   27.7500 C.ar  246  TYR246     -0.0009
     84  CD2      -30.2690   -7.1400   28.4460 C.ar  246  TYR246     -0.0009
     85  CE1      -32.0410   -5.4880   27.1220 C.ar  246  TYR246      0.0417
     86  CE2      -29.7980   -5.9900   27.8210 C.ar  246  TYR246      0.0417
     87  CZ       -30.6830   -5.1590   27.1590 C.ar  246  TYR246      0.1957
     88  OH       -30.2280   -4.0110   26.5370 O.3   246  TYR246     -0.2866
     89  N        -34.3700  -10.8470   30.5770 N.am  247  ILE247     -0.1966
     90  CA       -34.3320  -12.0740   31.3900 C.3   247  ILE247      0.1727
     91  C        -35.6990  -12.4350   32.0290 C.2   247  ILE247      0.2616
     92  O        -36.6260  -11.6120   32.0390 O.2   247  ILE247     -0.2715
     93  CB       -33.3000  -11.9280   32.5310 C.3   247  ILE247      0.0290
     94  CG1      -33.6540  -10.7410   33.4380 C.3   247  ILE247      0.0022
     95  CG2      -31.8960  -11.7490   31.9670 C.3   247  ILE247      0.0023
     96  CD1      -32.7950  -10.6380   34.6780 C.3   247  ILE247      0.0001
     97  N        -35.7890  -13.6630   32.5630 N.am  248  ASP248     -0.1971
     98  CA       -36.9640  -14.1760   33.2740 C.3   248  ASP248      0.1709
     99  C        -37.1230  -13.4390   34.6230 C.2   248  ASP248      0.2293
    100  O        -36.3390  -13.6270   35.5440 O.2   248  ASP248     -0.2864
    101  CB       -36.7920  -15.7000   33.4850 C.3   248  ASP248      0.1436
    102  CG       -38.0760  -16.4220   33.9480 C.2   248  ASP248      0.3671
    103  OD1      -39.0240  -15.7750   34.4710 O.co2 248  ASP248     -0.2456
    104  OD2      -38.1200  -17.6690   33.7950 O.co2 248  ASP248     -0.2456
    105  N        -37.4290  -14.5170   39.3120 N.3   251  TYR251     -0.1241
    106  CA       -36.4720  -14.8120   40.3950 C.3   251  TYR251      0.1605
    107  C        -36.1150  -13.5780   41.2550 C.2   251  TYR251      0.2264
    108  O        -36.3460  -12.4480   40.8250 O.2   251  TYR251     -0.2867
    109  CB       -35.2020  -15.4920   39.8250 C.3   251  TYR251      0.0534
    110  CG       -35.5050  -16.7930   39.1100 C.ar  251  TYR251     -0.0201
    111  CD1      -35.6880  -17.9770   39.8210 C.ar  251  TYR251     -0.0009
    112  CD2      -35.6430  -16.8350   37.7160 C.ar  251  TYR251     -0.0009
    113  CE1      -35.9800  -19.1670   39.1670 C.ar  251  TYR251      0.0417
    114  CE2      -35.9420  -18.0200   37.0560 C.ar  251  TYR251      0.0417
    115  CZ       -36.1090  -19.1790   37.7840 C.ar  251  TYR251      0.1957
    116  OH       -36.4190  -20.3470   37.1340 O.3   251  TYR251     -0.2866
    117  N        -26.8890  -13.3620   36.7170 N.3   259  ARG259     -0.1245
    118  CA       -27.1240  -13.6010   35.2970 C.3   259  ARG259      0.1563
    119  C        -26.8010  -12.3870   34.4070 C.2   259  ARG259      0.2260
    120  O        -26.1630  -12.5410   33.3620 O.2   259  ARG259     -0.2867
    121  CB       -28.5700  -14.0530   35.0800 C.3   259  ARG259      0.0307
    122  CG       -28.9450  -14.3150   33.6350 C.3   259  ARG259      0.0489
    123  CD       -30.3420  -14.9010   33.5500 C.3   259  ARG259      0.2205
    124  NE       -30.3210  -16.3180   33.9050 N.pl3 259  ARG259     -0.0865
    125  CZ       -30.1550  -17.3390   33.0540 C.cat 259  ARG259      0.5346
    126  NH1      -30.0100  -17.1490   31.7290 N.pl3 259  ARG259      0.1354
    127  NH2      -30.1440  -18.5850   33.5410 N.pl3 259  ARG259      0.1354
    128  N        -24.1990  -10.0000   30.3030 N.3   264  TYR264     -0.1241
    129  CA       -24.2360   -8.6040   29.7770 C.3   264  TYR264      0.1605
    130  C        -23.3120   -7.5500   30.4530 C.2   264  TYR264      0.2264
    131  O        -23.2890   -6.3850   30.0380 O.2   264  TYR264     -0.2867
    132  CB       -25.6890   -8.0970   29.7610 C.3   264  TYR264      0.0534
    133  CG       -26.5940   -8.9160   28.8700 C.ar  264  TYR264     -0.0201
    134  CD1      -26.5090   -8.8210   27.4870 C.ar  264  TYR264     -0.0009
    135  CD2      -27.5400   -9.8000   29.4090 C.ar  264  TYR264     -0.0009
    136  CE1      -27.3440   -9.5790   26.6620 C.ar  264  TYR264      0.0417
    137  CE2      -28.3720  -10.5680   28.5920 C.ar  264  TYR264      0.0417
    138  CZ       -28.2780  -10.4490   27.2190 C.ar  264  TYR264      0.1957
    139  OH       -29.0900  -11.1940   26.3980 O.3   264  TYR264     -0.2866
    140  N        -31.3060  -27.3890   40.9410 N.3   308  ILE308     -0.1245
    141  CA       -31.6540  -26.8340   39.6240 C.3   308  ILE308      0.1561
    142  C        -30.5400  -27.0800   38.5860 C.2   308  ILE308      0.2260
    143  O        -30.8390  -27.3820   37.4290 O.2   308  ILE308     -0.2867
    144  CB       -32.0080  -25.3210   39.7170 C.3   308  ILE308      0.0252
    145  CG1      -33.3220  -25.1470   40.4910 C.3   308  ILE308      0.0019
    146  CG2      -32.1400  -24.6820   38.3290 C.3   308  ILE308      0.0019
    147  CD1      -33.6320  -23.7220   40.9200 C.3   308  ILE308      0.0001
    148  N        -40.0780  -23.5260   40.4200 N.3   347  HIS347     -0.1241
    149  CA       -39.1280  -23.9730   39.3930 C.3   347  HIS347      0.1621
    150  C        -39.2420  -25.4760   39.1310 C.2   347  HIS347      0.2264
    151  O        -39.4090  -25.9000   37.9960 O.2   347  HIS347     -0.2867
    152  CB       -37.6900  -23.6330   39.7900 C.3   347  HIS347      0.0745
    153  CG       -36.6760  -23.9830   38.7470 C.ar  347  HIS347      0.0817
    154  ND1      -36.0330  -23.0300   37.9860 N.ar  347  HIS347     -0.2268
    155  CD2      -36.2030  -25.1810   38.3280 C.ar  347  HIS347      0.1154
    156  CE1      -35.2060  -23.6270   37.1450 C.ar  347  HIS347      0.1986
    157  NE2      -35.2880  -24.9310   37.3350 N.ar  347  HIS347     -0.2212
    158  N        -40.6040  -27.8470   35.7560 N.3   351  GLN351     -0.1245
    159  CA       -39.8350  -28.9250   35.1180 C.3   351  GLN351      0.1566
    160  C        -40.5740  -30.2620   35.1500 C.2   351  GLN351      0.2260
    161  O        -40.4960  -31.0170   34.1810 O.2   351  GLN351     -0.2867
    162  CB       -38.4570  -29.0970   35.7640 C.3   351  GLN351      0.0367
    163  CG       -37.5180  -27.8960   35.6720 C.3   351  GLN351      0.0905
    164  CD       -37.2230  -27.4240   34.2600 C.2   351  GLN351      0.2608
    165  OE1      -36.9730  -26.2500   34.0550 O.2   351  GLN351     -0.2717
    166  NE2      -37.2440  -28.3260   33.2870 N.am  351  GLN351     -0.0878
@<TRIPOS>BOND
     1    20    19    2
     2    19    18    1
     3    18    17    1
     4    18    21    1
     5    23    22    1
     6    21    22    1
     7    22    24    1
     8    74    73    2
     9    13    12    2
    10     4     3    2
    11    73    72    1
    12    12    11    1
    13     3     2    1
    14     3    10   am
    15    71    72    1
    16     2     1    1
    17     2     5    1
    18     6     7    1
    19     6     5    1
    20    31    29    1
    21    72    75    1
    22     8     7   ar
    23    75    76    1
    24     7     9   ar
    25    10    11    1
    26    11    14    1
    27    29    30    1
    28    29    26    1
    29    14    16    1
    30    14    15    1
    31    26    25    1
    32    26    27    1
    33    47    46    2
    34    48    49    1
    35    48    45    1
    36    44    45    1
    37    44    42   am
    38    41    40    1
    39    41    42    1
    40    50    49   ar
    41    50    52   ar
    42    46    45    1
    43    46    55   am
    44    27    28    2
    45    27    32   am
    46    49    51   ar
    47    65    64    2
    48    57    56    1
    49    57    58    2
    50    52    54   ar
    51    42    43    2
    52    62    63    1
    53    64    63    1
    54    56    55    1
    55    56    59    1
    56    32    33    1
    57    51    53   ar
    58    63    66    1
    59    54    53   ar
    60    59    61    1
    61    59    60    1
    62    33    34    1
    63    33    36    1
    64    38    37    2
    65    66    67    1
    66    37    36    1
    67    37    39   am
    68    34    35    2
    69    67    68    1
    70    69    68   ar
    71    68    70   ar
    72   139   138    1
    73    88    87    1
    74   136   138   ar
    75   136   134   ar
    76    85    87   ar
    77    85    83   ar
    78    87    86   ar
    79   138   137   ar
    80   134   133   ar
    81    83    82   ar
    82    86    84   ar
    83    82    84   ar
    84    82    81    1
    85   137   135   ar
    86    80    79    2
    87   133   135   ar
    88   133   132    1
    89    78    81    1
    90    78    79    1
    91    78    77    1
    92    79    89   am
    93   132   129    1
    94   129   128    1
    95   129   130    1
    96   131   130    2
    97    89    90    1
    98    90    91    1
    99    90    93    1
   100   126   125    1
   101    95    93    1
   102    91    92    2
   103    91    97   am
   104    93    94    1
   105    97    98    1
   106   125   127    1
   107   125   124    2
   108    98   101    1
   109    98    99    1
   110   166   164   am
   111   120   119    2
   112    94    96    1
   113   101   102    1
   114   123   122    1
   115   123   124    1
   116   122   121    1
   117   104   102   ar
   118   102   103   ar
   119   165   164    2
   120   161   160    2
   121   164   163    1
   122   119   118    1
   123    99   100    2
   124   121   118    1
   125   159   160    1
   126   159   158    1
   127   159   162    1
   128   118   117    1
   129   163   162    1
   130   114   112   ar
   131   114   115   ar
   132   116   115    1
   133   156   157   ar
   134   156   154   ar
   135   157   155   ar
   136   143   142    2
   137   112   110   ar
   138   115   113   ar
   139   154   153   ar
   140   151   150    2
   141   155   153   ar
   142   146   144    1
   143   142   141    1
   144   153   152    1
   145   110   111   ar
   146   110   109    1
   147   150   149    1
   148   113   111   ar
   149   105   106    1
   150   149   152    1
   151   149   148    1
   152   141   144    1
   153   141   140    1
   154   144   145    1
   155   109   106    1
   156   106   107    1
   157   145   147    1
   158   108   107    2
