@<TRIPOS>MOLECULE
tmp/5v3hA03.pdb
 109 105 0 0 0
SMALL
GASTEIGER

@<TRIPOS>ATOM
      1  N        -30.8990  -12.6540   19.6650 N.3   190  PHE190     -0.1241
      2  CA       -32.2150  -13.0530   20.1630 C.3   190  PHE190      0.1605
      3  C        -32.5220  -14.5100   19.9080 C.2   190  PHE190      0.2264
      4  O        -32.0680  -15.0660   18.9200 O.2   190  PHE190     -0.2867
      5  CB       -33.2990  -12.2200   19.4900 C.3   190  PHE190      0.0534
      6  CG       -33.4450  -10.8620   20.0850 C.ar  190  PHE190     -0.0203
      7  CD1      -32.5670   -9.8460   19.7380 C.ar  190  PHE190     -0.0042
      8  CD2      -34.4320  -10.6070   21.0260 C.ar  190  PHE190     -0.0042
      9  CE1      -32.6780   -8.5880   20.3070 C.ar  190  PHE190     -0.0003
     10  CE2      -34.5470   -9.3590   21.6060 C.ar  190  PHE190     -0.0003
     11  CZ       -33.6680   -8.3450   21.2490 C.ar  190  PHE190     -0.0000
     12  N        -40.0590   -3.3240   33.0650 N.3   217  PRO217     -0.2116
     13  CA       -40.0780   -2.7500   31.7270 C.3   217  PRO217      0.1372
     14  C        -41.3970   -2.0360   31.3950 C.2   217  PRO217      0.2244
     15  O        -42.4000   -2.2360   32.0970 O.2   217  PRO217     -0.2868
     16  CB       -39.9110   -3.9820   30.8320 C.3   217  PRO217      0.0268
     17  CG       -40.5860   -5.0610   31.5890 C.3   217  PRO217      0.0207
     18  CD       -40.3400   -4.7760   33.0330 C.3   217  PRO217      0.0892
     19  N        -42.1600   -1.8720   27.7070 N.3   219  VAL219     -0.1231
     20  CA       -42.5700   -2.5600   26.4510 C.3   219  VAL219      0.1692
     21  C        -42.2400   -4.0560   26.4870 C.2   219  VAL219      0.2592
     22  O        -41.4920   -4.5140   27.3570 O.2   219  VAL219     -0.2718
     23  CB       -41.9420   -1.9560   25.1450 C.3   219  VAL219      0.0266
     24  CG1      -42.4060   -0.5320   24.9090 C.3   219  VAL219      0.0020
     25  CG2      -40.4210   -2.0350   25.1590 C.3   219  VAL219      0.0020
     26  N        -42.7890   -4.7880   25.5120 N.am  220  ILE220     -0.1966
     27  CA       -42.5940   -6.2300   25.3850 C.3   220  ILE220      0.1727
     28  C        -42.3760   -6.6110   23.9130 C.2   220  ILE220      0.2616
     29  O        -43.0610   -6.0980   23.0200 O.2   220  ILE220     -0.2715
     30  CB       -43.7900   -6.9790   26.0130 C.3   220  ILE220      0.0290
     31  CG1      -43.5300   -8.4700   26.0910 C.3   220  ILE220      0.0022
     32  CG2      -45.0910   -6.7460   25.2500 C.3   220  ILE220      0.0023
     33  CD1      -44.4090   -9.1200   27.1280 C.3   220  ILE220      0.0001
     34  N        -41.4280   -7.5130   23.6690 N.am  221  VAL221     -0.1977
     35  CA       -41.0550   -7.9600   22.3080 C.3   221  VAL221      0.1596
     36  C        -41.8000   -9.2510   21.9380 C.2   221  VAL221      0.2287
     37  O        -41.6220  -10.2590   22.6030 O.2   221  VAL221     -0.2864
     38  CB       -39.5320   -8.2210   22.2180 C.3   221  VAL221      0.0276
     39  CG1      -39.1410   -8.8930   20.9030 C.3   221  VAL221      0.0022
     40  CG2      -38.7710   -6.9210   22.4160 C.3   221  VAL221      0.0022
     41  N        -46.4900   -1.8700   27.7000 N.3   233  VAL233     -0.1245
     42  CA       -47.1810   -2.4590   28.8680 C.3   233  VAL233      0.1561
     43  C        -47.2580   -1.5190   30.0680 C.2   233  VAL233      0.2260
     44  O        -47.7830   -1.8910   31.1030 O.2   233  VAL233     -0.2867
     45  CB       -46.6010   -3.8460   29.2720 C.3   233  VAL233      0.0252
     46  CG1      -46.9620   -4.8700   28.2060 C.3   233  VAL233      0.0019
     47  CG2      -45.0880   -3.8140   29.4760 C.3   233  VAL233      0.0019
     48  N        -36.9520   -2.7730   27.8660 N.3   244  THR244     -0.1203
     49  CA       -37.4020   -4.1700   27.9280 C.3   244  THR244      0.1994
     50  C        -36.7910   -4.8470   29.1550 C.2   244  THR244      0.2619
     51  O        -35.9720   -4.2380   29.8350 O.2   244  THR244     -0.2717
     52  CB       -36.8980   -4.9730   26.7120 C.3   244  THR244      0.1784
     53  OG1      -35.4650   -4.9430   26.6850 O.3   244  THR244     -0.2211
     54  CG2      -37.4510   -4.4270   25.3860 C.3   244  THR244      0.0376
     55  N        -37.1870   -6.0940   29.4390 N.am  245  SER245     -0.1937
     56  CA       -36.3500   -7.0170   30.2400 C.3   245  SER245      0.2055
     57  C        -35.6550   -8.0150   29.3250 C.2   245  SER245      0.2643
     58  O        -36.2400   -8.4820   28.3660 O.2   245  SER245     -0.2714
     59  CB       -37.1510   -7.8080   31.2720 C.3   245  SER245      0.2130
     60  OG       -36.3650   -8.8630   31.8180 O.3   245  SER245     -0.2179
     61  N        -34.4450   -8.4020   29.7090 N.am  246  TYR246     -0.1959
     62  CA       -33.5410   -9.2280   28.9260 C.3   246  TYR246      0.1771
     63  C        -33.6320  -10.6440   29.4660 C.2   246  TYR246      0.2619
     64  O        -33.0490  -11.5350   28.8660 O.2   246  TYR246     -0.2715
     65  CB       -32.0800   -8.7690   29.1140 C.3   246  TYR246      0.0574
     66  CG       -31.6130   -7.4950   28.4140 C.ar  246  TYR246     -0.0198
     67  CD1      -32.4950   -6.6440   27.7500 C.ar  246  TYR246     -0.0009
     68  CD2      -30.2690   -7.1400   28.4460 C.ar  246  TYR246     -0.0009
     69  CE1      -32.0410   -5.4880   27.1220 C.ar  246  TYR246      0.0417
     70  CE2      -29.7980   -5.9900   27.8210 C.ar  246  TYR246      0.0417
     71  CZ       -30.6830   -5.1590   27.1590 C.ar  246  TYR246      0.1957
     72  OH       -30.2280   -4.0110   26.5370 O.3   246  TYR246     -0.2866
     73  N        -34.3700  -10.8470   30.5770 N.am  247  ILE247     -0.1977
     74  CA       -34.3320  -12.0740   31.3900 C.3   247  ILE247      0.1596
     75  C        -35.6990  -12.4350   32.0290 C.2   247  ILE247      0.2287
     76  O        -36.6260  -11.6120   32.0390 O.2   247  ILE247     -0.2864
     77  CB       -33.3000  -11.9280   32.5310 C.3   247  ILE247      0.0276
     78  CG1      -33.6540  -10.7410   33.4380 C.3   247  ILE247      0.0022
     79  CG2      -31.8960  -11.7490   31.9670 C.3   247  ILE247      0.0022
     80  CD1      -32.7950  -10.6380   34.6780 C.3   247  ILE247      0.0001
     81  N        -38.1630  -12.6260   34.7500 N.3   249  LEU249     -0.1245
     82  CA       -38.3600  -11.8140   35.9580 C.3   249  LEU249      0.1561
     83  C        -39.0010  -12.5440   37.1620 C.2   249  LEU249      0.2260
     84  O        -39.3940  -11.8940   38.1270 O.2   249  LEU249     -0.2867
     85  CB       -39.1730  -10.5620   35.6200 C.3   249  LEU249      0.0270
     86  CG       -38.6770   -9.6620   34.4870 C.3   249  LEU249      0.0019
     87  CD1      -39.7060   -8.5740   34.2180 C.3   249  LEU249      0.0001
     88  CD2      -37.3360   -9.0390   34.8000 C.3   249  LEU249      0.0001
     89  N        -44.9350   -9.4190   36.4060 N.3   381  PRO381     -0.2116
     90  CA       -45.7250   -8.2030   36.1500 C.3   381  PRO381      0.1372
     91  C        -47.0230   -8.4470   35.3420 C.2   381  PRO381      0.2244
     92  O        -47.2640   -9.5580   34.8300 O.2   381  PRO381     -0.2868
     93  CB       -44.7610   -7.2940   35.3580 C.3   381  PRO381      0.0268
     94  CG       -43.5140   -8.0840   35.1210 C.3   381  PRO381      0.0207
     95  CD       -43.7380   -9.5010   35.5470 C.3   381  PRO381      0.0892
     96  N        -47.6500  -10.4020   31.2990 N.3   384  SER384     -0.1202
     97  CA       -46.4670  -11.2530   31.1400 C.3   384  SER384      0.2020
     98  C        -46.7780  -12.4590   30.2400 C.2   384  SER384      0.2618
     99  O        -47.7710  -13.1620   30.4620 O.2   384  SER384     -0.2717
    100  CB       -45.9710  -11.7280   32.5120 C.3   384  SER384      0.2103
    101  OG       -45.0110  -12.7590   32.3970 O.3   384  SER384     -0.2182
    102  N        -45.9230  -12.6940   29.2430 N.am  385  LEU385     -0.1979
    103  CA       -46.0820  -13.8330   28.3180 C.3   385  LEU385      0.1596
    104  C        -45.9100  -15.2140   28.9820 C.2   385  LEU385      0.2287
    105  O        -46.4650  -16.2220   28.5040 O.2   385  LEU385     -0.2864
    106  CB       -45.1110  -13.7320   27.1390 C.3   385  LEU385      0.0297
    107  CG       -45.1530  -12.4740   26.2730 C.3   385  LEU385      0.0022
    108  CD1      -43.9840  -12.4500   25.3190 C.3   385  LEU385      0.0001
    109  CD2      -46.4430  -12.3820   25.5030 C.3   385  LEU385      0.0001
@<TRIPOS>BOND
     1     4     3    2
     2     5     6    1
     3     5     2    1
     4     1     2    1
     5     7     6   ar
     6     7     9   ar
     7     3     2    1
     8     6     8   ar
     9     9    11   ar
    10    39    38    1
    11     8    10   ar
    12    11    10   ar
    13    36    35    1
    14    36    37    2
    15    38    35    1
    16    38    40    1
    17    35    34    1
    18    29    28    2
    19    34    28   am
    20    28    27    1
    21    24    23    1
    22    23    25    1
    23    23    20    1
    24    32    30    1
    25   108   107    1
    26    27    26    1
    27    27    30    1
    28    54    52    1
    29   109   107    1
    30    26    21   am
    31    30    31    1
    32    31    33    1
    33   107   106    1
    34    20    21    1
    35    20    19    1
    36    21    22    2
    37    72    71    1
    38    53    52    1
    39    52    49    1
    40    69    71   ar
    41    69    67   ar
    42   106   103    1
    43    71    70   ar
    44    41    42    1
    45    67    66   ar
    46    70    68   ar
    47    48    49    1
    48    49    50    1
    49    46    45    1
    50   103   104    1
    51   103   102    1
    52    58    57    2
    53    66    68   ar
    54    66    65    1
    55   105   104    2
    56    64    63    2
    57    42    45    1
    58    42    43    1
    59    62    65    1
    60    62    63    1
    61    62    61    1
    62    50    55   am
    63    50    51    2
    64   102    98   am
    65    45    47    1
    66    57    61   am
    67    57    56    1
    68    55    56    1
    69    63    73   am
    70    43    44    2
    71    98    99    2
    72    98    97    1
    73    56    59    1
    74    73    74    1
    75    16    17    1
    76    16    13    1
    77    97    96    1
    78    97   100    1
    79    59    60    1
    80    74    75    1
    81    74    77    1
    82    14    13    1
    83    14    15    2
    84    17    18    1
    85    13    12    1
    86    79    77    1
    87    75    76    2
    88   101   100    1
    89    77    78    1
    90    18    12    1
    91    78    80    1
    92    87    86    1
    93    86    88    1
    94    86    85    1
    95    81    82    1
    96    92    91    2
    97    94    93    1
    98    94    95    1
    99    91    90    1
   100    93    90    1
   101    95    89    1
   102    85    82    1
   103    82    83    1
   104    90    89    1
   105    83    84    2
