@<TRIPOS>MOLECULE
tmp/5v3hA04.pdb
 98 95 0 0 0
SMALL
GASTEIGER

@<TRIPOS>ATOM
      1  N        -42.7890   -4.7880   25.5120 N.3   220  ILE220     -0.1231
      2  CA       -42.5940   -6.2300   25.3850 C.3   220  ILE220      0.1692
      3  C        -42.3760   -6.6110   23.9130 C.2   220  ILE220      0.2591
      4  O        -43.0610   -6.0980   23.0200 O.2   220  ILE220     -0.2718
      5  CB       -43.7900   -6.9790   26.0130 C.3   220  ILE220      0.0266
      6  CG1      -43.5300   -8.4700   26.0910 C.3   220  ILE220      0.0019
      7  CG2      -45.0910   -6.7460   25.2500 C.3   220  ILE220      0.0020
      8  CD1      -44.4090   -9.1200   27.1280 C.3   220  ILE220      0.0001
      9  N        -41.4280   -7.5130   23.6690 N.am  221  VAL221     -0.1980
     10  CA       -41.0550   -7.9600   22.3080 C.3   221  VAL221      0.1595
     11  C        -41.8000   -9.2510   21.9380 C.2   221  VAL221      0.2287
     12  O        -41.6220  -10.2590   22.6030 O.2   221  VAL221     -0.2864
     13  CB       -39.5320   -8.2210   22.2180 C.3   221  VAL221      0.0276
     14  CG1      -39.1410   -8.8930   20.9030 C.3   221  VAL221      0.0022
     15  CG2      -38.7710   -6.9210   22.4160 C.3   221  VAL221      0.0022
     16  N        -43.2020  -11.8590   18.4270 N.3   223  TYR223     -0.1241
     17  CA       -42.8620  -12.2590   17.0620 C.3   223  TYR223      0.1605
     18  C        -44.0930  -12.5360   16.1940 C.2   223  TYR223      0.2264
     19  O        -45.1050  -13.0390   16.6760 O.2   223  TYR223     -0.2867
     20  CB       -41.9560  -13.4920   17.0990 C.3   223  TYR223      0.0534
     21  CG       -40.6740  -13.2770   17.8700 C.ar  223  TYR223     -0.0201
     22  CD1      -39.7870  -12.2630   17.5120 C.ar  223  TYR223     -0.0009
     23  CD2      -40.3380  -14.0920   18.9540 C.ar  223  TYR223     -0.0009
     24  CE1      -38.6120  -12.0500   18.2240 C.ar  223  TYR223      0.0417
     25  CE2      -39.1590  -13.8920   19.6640 C.ar  223  TYR223      0.0417
     26  CZ       -38.3000  -12.8610   19.3050 C.ar  223  TYR223      0.1957
     27  OH       -37.1260  -12.6550   20.0020 O.3   223  TYR223     -0.2866
     28  N        -37.1870   -6.0940   29.4390 N.3   245  SER245     -0.1217
     29  CA       -36.3500   -7.0170   30.2400 C.3   245  SER245      0.1889
     30  C        -35.6550   -8.0150   29.3250 C.2   245  SER245      0.2288
     31  O        -36.2400   -8.4820   28.3660 O.2   245  SER245     -0.2866
     32  CB       -37.1510   -7.8080   31.2720 C.3   245  SER245      0.2089
     33  OG       -36.3650   -8.8630   31.8180 O.3   245  SER245     -0.2183
     34  N        -34.3700  -10.8470   30.5770 N.3   247  ILE247     -0.1231
     35  CA       -34.3320  -12.0740   31.3900 C.3   247  ILE247      0.1692
     36  C        -35.6990  -12.4350   32.0290 C.2   247  ILE247      0.2592
     37  O        -36.6260  -11.6120   32.0390 O.2   247  ILE247     -0.2718
     38  CB       -33.3000  -11.9280   32.5310 C.3   247  ILE247      0.0266
     39  CG1      -33.6540  -10.7410   33.4380 C.3   247  ILE247      0.0019
     40  CG2      -31.8960  -11.7490   31.9670 C.3   247  ILE247      0.0020
     41  CD1      -32.7950  -10.6380   34.6780 C.3   247  ILE247      0.0001
     42  N        -35.7890  -13.6630   32.5630 N.am  248  ASP248     -0.1960
     43  CA       -36.9640  -14.1760   33.2740 C.3   248  ASP248      0.1840
     44  C        -37.1230  -13.4390   34.6230 C.2   248  ASP248      0.2621
     45  O        -36.3390  -13.6270   35.5440 O.2   248  ASP248     -0.2715
     46  CB       -36.7920  -15.7000   33.4850 C.3   248  ASP248      0.1450
     47  CG       -38.0760  -16.4220   33.9480 C.2   248  ASP248      0.3671
     48  OD1      -39.0240  -15.7750   34.4710 O.co2 248  ASP248     -0.2456
     49  OD2      -38.1200  -17.6690   33.7950 O.co2 248  ASP248     -0.2456
     50  N        -38.1630  -12.6260   34.7500 N.am  249  LEU249     -0.1977
     51  CA       -38.3600  -11.8140   35.9580 C.3   249  LEU249      0.1596
     52  C        -39.0010  -12.5440   37.1620 C.2   249  LEU249      0.2287
     53  O        -39.3940  -11.8940   38.1270 O.2   249  LEU249     -0.2864
     54  CB       -39.1730  -10.5620   35.6200 C.3   249  LEU249      0.0297
     55  CG       -38.6770   -9.6620   34.4870 C.3   249  LEU249      0.0022
     56  CD1      -39.7060   -8.5740   34.2180 C.3   249  LEU249      0.0001
     57  CD2      -37.3360   -9.0390   34.8000 C.3   249  LEU249      0.0001
     58  N        -44.8930  -12.3440   38.7110 N.3   380  TYR380     -0.1228
     59  CA       -44.6460  -11.6500   37.4300 C.3   380  TYR380      0.1721
     60  C        -45.3350  -10.2710   37.3650 C.2   380  TYR380      0.2437
     61  O        -46.2080   -9.9750   38.1730 O.2   380  TYR380     -0.2733
     62  CB       -45.0930  -12.5030   36.2260 C.3   380  TYR380      0.0547
     63  CG       -44.1080  -13.5880   35.8240 C.ar  380  TYR380     -0.0200
     64  CD1      -42.9110  -13.2700   35.1860 C.ar  380  TYR380     -0.0009
     65  CD2      -44.3840  -14.9410   36.0650 C.ar  380  TYR380     -0.0009
     66  CE1      -42.0110  -14.2670   34.8110 C.ar  380  TYR380      0.0417
     67  CE2      -43.4940  -15.9420   35.7050 C.ar  380  TYR380      0.0417
     68  CZ       -42.3060  -15.6090   35.0810 C.ar  380  TYR380      0.1957
     69  OH       -41.4180  -16.6170   34.7330 O.3   380  TYR380     -0.2866
     70  N        -44.9350   -9.4190   36.4060 N.am  381  PRO381     -0.2729
     71  CA       -45.7250   -8.2030   36.1500 C.3   381  PRO381      0.1401
     72  C        -47.0230   -8.4470   35.3420 C.2   381  PRO381      0.2269
     73  O        -47.2640   -9.5580   34.8300 O.2   381  PRO381     -0.2865
     74  CB       -44.7610   -7.2940   35.3580 C.3   381  PRO381      0.0296
     75  CG       -43.5140   -8.0840   35.1210 C.3   381  PRO381      0.0237
     76  CD       -43.7380   -9.5010   35.5470 C.3   381  PRO381      0.0939
     77  N        -47.6500  -10.4020   31.2990 N.3   384  SER384     -0.1202
     78  CA       -46.4670  -11.2530   31.1400 C.3   384  SER384      0.2020
     79  C        -46.7780  -12.4590   30.2400 C.2   384  SER384      0.2619
     80  O        -47.7710  -13.1620   30.4620 O.2   384  SER384     -0.2717
     81  CB       -45.9710  -11.7280   32.5120 C.3   384  SER384      0.2103
     82  OG       -45.0110  -12.7590   32.3970 O.3   384  SER384     -0.2182
     83  N        -45.9230  -12.6940   29.2430 N.am  385  LEU385     -0.1965
     84  CA       -46.0820  -13.8330   28.3180 C.3   385  LEU385      0.1728
     85  C        -45.9100  -15.2140   28.9820 C.2   385  LEU385      0.2616
     86  O        -46.4650  -16.2220   28.5040 O.2   385  LEU385     -0.2715
     87  CB       -45.1110  -13.7320   27.1390 C.3   385  LEU385      0.0311
     88  CG       -45.1530  -12.4740   26.2730 C.3   385  LEU385      0.0022
     89  CD1      -43.9840  -12.4500   25.3190 C.3   385  LEU385      0.0001
     90  CD2      -46.4430  -12.3820   25.5030 C.3   385  LEU385      0.0001
     91  N        -45.1250  -15.2500   30.0600 N.am  386  ASN386     -0.1972
     92  CA       -44.9710  -16.4420   30.8920 C.3   386  ASN386      0.1688
     93  C        -46.2970  -16.8690   31.5180 C.2   386  ASN386      0.2292
     94  O        -46.6520  -18.0560   31.4980 O.2   386  ASN386     -0.2864
     95  CB       -43.9870  -16.1800   32.0290 C.3   386  ASN386      0.1181
     96  CG       -42.5620  -16.0670   31.5540 C.2   386  ASN386      0.2629
     97  OD1      -41.8910  -17.0790   31.3540 O.2   386  ASN386     -0.2716
     98  ND2      -42.0730  -14.8270   31.4060 N.am  386  ASN386     -0.0877
@<TRIPOS>BOND
     1    18    19    2
     2    18    17    1
     3    17    20    1
     4    17    16    1
     5    20    21    1
     6    22    21   ar
     7    22    24   ar
     8    21    23   ar
     9    24    26   ar
    10    23    25   ar
    11    26    25   ar
    12    26    27    1
    13    14    13    1
    14    11    10    1
    15    11    12    2
    16    13    10    1
    17    13    15    1
    18    10     9    1
    19     4     3    2
    20     9     3   am
    21     3     2    1
    22     7     5    1
    23    89    88    1
    24     2     1    1
    25     2     5    1
    26    90    88    1
    27     5     6    1
    28     6     8    1
    29    88    87    1
    30    87    84    1
    31    84    85    1
    32    84    83    1
    33    31    30    2
    34    86    85    2
    35    85    91   am
    36    83    79   am
    37    30    29    1
    38    28    29    1
    39    91    92    1
    40    29    32    1
    41    79    80    2
    42    79    78    1
    43    34    35    1
    44    92    93    1
    45    92    95    1
    46    78    77    1
    47    78    81    1
    48    32    33    1
    49    97    96    2
    50    35    36    1
    51    35    38    1
    52    98    96   am
    53    94    93    2
    54    96    95    1
    55    40    38    1
    56    36    37    2
    57    36    42   am
    58    82    81    1
    59    38    39    1
    60    42    43    1
    61    43    46    1
    62    43    44    1
    63    39    41    1
    64    46    47    1
    65    49    47   ar
    66    47    48   ar
    67    56    55    1
    68    55    57    1
    69    55    54    1
    70    44    50   am
    71    44    45    2
    72    69    68    1
    73    50    51    1
    74    66    68   ar
    75    66    64   ar
    76    73    72    2
    77    68    67   ar
    78    75    74    1
    79    75    76    1
    80    64    63   ar
    81    72    71    1
    82    74    71    1
    83    76    70    1
    84    54    51    1
    85    67    65   ar
    86    63    65   ar
    87    63    62    1
    88    51    52    1
    89    71    70    1
    90    62    59    1
    91    70    60   am
    92    52    53    2
    93    60    59    1
    94    60    61    2
    95    59    58    1
