@<TRIPOS>MOLECULE
tmp/5v3oB00.pdb
 169 170 0 0 0
SMALL
GASTEIGER

@<TRIPOS>ATOM
      1  N         43.6280   52.0890  -25.9500 N.3    54  GLN54      -0.1245
      2  CA        44.7650   52.9300  -25.6430 C.3    54  GLN54       0.1566
      3  C         44.2080   54.2110  -25.0860 C.2    54  GLN54       0.2260
      4  O         43.3720   54.8670  -25.7270 O.2    54  GLN54      -0.2867
      5  CB        45.5890   53.2260  -26.8830 C.3    54  GLN54       0.0367
      6  CG        46.1080   51.9690  -27.5640 C.3    54  GLN54       0.0905
      7  CD        47.4280   52.1760  -28.2850 C.2    54  GLN54       0.2608
      8  OE1       48.4240   52.5900  -27.6760 O.2    54  GLN54      -0.2717
      9  NE2       47.4490   51.8830  -29.5780 N.am   54  GLN54      -0.0878
     10  N         45.0570   57.9590  -22.9630 N.3    56  PHE56      -0.1241
     11  CA        46.0820   59.0090  -22.7900 C.3    56  PHE56       0.1605
     12  C         45.7660   60.0240  -21.6840 C.2    56  PHE56       0.2264
     13  O         46.6240   60.2980  -20.8400 O.2    56  PHE56      -0.2867
     14  CB        46.3020   59.7420  -24.1110 C.3    56  PHE56       0.0534
     15  CG        46.6600   58.8350  -25.2380 C.ar   56  PHE56      -0.0203
     16  CD1       47.9840   58.4910  -25.4770 C.ar   56  PHE56      -0.0042
     17  CD2       45.6740   58.2990  -26.0440 C.ar   56  PHE56      -0.0042
     18  CE1       48.3200   57.6350  -26.5120 C.ar   56  PHE56      -0.0003
     19  CE2       46.0050   57.4420  -27.0800 C.ar   56  PHE56      -0.0003
     20  CZ        47.3320   57.1080  -27.3140 C.ar   56  PHE56      -0.0000
     21  N         59.0150   57.2670  -24.7680 N.3    98  PHE98      -0.1241
     22  CA        59.0070   58.5790  -25.4450 C.3    98  PHE98       0.1605
     23  C         58.6350   59.7470  -24.4930 C.2    98  PHE98       0.2264
     24  O         58.1420   60.7860  -24.9460 O.2    98  PHE98      -0.2867
     25  CB        58.0730   58.5960  -26.6790 C.3    98  PHE98       0.0534
     26  CG        58.2430   57.4240  -27.6260 C.ar   98  PHE98      -0.0203
     27  CD1       59.5070   57.0180  -28.0570 C.ar   98  PHE98      -0.0042
     28  CD2       57.1210   56.7580  -28.1340 C.ar   98  PHE98      -0.0042
     29  CE1       59.6460   55.9540  -28.9410 C.ar   98  PHE98      -0.0003
     30  CE2       57.2580   55.6960  -29.0190 C.ar   98  PHE98      -0.0003
     31  CZ        58.5220   55.2940  -29.4230 C.ar   98  PHE98      -0.0000
     32  N         56.0940   60.1770  -22.5010 N.3   100  ILE100     -0.1245
     33  CA        54.6520   60.4880  -22.3470 C.3   100  ILE100      0.1561
     34  C         53.8570   59.2930  -21.7860 C.2   100  ILE100      0.2260
     35  O         54.2040   58.1380  -22.0320 O.2   100  ILE100     -0.2867
     36  CB        54.0320   60.9300  -23.7070 C.3   100  ILE100      0.0252
     37  CG1       54.9090   61.9870  -24.4020 C.3   100  ILE100      0.0019
     38  CG2       52.6220   61.4980  -23.5330 C.3   100  ILE100      0.0019
     39  CD1       54.9280   61.8630  -25.9080 C.3   100  ILE100      0.0001
     40  N         50.9800   56.5260  -21.3890 N.3   102  ILE102     -0.1245
     41  CA        50.0290   55.6720  -22.1250 C.3   102  ILE102      0.1561
     42  C         49.5830   54.5300  -21.2000 C.2   102  ILE102      0.2260
     43  O         50.3850   54.0170  -20.4190 O.2   102  ILE102     -0.2867
     44  CB        50.6270   54.9930  -23.4030 C.3   102  ILE102      0.0252
     45  CG1       51.7950   55.7740  -24.0460 C.3   102  ILE102      0.0019
     46  CG2       49.5180   54.6850  -24.4130 C.3   102  ILE102      0.0019
     47  CD1       51.4160   56.8930  -24.9920 C.3   102  ILE102      0.0001
     48  N         47.4990   50.7870  -21.8820 N.3   104  LYS104     -0.1245
     49  CA        46.9550   49.9020  -22.8890 C.3   104  LYS104      0.1561
     50  C         46.2470   48.7520  -22.1970 C.2   104  LYS104      0.2260
     51  O         46.8700   47.9980  -21.4670 O.2   104  LYS104     -0.2867
     52  CB        48.0750   49.3780  -23.7700 C.3   104  LYS104      0.0271
     53  CG        48.8440   50.4640  -24.4980 C.3   104  LYS104      0.0035
     54  CD        50.2060   49.9400  -24.9000 C.3   104  LYS104      0.0206
     55  CE        50.9360   50.8870  -25.8310 C.3   104  LYS104      0.1093
     56  NZ        50.4810   50.7150  -27.2330 N.3   104  LYS104     -0.1314
     57  N         43.6430   51.7860  -33.0460 N.3   286  ASN286     -0.1226
     58  CA        44.7060   52.4070  -33.8090 C.3   286  ASN286      0.1770
     59  C         45.6570   53.1170  -32.8350 C.2   286  ASN286      0.2439
     60  O         45.4330   53.0710  -31.6150 O.2   286  ASN286     -0.2733
     61  CB        44.1020   53.2920  -34.9100 C.3   286  ASN286      0.1168
     62  CG        43.7270   54.6770  -34.4430 C.2   286  ASN286      0.2627
     63  OD1       43.6900   54.9760  -33.2520 O.2   286  ASN286     -0.2716
     64  ND2       43.4360   55.5410  -35.4020 N.am  286  ASN286     -0.0877
     65  N         46.7160   53.7650  -33.3480 N.am  287  PRO287     -0.2718
     66  CA        47.6910   54.3790  -32.4460 C.3   287  PRO287      0.1535
     67  C         47.1410   55.4580  -31.5120 C.2   287  PRO287      0.2598
     68  O         47.6850   55.6590  -30.4180 O.2   287  PRO287     -0.2715
     69  CB        48.7020   55.0000  -33.4030 C.3   287  PRO287      0.0310
     70  CG        48.5890   54.1920  -34.6350 C.3   287  PRO287      0.0237
     71  CD        47.1360   53.8920  -34.7490 C.3   287  PRO287      0.0939
     72  N         46.0890   56.1440  -31.9550 N.am  288  HIS288     -0.1974
     73  CA        45.4890   57.2430  -31.2030 C.3   288  HIS288      0.1656
     74  C         44.3510   56.8250  -30.2670 C.2   288  HIS288      0.2291
     75  O         43.7920   57.6620  -29.5550 O.2   288  HIS288     -0.2864
     76  CB        45.0230   58.3280  -32.1800 C.3   288  HIS288      0.0771
     77  CG        46.1290   58.8770  -33.0310 C.ar  288  HIS288      0.0820
     78  ND1       47.1750   59.6080  -32.5110 N.ar  288  HIS288     -0.2267
     79  CD2       46.3620   58.7820  -34.3610 C.ar  288  HIS288      0.1154
     80  CE1       48.0020   59.9440  -33.4840 C.ar  288  HIS288      0.1986
     81  NE2       47.5310   59.4550  -34.6170 N.ar  288  HIS288     -0.2212
     82  N         38.4170   50.4160  -34.2490 N.3   292  HIS292     -0.1241
     83  CA        37.8240   50.1080  -35.5560 C.3   292  HIS292      0.1621
     84  C         37.4410   48.6460  -35.5870 C.2   292  HIS292      0.2264
     85  O         38.2680   47.7860  -35.2910 O.2   292  HIS292     -0.2867
     86  CB        38.8150   50.3700  -36.6960 C.3   292  HIS292      0.0745
     87  CG        39.0810   51.8170  -36.9510 C.ar  292  HIS292      0.0817
     88  ND1       38.6880   52.4490  -38.1090 N.ar  292  HIS292     -0.2268
     89  CD2       39.6950   52.7580  -36.1970 C.ar  292  HIS292      0.1154
     90  CE1       39.0480   53.7180  -38.0580 C.ar  292  HIS292      0.1986
     91  NE2       39.6610   53.9320  -36.9070 N.ar  292  HIS292     -0.2212
     92  N         53.6830   49.7420  -39.7420 N.3   312  GLU312     -0.1231
     93  CA        53.7150   50.4150  -38.4550 C.3   312  GLU312      0.1699
     94  C         52.3840   50.2050  -37.7760 C.2   312  GLU312      0.2592
     95  O         51.3490   50.5660  -38.3180 O.2   312  GLU312     -0.2718
     96  CB        53.9890   51.9080  -38.6360 C.3   312  GLU312      0.0402
     97  CG        54.3900   52.6450  -37.3630 C.3   312  GLU312      0.1161
     98  CD        54.6420   54.1320  -37.5950 C.2   312  GLU312      0.3649
     99  OE1       54.2160   54.6860  -38.6490 O.co2 312  GLU312     -0.2457
    100  OE2       55.2590   54.7570  -36.7050 O.co2 312  GLU312     -0.2457
    101  N         52.4200   49.5740  -36.6100 N.am  313  HIS313     -0.1962
    102  CA        51.2350   49.3770  -35.7790 C.3   313  HIS313      0.1787
    103  C         50.2000   48.4550  -36.4170 C.2   313  HIS313      0.2621
    104  O         49.0300   48.4840  -36.0410 O.2   313  HIS313     -0.2715
    105  CB        50.6060   50.7330  -35.4630 C.3   313  HIS313      0.0785
    106  CG        49.8260   50.7540  -34.1970 C.ar  313  HIS313      0.0821
    107  ND1       48.4690   50.5250  -34.1540 N.ar  313  HIS313     -0.2267
    108  CD2       50.2100   51.0000  -32.9280 C.ar  313  HIS313      0.1154
    109  CE1       48.0500   50.6290  -32.9070 C.ar  313  HIS313      0.1986
    110  NE2       49.0880   50.9120  -32.1450 N.ar  313  HIS313     -0.2212
    111  N         50.6380   47.6210  -37.3560 N.am  314  SER314     -0.1936
    112  CA        49.7250   46.7870  -38.1060 C.3   314  SER314      0.2055
    113  C         49.0710   45.7580  -37.1990 C.2   314  SER314      0.2643
    114  O         49.7280   45.1040  -36.3850 O.2   314  SER314     -0.2714
    115  CB        50.4230   46.0730  -39.2530 C.3   314  SER314      0.2130
    116  OG        49.5400   45.1420  -39.8480 O.3   314  SER314     -0.2179
    117  N         47.7660   45.6220  -37.3800 N.am  315  TRP315     -0.1973
    118  CA        46.9260   44.7480  -36.5790 C.3   315  TRP315      0.1640
    119  C         47.0350   43.2840  -36.9870 C.2   315  TRP315      0.2290
    120  O         46.6220   42.3810  -36.2360 O.2   315  TRP315     -0.2864
    121  CB        45.4750   45.1810  -36.7450 C.3   315  TRP315      0.0576
    122  CG        45.1840   46.5410  -36.2760 C.ar  315  TRP315      0.0006
    123  CD1       45.7610   47.1910  -35.2370 C.ar  315  TRP315      0.0946
    124  CD2       44.1960   47.4200  -36.8010 C.ar  315  TRP315      0.0152
    125  NE1       45.2090   48.4320  -35.0860 N.ar  315  TRP315     -0.2442
    126  CE2       44.2320   48.5940  -36.0290 C.ar  315  TRP315      0.0810
    127  CE3       43.2830   47.3320  -37.8560 C.ar  315  TRP315      0.0012
    128  CZ2       43.3950   49.6780  -36.2800 C.ar  315  TRP315      0.0191
    129  CZ3       42.4550   48.4140  -38.1090 C.ar  315  TRP315      0.0001
    130  CH2       42.5150   49.5690  -37.3230 C.ar  315  TRP315      0.0015
    131  N         49.7500   47.8840  -44.3120 N.3   321  TRP321     -0.1241
    132  CA        48.4590   48.5120  -44.5680 C.3   321  TRP321      0.1605
    133  C         48.6010   49.7530  -45.4450 C.2   321  TRP321      0.2264
    134  O         49.5590   50.5080  -45.3170 O.2   321  TRP321     -0.2867
    135  CB        47.7510   48.8560  -43.2530 C.3   321  TRP321      0.0550
    136  CG        48.5470   49.6540  -42.3060 C.ar  321  TRP321      0.0003
    137  CD1       49.2790   49.1790  -41.2680 C.ar  321  TRP321      0.0946
    138  CD2       48.7050   51.0750  -42.2940 C.ar  321  TRP321      0.0152
    139  NE1       49.8890   50.2140  -40.5990 N.ar  321  TRP321     -0.2442
    140  CE2       49.5530   51.3910  -41.2080 C.ar  321  TRP321      0.0810
    141  CE3       48.2080   52.1160  -43.0900 C.ar  321  TRP321      0.0012
    142  CZ2       49.9170   52.6960  -40.8980 C.ar  321  TRP321      0.0191
    143  CZ3       48.5830   53.4210  -42.7860 C.ar  321  TRP321      0.0001
    144  CH2       49.4200   53.6970  -41.6950 C.ar  321  TRP321      0.0015
    145  N         41.3560   49.7400  -45.1550 N.3   335  TRP335     -0.1241
    146  CA        42.7400   49.5660  -45.5720 C.3   335  TRP335      0.1605
    147  C         42.9140   48.3390  -46.4400 C.2   335  TRP335      0.2264
    148  O         42.3180   47.2940  -46.1690 O.2   335  TRP335     -0.2867
    149  CB        43.6720   49.4050  -44.3600 C.3   335  TRP335      0.0550
    150  CG        43.6090   50.5250  -43.3770 C.ar  335  TRP335      0.0003
    151  CD1       44.3960   51.6290  -43.3470 C.ar  335  TRP335      0.0946
    152  CD2       42.7060   50.6450  -42.2850 C.ar  335  TRP335      0.0152
    153  NE1       44.0400   52.4410  -42.3020 N.ar  335  TRP335     -0.2442
    154  CE2       42.9990   51.8570  -41.6350 C.ar  335  TRP335      0.0810
    155  CE3       41.6660   49.8470  -41.7940 C.ar  335  TRP335      0.0012
    156  CZ2       42.3010   52.2910  -40.5090 C.ar  335  TRP335      0.0191
    157  CZ3       40.9680   50.2750  -40.6760 C.ar  335  TRP335      0.0001
    158  CH2       41.2900   51.4910  -40.0440 C.ar  335  TRP335      0.0015
    159  N         45.4430   45.4760  -47.1480 N.3   337  PHE337     -0.1241
    160  CA        46.5930   44.7820  -46.5340 C.3   337  PHE337      0.1605
    161  C         47.3530   43.9670  -47.5750 C.2   337  PHE337      0.2264
    162  O         46.7420   43.3090  -48.4250 O.2   337  PHE337     -0.2867
    163  CB        46.1460   43.9040  -45.3660 C.3   337  PHE337      0.0534
    164  CG        45.6850   44.6880  -44.1660 C.ar  337  PHE337     -0.0203
    165  CD1       46.5980   45.1060  -43.2090 C.ar  337  PHE337     -0.0042
    166  CD2       44.3470   45.0260  -44.0040 C.ar  337  PHE337     -0.0042
    167  CE1       46.1870   45.8240  -42.1040 C.ar  337  PHE337     -0.0003
    168  CE2       43.9320   45.7540  -42.9000 C.ar  337  PHE337     -0.0003
    169  CZ        44.8560   46.1570  -41.9500 C.ar  337  PHE337     -0.0000
@<TRIPOS>BOND
     1   162   161    2
     2   161   160    1
     3   159   160    1
     4   160   163    1
     5   147   148    2
     6   147   146    1
     7   146   145    1
     8   146   149    1
     9   133   134    2
    10   133   132    1
    11   163   164    1
    12   132   131    1
    13   132   135    1
    14   149   150    1
    15   164   166   ar
    16   164   165   ar
    17   166   168   ar
    18   150   151   ar
    19   150   152   ar
    20   151   153   ar
    21   135   136    1
    22   165   167   ar
    23   141   143   ar
    24   141   138   ar
    25   168   169   ar
    26   143   144   ar
    27   136   138   ar
    28   136   137   ar
    29   153   154   ar
    30   138   140   ar
    31   152   155   ar
    32   152   154   ar
    33   167   169   ar
    34   155   157   ar
    35   144   142   ar
    36   154   156   ar
    37   137   139   ar
    38   140   142   ar
    39   140   139   ar
    40   157   158   ar
    41   156   158   ar
    42   116   115    1
    43    92    93    1
    44   115   112    1
    45    99    98   ar
    46    96    93    1
    47    96    97    1
    48    93    94    1
    49    95    94    2
    50    88    90   ar
    51    88    87   ar
    52   129   127   ar
    53   129   130   ar
    54   112   111    1
    55   112   113    1
    56    90    91   ar
    57   127   124   ar
    58    94   101   am
    59    98    97    1
    60    98   100   ar
    61   117   113   am
    62   117   118    1
    63   111   103   am
    64   130   128   ar
    65   113   114    2
    66   119   118    1
    67   119   120    2
    68    87    86    1
    69    87    89   ar
    70    91    89   ar
    71   124   122   ar
    72   124   126   ar
    73   121   118    1
    74   121   122    1
    75    86    83    1
    76   101   102    1
    77   103   104    2
    78   103   102    1
    79   128   126   ar
    80   122   123   ar
    81   126   125   ar
    82   102   105    1
    83    84    83    1
    84    84    85    2
    85    83    82    1
    86   105   106    1
    87    64    62   am
    88   123   125   ar
    89    61    62    1
    90    61    58    1
    91    71    70    1
    92    71    65    1
    93    70    69    1
    94    81    79   ar
    95    81    80   ar
    96    62    63    2
    97    79    77   ar
    98   106   107   ar
    99   106   108   ar
   100   107   109   ar
   101    58    57    1
   102    58    59    1
   103    80    78   ar
   104    69    66    1
   105    65    59   am
   106    65    66    1
   107    77    78   ar
   108    77    76    1
   109   108   110   ar
   110   109   110   ar
   111    59    60    2
   112    66    67    1
   113    76    73    1
   114    72    67   am
   115    72    73    1
   116    67    68    2
   117    73    74    1
   118    74    75    2
   119     9     7   am
   120    31    30   ar
   121    31    29   ar
   122    30    28   ar
   123    29    27   ar
   124     7     8    2
   125     7     6    1
   126    28    26   ar
   127    27    26   ar
   128    26    25    1
   129     6     5    1
   130    20    19   ar
   131    20    18   ar
   132    56    55    1
   133    19    17   ar
   134     5     2    1
   135    25    22    1
   136    18    16   ar
   137    17    15   ar
   138     1     2    1
   139    39    37    1
   140    55    54    1
   141     4     3    2
   142     2     3    1
   143    16    15   ar
   144    22    21    1
   145    22    23    1
   146    15    14    1
   147    47    45    1
   148    24    23    2
   149    54    53    1
   150    53    52    1
   151    46    44    1
   152    37    36    1
   153    14    11    1
   154    45    44    1
   155    52    49    1
   156    36    38    1
   157    36    33    1
   158    44    41    1
   159    10    11    1
   160    49    50    1
   161    49    48    1
   162    11    12    1
   163    32    33    1
   164    33    34    1
   165    50    51    2
   166    41    40    1
   167    41    42    1
   168    35    34    2
   169    12    13    2
   170    42    43    2
