@<TRIPOS>MOLECULE
tmp/5v3uA00.pdb
 241 232 0 0 0
SMALL
GASTEIGER

@<TRIPOS>ATOM
      1  N         17.3460    9.5100   11.5200 N.3    25  TYR25      -0.1241
      2  CA        16.5480   10.2110   12.5160 C.3    25  TYR25       0.1605
      3  C         15.9960    9.2850   13.5720 C.2    25  TYR25       0.2264
      4  O         15.6350    9.7520   14.6590 O.2    25  TYR25      -0.2867
      5  CB        15.4070   10.9720   11.8550 C.3    25  TYR25       0.0534
      6  CG        15.9260   12.1950   11.1720 C.ar   25  TYR25      -0.0201
      7  CD1       16.6160   13.1670   11.8890 C.ar   25  TYR25      -0.0009
      8  CD2       15.7800   12.3620    9.8030 C.ar   25  TYR25      -0.0009
      9  CE1       17.1160   14.2980   11.2720 C.ar   25  TYR25       0.0417
     10  CE2       16.2810   13.4770    9.1750 C.ar   25  TYR25       0.0417
     11  CZ        16.9460   14.4450    9.9140 C.ar   25  TYR25       0.1957
     12  OH        17.4310   15.5500    9.2690 O.3    25  TYR25      -0.2866
     13  N         20.6650   15.1250   21.1650 N.3    34  LEU34      -0.1245
     14  CA        20.0290   15.6120   19.9430 C.3    34  LEU34       0.1561
     15  C         18.5160   15.6800   20.0190 C.2    34  LEU34       0.2260
     16  O         17.9170   16.5680   19.4150 O.2    34  LEU34      -0.2867
     17  CB        20.4290   14.7270   18.7510 C.3    34  LEU34       0.0270
     18  CG        21.9310   14.6860   18.5050 C.3    34  LEU34       0.0019
     19  CD1       22.2250   13.7880   17.3220 C.3    34  LEU34       0.0001
     20  CD2       22.4800   16.1120   18.3080 C.3    34  LEU34       0.0001
     21  N         16.5230   19.2720   20.9180 N.3    37  ILE37      -0.1231
     22  CA        16.5360   20.4490   20.0500 C.3    37  ILE37       0.1692
     23  C         15.8440   20.2350   18.7110 C.2    37  ILE37       0.2592
     24  O         15.5840   21.2180   18.0050 O.2    37  ILE37      -0.2718
     25  CB        17.9750   20.9530   19.8250 C.3    37  ILE37       0.0266
     26  CG1       18.8370   19.9030   19.1540 C.3    37  ILE37       0.0019
     27  CG2       18.6020   21.2970   21.1410 C.3    37  ILE37       0.0020
     28  CD1       20.3040   20.2190   19.2600 C.3    37  ILE37       0.0001
     29  N         15.5110   19.0010   18.3460 N.am   38  PHE38      -0.1963
     30  CA        14.7650   18.7800   17.1120 C.3    38  PHE38       0.1756
     31  C         13.2660   18.9140   17.3390 C.2    38  PHE38       0.2461
     32  O         12.7890   18.8440   18.4760 O.2    38  PHE38      -0.2730
     33  CB        15.0790   17.3960   16.5450 C.3    38  PHE38       0.0574
     34  CG        16.3680   17.3470   15.8180 C.ar   38  PHE38      -0.0200
     35  CD1       17.5400   17.0490   16.4870 C.ar   38  PHE38      -0.0042
     36  CD2       16.4180   17.6490   14.4800 C.ar   38  PHE38      -0.0042
     37  CE1       18.7260   17.0380   15.8420 C.ar   38  PHE38      -0.0003
     38  CE2       17.5970   17.6310   13.8310 C.ar   38  PHE38      -0.0003
     39  CZ        18.7630   17.3220   14.5070 C.ar   38  PHE38      -0.0000
     40  N         12.4920   19.1240   16.2710 N.am   39  PRO39      -0.2727
     41  CA        11.0330   19.0570   16.4080 C.3    39  PRO39       0.1402
     42  C         10.5870   17.7010   16.9360 C.2    39  PRO39       0.2269
     43  O         11.2700   16.6850   16.7770 O.2    39  PRO39      -0.2865
     44  CB        10.5310   19.3090   14.9830 C.3    39  PRO39       0.0296
     45  CG        11.5920   20.1800   14.3810 C.3    39  PRO39       0.0237
     46  CD        12.8930   19.6600   14.9550 C.3    39  PRO39       0.0939
     47  N          8.5590   15.6840    8.9300 N.3    44  GLU44      -0.1231
     48  CA         8.8300   16.7500    7.9720 C.3    44  GLU44       0.1699
     49  C         10.3150   17.0870    7.9100 C.2    44  GLU44       0.2592
     50  O         10.8200   17.4560    6.8400 O.2    44  GLU44      -0.2718
     51  CB         7.9930   17.9850    8.3250 C.3    44  GLU44       0.0402
     52  CG         8.2420   19.2290    7.4700 C.3    44  GLU44       0.1161
     53  CD         7.7910   19.0860    6.0210 C.2    44  GLU44       0.3649
     54  OE1        7.2180   18.0350    5.6440 O.co2  44  GLU44      -0.2457
     55  OE2        8.0170   20.0470    5.2550 O.co2  44  GLU44      -0.2457
     56  N         11.0320   16.9510    9.0320 N.am   45  THR45      -0.1953
     57  CA        12.4840   17.1120    8.9930 C.3    45  THR45       0.1897
     58  C         13.1330   16.0510    8.1050 C.2    45  THR45       0.2313
     59  O         14.0360   16.3560    7.3220 O.2    45  THR45      -0.2863
     60  CB        13.0670   17.0530   10.4060 C.3    45  THR45       0.1794
     61  OG1       12.4250   18.0270   11.2350 O.3    45  THR45      -0.2208
     62  CG2       14.5680   17.3270   10.3730 C.3    45  THR45       0.0378
     63  N         12.4640   16.8620    4.3110 N.3    48  LYS48      -0.1231
     64  CA        13.3810   17.8730    3.7960 C.3    48  LYS48       0.1693
     65  C         14.7890   17.3150    3.6530 C.2    48  LYS48       0.2591
     66  O         15.5160   17.6780    2.7230 O.2    48  LYS48      -0.2718
     67  CB        13.3970   19.1030    4.7090 C.3    48  LYS48       0.0285
     68  CG        12.0690   19.8420    4.8510 C.3    48  LYS48       0.0035
     69  CD        12.1990   20.9700    5.8710 C.3    48  LYS48       0.0206
     70  CE        10.8640   21.6220    6.2130 C.3    48  LYS48       0.1093
     71  NZ        10.9330   22.2430    7.5720 N.3    48  LYS48      -0.1314
     72  N         15.2020   16.4430    4.5730 N.am   49  GLN49      -0.1979
     73  CA        16.5600   15.9160    4.4960 C.3    49  GLN49       0.1601
     74  C         16.7220   14.9570    3.3220 C.2    49  GLN49       0.2287
     75  O         17.7840   14.9210    2.6880 O.2    49  GLN49      -0.2864
     76  CB        16.9420   15.2180    5.7950 C.3    49  GLN49       0.0394
     77  CG        18.3680   14.6940    5.7750 C.3    49  GLN49       0.0908
     78  CD        19.3790   15.8130    5.9070 C.2    49  GLN49       0.2608
     79  OE1       20.0020   16.2500    4.9450 O.2    49  GLN49      -0.2717
     80  NE2       19.5410   16.2810    7.1130 N.am   49  GLN49      -0.0878
     81  N         17.1890   17.1760    0.5230 N.3    52  PHE52      -0.1227
     82  CA        18.4740   17.8630    0.5640 C.3    52  PHE52       0.1736
     83  C         19.6110   16.9440    0.1420 C.2    52  PHE52       0.2595
     84  O         20.4030   17.2930   -0.7430 O.2    52  PHE52      -0.2718
     85  CB        18.7600   18.4310    1.9570 C.3    52  PHE52       0.0547
     86  CG        20.0790   19.1300    2.0140 C.ar   52  PHE52      -0.0202
     87  CD1       20.2000   20.4330    1.5860 C.ar   52  PHE52      -0.0042
     88  CD2       21.2190   18.4590    2.3970 C.ar   52  PHE52      -0.0042
     89  CE1       21.4240   21.0560    1.5770 C.ar   52  PHE52      -0.0003
     90  CE2       22.4400   19.0810    2.3850 C.ar   52  PHE52      -0.0003
     91  CZ        22.5460   20.3690    1.9640 C.ar   52  PHE52      -0.0000
     92  N         19.7340   15.7810    0.7990 N.am   53  LEU53      -0.1980
     93  CA        20.8050   14.8450    0.4660 C.3    53  LEU53       0.1596
     94  C         20.7160   14.3700   -0.9820 C.2    53  LEU53       0.2287
     95  O         21.7500   14.1080   -1.6010 O.2    53  LEU53      -0.2864
     96  CB        20.7900   13.6460    1.4150 C.3    53  LEU53       0.0297
     97  CG        21.1000   13.9450    2.8930 C.3    53  LEU53       0.0022
     98  CD1       20.9880   12.6850    3.7190 C.3    53  LEU53       0.0001
     99  CD2       22.4910   14.5820    3.0810 C.3    53  LEU53       0.0001
    100  N         22.3220   17.2720   -2.7400 N.3    56  TYR56      -0.1241
    101  CA        23.6720   17.3500   -2.2010 C.3    56  TYR56       0.1605
    102  C         24.5950   16.3260   -2.8570 C.2    56  TYR56       0.2264
    103  O         25.7870   16.5960   -3.0500 O.2    56  TYR56      -0.2867
    104  CB        23.5480   17.1410   -0.6830 C.3    56  TYR56       0.0534
    105  CG        24.7550   17.2920    0.2310 C.ar   56  TYR56      -0.0201
    106  CD1       25.1500   18.5470    0.7120 C.ar   56  TYR56      -0.0009
    107  CD2       25.4330   16.1680    0.6990 C.ar   56  TYR56      -0.0009
    108  CE1       26.2170   18.6720    1.5790 C.ar   56  TYR56       0.0417
    109  CE2       26.4990   16.2850    1.5690 C.ar   56  TYR56       0.0417
    110  CZ        26.8830   17.5350    2.0060 C.ar   56  TYR56       0.1957
    111  OH        27.9420   17.6300    2.8780 O.3    56  TYR56      -0.2866
    112  N         15.5480   19.7770   -3.2420 N.3    63  TYR63      -0.1241
    113  CA        15.4520   20.7010   -2.1180 C.3    63  TYR63       0.1605
    114  C         15.2820   22.1330   -2.6010 C.2    63  TYR63       0.2264
    115  O         14.3160   22.8090   -2.2340 O.2    63  TYR63      -0.2867
    116  CB        16.6790   20.5900   -1.2180 C.3    63  TYR63       0.0534
    117  CG        16.6140   21.5370   -0.0370 C.ar   63  TYR63      -0.0201
    118  CD1       16.0630   21.1340    1.1750 C.ar   63  TYR63      -0.0009
    119  CD2       17.0880   22.8410   -0.1390 C.ar   63  TYR63      -0.0009
    120  CE1       15.9930   21.9990    2.2570 C.ar   63  TYR63       0.0417
    121  CE2       17.0150   23.7110    0.9330 C.ar   63  TYR63       0.0417
    122  CZ        16.4720   23.2850    2.1280 C.ar   63  TYR63       0.1957
    123  OH        16.4110   24.1540    3.1850 O.3    63  TYR63      -0.2866
    124  N         12.3200   24.6500   -1.4100 N.3    67  HIS67      -0.1241
    125  CA        12.5840   25.4960   -0.2590 C.3    67  HIS67       0.1621
    126  C         13.5350   26.6540   -0.5590 C.2    67  HIS67       0.2264
    127  O         13.7490   27.4990    0.3190 O.2    67  HIS67      -0.2867
    128  CB        13.1470   24.6390    0.8880 C.3    67  HIS67       0.0745
    129  CG        12.4680   23.3100    1.0410 C.ar   67  HIS67       0.0817
    130  ND1       11.3910   23.1150    1.8770 N.ar   67  HIS67      -0.2268
    131  CD2       12.7140   22.1110    0.4610 C.ar   67  HIS67       0.1154
    132  CE1       11.0010   21.8550    1.8070 C.ar   67  HIS67       0.1986
    133  NE2       11.7870   21.2230    0.9530 N.ar   67  HIS67      -0.2212
    134  N         22.6550   26.4380    4.6340 N.3    72  LEU72      -0.1245
    135  CA        22.4570   25.6620    5.8530 C.3    72  LEU72       0.1561
    136  C         23.0130   26.3800    7.0780 C.2    72  LEU72       0.2260
    137  O         22.4150   26.3190    8.1610 O.2    72  LEU72      -0.2867
    138  CB        23.0810   24.2730    5.7090 C.3    72  LEU72       0.0270
    139  CG        22.3130   23.2980    4.8050 C.3    72  LEU72       0.0019
    140  CD1       22.8120   21.8990    5.0090 C.3    72  LEU72       0.0001
    141  CD2       20.8250   23.3470    5.0600 C.3    72  LEU72       0.0001
    142  N         20.4080   28.7350    8.2070 N.3    75  ARG75      -0.1231
    143  CA        19.2180   28.0800    8.7330 C.3    75  ARG75       0.1694
    144  C         19.4390   27.4340   10.0990 C.2    75  ARG75       0.2592
    145  O         18.4640   27.2130   10.8270 O.2    75  ARG75      -0.2718
    146  CB        18.7260   27.0350    7.7440 C.3    75  ARG75       0.0321
    147  CG        18.2250   27.6110    6.4370 C.3    75  ARG75       0.0489
    148  CD        17.5550   26.5190    5.6230 C.3    75  ARG75       0.2205
    149  NE        17.3700   26.8940    4.2250 N.pl3  75  ARG75      -0.0865
    150  CZ        16.2350   27.3660    3.7250 C.cat  75  ARG75       0.5346
    151  NH1       16.1510   27.6790    2.4350 N.pl3  75  ARG75       0.1354
    152  NH2       15.1840   27.5300    4.5170 N.pl3  75  ARG75       0.1354
    153  N         20.6830   27.1260   10.4640 N.am   76  HIS76      -0.1976
    154  CA        20.9810   26.4930   11.7370 C.3    76  HIS76       0.1656
    155  C         21.4030   27.5010   12.8110 C.2    76  HIS76       0.2291
    156  O         21.6970   27.1050   13.9470 O.2    76  HIS76      -0.2864
    157  CB        22.0570   25.4200   11.5520 C.3    76  HIS76       0.0771
    158  CG        21.5470   24.1340   10.9630 C.ar   76  HIS76       0.0820
    159  ND1       21.4910   23.9000    9.6020 N.ar   76  HIS76      -0.2267
    160  CD2       21.1090   22.9950   11.5510 C.ar   76  HIS76       0.1154
    161  CE1       21.0300   22.6820    9.3790 C.ar   76  HIS76       0.1986
    162  NE2       20.7860   22.1120   10.5440 N.ar   76  HIS76      -0.2212
    163  N         19.6980   27.3780   16.5320 N.3    79  PHE79      -0.1241
    164  CA        19.7690   26.1400   17.2960 C.3    79  PHE79       0.1605
    165  C         21.1220   25.9920   17.9780 C.2    79  PHE79       0.2264
    166  O         22.1510   26.4110   17.4450 O.2    79  PHE79      -0.2867
    167  CB        19.5090   24.9520   16.3860 C.3    79  PHE79       0.0534
    168  CG        18.2860   25.1070   15.5550 C.ar   79  PHE79      -0.0203
    169  CD1       17.1200   25.6070   16.1100 C.ar   79  PHE79      -0.0042
    170  CD2       18.2980   24.7700   14.2070 C.ar   79  PHE79      -0.0042
    171  CE1       15.9800   25.7580   15.3370 C.ar   79  PHE79      -0.0003
    172  CE2       17.1670   24.9200   13.4260 C.ar   79  PHE79      -0.0003
    173  CZ        16.0100   25.4100   13.9860 C.ar   79  PHE79      -0.0000
    174  N         24.0290   24.3890   18.4450 N.3    81  ILE81      -0.1245
    175  CA        24.8390   23.3770   17.7710 C.3    81  ILE81       0.1561
    176  C         26.2710   23.5080   18.2790 C.2    81  ILE81       0.2260
    177  O         27.0440   24.3560   17.8150 O.2    81  ILE81      -0.2867
    178  CB        24.7770   23.4970   16.2470 C.3    81  ILE81       0.0252
    179  CG1       23.3240   23.3590   15.7600 C.3    81  ILE81       0.0019
    180  CG2       25.6800   22.4340   15.6250 C.3    81  ILE81       0.0019
    181  CD1       23.1690   23.1930   14.2700 C.3    81  ILE81       0.0001
    182  N         27.4980   18.2370   19.8190 N.3    85  ARG85      -0.1231
    183  CA        26.3120   17.8260   19.0860 C.3    85  ARG85       0.1694
    184  C         26.6180   17.5280   17.6250 C.2    85  ARG85       0.2591
    185  O         26.0060   16.6220   17.0450 O.2    85  ARG85      -0.2718
    186  CB        25.2200   18.8780   19.2230 C.3    85  ARG85       0.0321
    187  CG        24.5200   18.7680   20.5510 C.3    85  ARG85       0.0489
    188  CD        23.7200   19.9980   20.8780 C.3    85  ARG85       0.2205
    189  NE        22.7610   19.7080   21.9400 N.pl3  85  ARG85      -0.0865
    190  CZ        22.2090   20.6190   22.7300 C.cat  85  ARG85       0.5346
    191  NH1       22.5240   21.9070   22.6020 N.pl3  85  ARG85       0.1354
    192  NH2       21.3400   20.2300   23.6510 N.pl3  85  ARG85       0.1354
    193  N         27.5830   18.2270   17.0270 N.am   86  ALA86      -0.1980
    194  CA        28.0100   17.8690   15.6780 C.3    86  ALA86       0.1597
    195  C         28.5500   16.4440   15.6370 C.2    86  ALA86       0.2287
    196  O         28.2020   15.6660   14.7370 O.2    86  ALA86      -0.2864
    197  CB        29.0570   18.8550   15.1580 C.3    86  ALA86       0.0319
    198  N         25.5450   14.0400   16.0220 N.3    89  LEU89      -0.1231
    199  CA        24.8380   13.9600   14.7530 C.3    89  LEU89       0.1693
    200  C         25.5740   13.0400   13.7780 C.2    89  LEU89       0.2591
    201  O         24.9860   12.1070   13.2130 O.2    89  LEU89      -0.2718
    202  CB        24.6960   15.3760   14.1900 C.3    89  LEU89       0.0284
    203  CG        23.7900   15.7970   13.0320 C.3    89  LEU89       0.0019
    204  CD1       24.3550   15.3310   11.7030 C.3    89  LEU89       0.0001
    205  CD2       22.3940   15.2880   13.2800 C.3    89  LEU89       0.0001
    206  N         26.8790   13.2810   13.5860 N.am   90  LEU90      -0.1980
    207  CA        27.6670   12.4610   12.6700 C.3    90  LEU90       0.1596
    208  C         27.6830   11.0060   13.1080 C.2    90  LEU90       0.2287
    209  O         27.6170   10.0940   12.2780 O.2    90  LEU90      -0.2864
    210  CB        29.0920   12.9920   12.5760 C.3    90  LEU90       0.0297
    211  CG        29.2220   14.3160   11.8410 C.3    90  LEU90       0.0022
    212  CD1       30.6680   14.7580   11.7570 C.3    90  LEU90       0.0001
    213  CD2       28.6430   14.1140   10.4700 C.3    90  LEU90       0.0001
    214  N         29.7330   15.3280    4.7500 N.3   114  LEU114     -0.1245
    215  CA        28.8320   15.5950    5.8590 C.3   114  LEU114      0.1561
    216  C         29.5850   16.0960    7.0840 C.2   114  LEU114      0.2260
    217  O         29.0880   16.9680    7.8090 O.2   114  LEU114     -0.2867
    218  CB        28.0470   14.3390    6.1730 C.3   114  LEU114      0.0270
    219  CG        27.0020   14.0620    5.1070 C.3   114  LEU114      0.0019
    220  CD1       26.3760   12.7210    5.3920 C.3   114  LEU114      0.0001
    221  CD2       25.9580   15.1330    5.1380 C.3   114  LEU114      0.0001
    222  N         30.2900   19.7500    6.4910 N.3   117  THR117     -0.1203
    223  CA        29.0770   20.5540    6.6240 C.3   117  THR117      0.1994
    224  C         28.6850   20.7470    8.0880 C.2   117  THR117      0.2617
    225  O         28.3520   21.8680    8.4980 O.2   117  THR117     -0.2717
    226  CB        27.9420   19.9110    5.8340 C.3   117  THR117      0.1784
    227  OG1       28.4040   19.6750    4.5080 O.3   117  THR117     -0.2211
    228  CG2       26.7220   20.8190    5.7630 C.3   117  THR117      0.0376
    229  N         28.7420   19.6730    8.8910 N.am  118  ALA118     -0.1979
    230  CA        28.4180   19.7720   10.3140 C.3   118  ALA118      0.1597
    231  C         29.3860   20.6870   11.0420 C.2   118  ALA118      0.2287
    232  O         28.9910   21.3720   11.9890 O.2   118  ALA118     -0.2864
    233  CB        28.4130   18.3890   10.9720 C.3   118  ALA118      0.0319
    234  N         28.1040   24.0620   10.6570 N.3   121  MET121     -0.1245
    235  CA        26.8890   24.3480   11.4150 C.3   121  MET121      0.1570
    236  C         27.1670   24.7740   12.8570 C.2   121  MET121      0.2261
    237  O         26.3260   25.4560   13.4510 O.2   121  MET121     -0.2867
    238  CB        25.9420   23.1380   11.4170 C.3   121  MET121      0.0387
    239  CG        25.5330   22.5800   10.0410 C.3   121  MET121      0.0595
    240  SD        24.5950   23.6950    8.9620 S.3   121  MET121     -0.1393
    241  CE        25.9240   24.5340    8.0720 C.3   121  MET121      0.0692
@<TRIPOS>BOND
     1   112   113    1
     2   103   102    2
     3   102   101    1
     4   100   101    1
     5   114   115    2
     6   114   113    1
     7   101   104    1
     8   113   116    1
     9    95    94    2
    10   124   125    1
    11   116   117    1
    12    94    93    1
    13    84    83    2
    14   104   105    1
    15   126   125    1
    16   126   127    2
    17   125   128    1
    18   119   117   ar
    19   119   121   ar
    20   117   118   ar
    21    83    82    1
    22    83    92   am
    23   105   107   ar
    24   105   106   ar
    25   131   133   ar
    26   131   129   ar
    27    93    92    1
    28    93    96    1
    29    81    82    1
    30    82    85    1
    31   107   109   ar
    32   106   108   ar
    33   128   129    1
    34   121   122   ar
    35   133   132   ar
    36   129   130   ar
    37   118   120   ar
    38    96    97    1
    39   109   110   ar
    40    89    87   ar
    41    89    91   ar
    42   108   110   ar
    43    87    86   ar
    44   132   130   ar
    45    85    86    1
    46    91    90   ar
    47   110   111    1
    48    86    88   ar
    49   122   120   ar
    50   122   123    1
    51    90    88   ar
    52   151   150    1
    53    75    74    2
    54    66    65    2
    55    97    99    1
    56    97    98    1
    57    74    73    1
    58    65    64    1
    59    65    72   am
    60   150   149    2
    61   150   152    1
    62    64    63    1
    63    64    67    1
    64   149   148    1
    65    73    72    1
    66    73    76    1
    67   227   226    1
    68   134   135    1
    69    67    68    1
    70   214   215    1
    71   139   140    1
    72   139   141    1
    73   139   138    1
    74    68    69    1
    75    79    78    2
    76   219   221    1
    77   219   220    1
    78   219   218    1
    79    55    53   ar
    80   148   147    1
    81    54    53   ar
    82   138   135    1
    83   228   226    1
    84    77    76    1
    85    77    78    1
    86   226   223    1
    87   135   136    1
    88   215   218    1
    89   215   216    1
    90    69    70    1
    91    78    80   am
    92    53    52    1
    93    70    71    1
    94   147   146    1
    95   222   223    1
    96   223   224    1
    97    50    49    2
    98   136   137    2
    99   216   217    2
   100    59    58    2
   101    52    51    1
   102   146   143    1
   103    49    48    1
   104    49    56   am
   105    48    51    1
   106    48    47    1
   107   241   240    1
   108   224   225    2
   109   224   229   am
   110    58    57    1
   111   142   143    1
   112   143   144    1
   113   229   230    1
   114   240   239    1
   115    57    56    1
   116    57    60    1
   117    10     8   ar
   118    10    11   ar
   119    12    11    1
   120   161   159   ar
   121   161   162   ar
   122   159   158   ar
   123     8     6   ar
   124    11     9   ar
   125   239   238    1
   126   144   153   am
   127   144   145    2
   128   230   233    1
   129   230   231    1
   130    62    60    1
   131    60    61    1
   132   153   154    1
   133   213   211    1
   134   162   160   ar
   135   234   235    1
   136   158   160   ar
   137   158   157    1
   138   231   232    2
   139     6     5    1
   140     6     7   ar
   141     9     7   ar
   142   235   238    1
   143   235   236    1
   144     1     2    1
   145   157   154    1
   146   204   203    1
   147   154   155    1
   148   212   211    1
   149   211   210    1
   150     5     2    1
   151   209   208    2
   152     2     3    1
   153   210   207    1
   154   207   208    1
   155   207   206    1
   156   155   156    2
   157   236   237    2
   158   203   205    1
   159   203   202    1
   160   201   200    2
   161   172   173   ar
   162   172   170   ar
   163     3     4    2
   164   206   200   am
   165   200   199    1
   166    38    36   ar
   167    38    39   ar
   168   173   171   ar
   169   202   199    1
   170   170   168   ar
   171   181   179    1
   172    45    46    1
   173    45    44    1
   174    36    34   ar
   175    39    37   ar
   176   196   195    2
   177   199   198    1
   178    46    40    1
   179    44    41    1
   180   197   194    1
   181   171   169   ar
   182   168   169   ar
   183   168   167    1
   184   180   178    1
   185   195   194    1
   186   194   193    1
   187   179   178    1
   188    34    35   ar
   189    34    33    1
   190    37    35   ar
   191   178   175    1
   192    40    41    1
   193    40    31   am
   194   167   164    1
   195    41    42    1
   196   163   164    1
   197    33    30    1
   198    43    42    2
   199   193   184   am
   200   185   184    2
   201    30    31    1
   202    30    29    1
   203   164   165    1
   204    19    18    1
   205    31    32    2
   206   166   165    2
   207   184   183    1
   208   175   176    1
   209   175   174    1
   210   177   176    2
   211    24    23    2
   212    20    18    1
   213    29    23   am
   214    18    17    1
   215    23    22    1
   216    17    14    1
   217   183   186    1
   218   183   182    1
   219    26    28    1
   220    26    25    1
   221   186   187    1
   222    16    15    2
   223    25    22    1
   224    25    27    1
   225    14    15    1
   226    14    13    1
   227    22    21    1
   228   187   188    1
   229   188   189    1
   230   189   190    2
   231   191   190    1
   232   190   192    1
