@<TRIPOS>MOLECULE
tmp/5v3wA00.pdb
 112 107 0 0 0
SMALL
GASTEIGER

@<TRIPOS>ATOM
      1  N         13.2360   30.6310   13.6930 N.3    83  SER83      -0.1217
      2  CA        11.8430   30.2680   13.4370 C.3    83  SER83       0.1889
      3  C         11.0650   30.1910   14.7620 C.2    83  SER83       0.2288
      4  O         11.1380   31.1280   15.5570 O.2    83  SER83      -0.2866
      5  CB        11.7730   28.9620   12.6530 C.3    83  SER83       0.2089
      6  OG        10.5940   28.9200   11.8470 O.3    83  SER83      -0.2183
      7  N         10.6490   32.6020   18.7950 N.3    87  VAL87      -0.1245
      8  CA         9.4910   32.9160   19.6310 C.3    87  VAL87       0.1561
      9  C          9.6230   32.2570   21.0060 C.2    87  VAL87       0.2260
     10  O          9.2970   32.8660   22.0260 O.2    87  VAL87      -0.2867
     11  CB         8.1840   32.4570   18.9520 C.3    87  VAL87       0.0252
     12  CG1        6.9750   32.7290   19.8420 C.3    87  VAL87       0.0019
     13  CG2        8.0470   33.1520   17.5960 C.3    87  VAL87       0.0019
     14  N         12.9340   35.0680   12.9850 N.3   111  ALA111     -0.1231
     15  CA        11.6340   34.7260   13.5760 C.3   111  ALA111      0.1694
     16  C         10.6900   35.9000   13.3540 C.2   111  ALA111      0.2592
     17  O         10.3710   36.6560   14.2860 O.2   111  ALA111     -0.2718
     18  CB        11.7640   34.4000   15.0730 C.3   111  ALA111      0.0304
     19  N         10.2840   36.0640   12.0960 N.am  112  VAL112     -0.1966
     20  CA         9.5570   37.2520   11.6470 C.3   112  VAL112      0.1727
     21  C          8.0740   37.0050   11.6630 C.2   112  VAL112      0.2616
     22  O          7.6170   36.0010   11.1240 O.2   112  VAL112     -0.2715
     23  CB        10.0360   37.6480   10.2250 C.3   112  VAL112      0.0290
     24  CG1        9.1600   38.7350    9.6070 C.3   112  VAL112      0.0023
     25  CG2       11.5070   38.1290   10.3090 C.3   112  VAL112      0.0023
     26  N          7.3180   37.8950   12.3030 N.am  113  ARG113     -0.1977
     27  CA         5.8720   37.6800   12.3950 C.3   113  ARG113      0.1597
     28  C          5.1980   37.8340   11.0540 C.2   113  ARG113      0.2287
     29  O          5.6710   38.5590   10.1820 O.2   113  ARG113     -0.2864
     30  CB         5.2340   38.6690   13.3690 C.3   113  ARG113      0.0334
     31  CG         5.8590   38.6830   14.7510 C.3   113  ARG113      0.0492
     32  CD         5.8000   37.3100   15.4110 C.3   113  ARG113      0.2205
     33  NE         4.4450   36.7510   15.3960 N.pl3 113  ARG113     -0.0865
     34  CZ         3.4920   37.0730   16.2650 C.cat 113  ARG113      0.5346
     35  NH1        3.7240   37.9740   17.2140 N.pl3 113  ARG113      0.1354
     36  NH2        2.2850   36.5060   16.1690 N.pl3 113  ARG113      0.1354
     37  N          3.9680   25.3170   14.5940 N.3   190  ASN190     -0.1240
     38  CA         3.9370   26.5480   13.8090 C.3   190  ASN190      0.1653
     39  C          2.6760   27.3670   14.0960 C.2   190  ASN190      0.2266
     40  O          2.7170   28.6000   14.1520 O.2   190  ASN190     -0.2867
     41  CB         4.0570   26.1940   12.3150 C.3   190  ASN190      0.1155
     42  CG         5.5110   25.9040   11.9080 C.2   190  ASN190      0.2627
     43  OD1        6.4310   26.5780   12.3800 O.2   190  ASN190     -0.2716
     44  ND2        5.7190   24.8770   11.0830 N.am  190  ASN190     -0.0877
     45  N          2.4090   29.8910   17.3660 N.3   193  ILE193     -0.1245
     46  CA         2.8460   31.2670   17.2600 C.3   193  ILE193      0.1561
     47  C          1.6370   32.2190   17.1440 C.2   193  ILE193      0.2260
     48  O          1.6040   33.2950   17.7480 O.2   193  ILE193     -0.2867
     49  CB         3.7740   31.4050   16.0360 C.3   193  ILE193      0.0252
     50  CG1        4.9930   30.4850   16.2580 C.3   193  ILE193      0.0019
     51  CG2        4.1390   32.8660   15.8200 C.3   193  ILE193      0.0019
     52  CD1        5.8940   30.2220   15.0500 C.3   193  ILE193      0.0001
     53  N         10.0750   34.8980    3.4610 N.3   213  TYR213     -0.1227
     54  CA         9.7400   33.5170    3.7390 C.3   213  TYR213      0.1736
     55  C          9.7940   32.6940    2.4600 C.2   213  TYR213      0.2595
     56  O          9.5180   33.1810    1.3440 O.2   213  TYR213     -0.2718
     57  CB         8.3620   33.4060    4.3900 C.3   213  TYR213      0.0548
     58  CG         8.4620   33.5920    5.8850 C.ar  213  TYR213     -0.0200
     59  CD1        8.9850   32.5800    6.6890 C.ar  213  TYR213     -0.0009
     60  CD2        8.0620   34.7780    6.4840 C.ar  213  TYR213     -0.0009
     61  CE1        9.1120   32.7460    8.0710 C.ar  213  TYR213      0.0417
     62  CE2        8.1740   34.9500    7.8740 C.ar  213  TYR213      0.0417
     63  CZ         8.7100   33.9370    8.6410 C.ar  213  TYR213      0.1957
     64  OH         8.8380   34.0860   10.0120 O.3   213  TYR213     -0.2866
     65  N         10.1690   31.4340    2.6350 N.am  214  HIS214     -0.1975
     66  CA        10.1640   30.4660    1.5570 C.3   214  HIS214      0.1656
     67  C          8.7390   30.0310    1.1960 C.2   214  HIS214      0.2291
     68  O          7.8010   30.2570    1.9650 O.2   214  HIS214     -0.2864
     69  CB        11.0370   29.2650    1.9450 C.3   214  HIS214      0.0771
     70  CG        10.6100   28.5650    3.1930 C.ar  214  HIS214      0.0820
     71  ND1       10.4620   29.2090    4.4060 N.ar  214  HIS214     -0.2267
     72  CD2       10.2920   27.2670    3.4160 C.ar  214  HIS214      0.1154
     73  CE1       10.0910   28.3350    5.3250 C.ar  214  HIS214      0.1986
     74  NE2        9.9800   27.1470    4.7500 N.ar  214  HIS214     -0.2212
     75  N          6.3250   28.1550    3.6270 N.3   217  ALA217     -0.1245
     76  CA         5.7810   28.9680    4.7340 C.3   217  ALA217      0.1562
     77  C          4.5370   29.7290    4.2770 C.2   217  ALA217      0.2260
     78  O          3.5600   29.8860    5.0210 O.2   217  ALA217     -0.2867
     79  CB         6.8300   29.9440    5.2560 C.3   217  ALA217      0.0290
     80  N          1.6590   27.4050    3.9140 N.3   220  PHE220     -0.1241
     81  CA         1.1270   27.1670    5.2620 C.3   220  PHE220      0.1605
     82  C          0.2260   28.3180    5.7030 C.2   220  PHE220      0.2264
     83  O         -0.9110   28.1110    6.1500 O.2   220  PHE220     -0.2867
     84  CB         2.2870   26.9410    6.2460 C.3   220  PHE220      0.0534
     85  CG         1.9230   27.1210    7.7060 C.ar  220  PHE220     -0.0203
     86  CD1        1.1940   26.1510    8.3880 C.ar  220  PHE220     -0.0042
     87  CD2        2.3590   28.2510    8.4030 C.ar  220  PHE220     -0.0042
     88  CE1        0.8740   26.3110    9.7450 C.ar  220  PHE220     -0.0003
     89  CE2        2.0370   28.4260    9.7510 C.ar  220  PHE220     -0.0003
     90  CZ         1.3060   27.4490   10.4270 C.ar  220  PHE220     -0.0000
     91  N          2.3620   35.2490    5.6670 N.3   224  TYR224     -0.1241
     92  CA         3.8190   35.3020    5.7540 C.3   224  TYR224      0.1605
     93  C          4.4770   35.8460    4.4640 C.2   224  TYR224      0.2264
     94  O          5.7000   36.0020    4.4010 O.2   224  TYR224     -0.2867
     95  CB         4.3880   33.9150    6.1050 C.3   224  TYR224      0.0534
     96  CG         4.2630   33.5920    7.5760 C.ar  224  TYR224     -0.0201
     97  CD1        4.9160   34.3570    8.5280 C.ar  224  TYR224     -0.0009
     98  CD2        3.4740   32.5200    8.0190 C.ar  224  TYR224     -0.0009
     99  CE1        4.8030   34.0610    9.8980 C.ar  224  TYR224      0.0417
    100  CE2        3.3610   32.2220    9.3760 C.ar  224  TYR224      0.0417
    101  CZ         4.0200   32.9970   10.3090 C.ar  224  TYR224      0.1957
    102  OH         3.9070   32.6960   11.6590 O.3   224  TYR224     -0.2866
    103  N         13.9500   32.3390    4.5400 N.3   249  HIS249     -0.1241
    104  CA        13.8500   31.8440    5.9130 C.3   249  HIS249      0.1621
    105  C         14.5460   30.5070    6.1480 C.2   249  HIS249      0.2264
    106  O         15.2820   30.3240    7.1110 O.2   249  HIS249     -0.2867
    107  CB        12.3730   31.7050    6.2790 C.3   249  HIS249      0.0745
    108  CG        12.1420   31.2590    7.6910 C.ar  249  HIS249      0.0817
    109  ND1       12.3150   32.0930    8.7730 N.ar  249  HIS249     -0.2268
    110  CD2       11.6810   30.0860    8.1880 C.ar  249  HIS249      0.1154
    111  CE1       11.9770   31.4540    9.8810 C.ar  249  HIS249      0.1986
    112  NE2       11.5940   30.2300    9.5550 N.ar  249  HIS249     -0.2212
@<TRIPOS>BOND
     1    67    66    1
     2    67    68    2
     3    56    55    2
     4    66    69    1
     5    66    65    1
     6    69    70    1
     7    55    65   am
     8    55    54    1
     9    70    72   ar
    10    70    71   ar
    11    72    74   ar
    12    53    54    1
    13    75    76    1
    14    54    57    1
    15    80    81    1
    16    77    76    1
    17    77    78    2
    18    57    58    1
    19    94    93    2
    20    71    73   ar
    21    93    92    1
    22   103   104    1
    23    76    79    1
    24    74    73   ar
    25    81    82    1
    26    81    84    1
    27    91    92    1
    28    82    83    2
    29    92    95    1
    30    58    60   ar
    31    58    59   ar
    32   104   105    1
    33   104   107    1
    34    95    96    1
    35   105   106    2
    36    84    85    1
    37   107   108    1
    38    60    62   ar
    39    59    61   ar
    40    96    98   ar
    41    96    97   ar
    42   108   110   ar
    43   108   109   ar
    44    85    86   ar
    45    85    87   ar
    46    62    63   ar
    47    98   100   ar
    48    61    63   ar
    49   110   112   ar
    50    86    88   ar
    51    87    89   ar
    52    97    99   ar
    53    63    64    1
    54   109   111   ar
    55   100   101   ar
    56   112   111   ar
    57    24    23    1
    58    88    90   ar
    59    89    90   ar
    60    99   101   ar
    61    29    28    2
    62    23    25    1
    63    23    20    1
    64   101   102    1
    65    28    27    1
    66    44    42   am
    67    22    21    2
    68    20    21    1
    69    20    19    1
    70    21    26   am
    71     6     5    1
    72    42    41    1
    73    42    43    2
    74    19    16   am
    75    26    27    1
    76    41    38    1
    77    27    30    1
    78     5     2    1
    79    14    15    1
    80    16    15    1
    81    16    17    2
    82    30    31    1
    83     2     1    1
    84     2     3    1
    85    15    18    1
    86    38    39    1
    87    38    37    1
    88    39    40    2
    89    31    32    1
    90     3     4    2
    91    52    50    1
    92    33    32    1
    93    33    34    2
    94    51    49    1
    95    49    50    1
    96    49    46    1
    97    36    34    1
    98    34    35    1
    99    47    46    1
   100    47    48    2
   101    46    45    1
   102    13    11    1
   103     7     8    1
   104    11     8    1
   105    11    12    1
   106     8     9    1
   107     9    10    2
