@<TRIPOS>MOLECULE
tmp/5v3wB00.pdb
 147 143 0 0 0
SMALL
GASTEIGER

@<TRIPOS>ATOM
      1  N         16.8890   66.4250   -0.3320 N.3    27  ALA27      -0.1245
      2  CA        16.3570   67.1690   -1.4640 C.3    27  ALA27       0.1562
      3  C         15.4260   68.2900   -1.0000 C.2    27  ALA27       0.2260
      4  O         14.5720   68.0950   -0.1280 O.2    27  ALA27      -0.2867
      5  CB        15.6310   66.2410   -2.4070 C.3    27  ALA27       0.0290
      6  N         19.8640   62.1080    6.0490 N.3    82  TRP82      -0.1227
      7  CA        18.4680   61.7260    5.8960 C.3    82  TRP82       0.1737
      8  C         18.0620   61.8440    4.4410 C.2    82  TRP82       0.2596
      9  O         18.4630   62.7980    3.7580 O.2    82  TRP82      -0.2718
     10  CB        17.5840   62.6360    6.7590 C.3    82  TRP82       0.0564
     11  CG        16.0650   62.5990    6.5240 C.ar   82  TRP82       0.0003
     12  CD1       15.2230   61.5390    6.6760 C.ar   82  TRP82       0.0946
     13  CD2       15.2390   63.7160    6.1710 C.ar   82  TRP82       0.0152
     14  NE1       13.9200   61.9220    6.4250 N.ar   82  TRP82      -0.2442
     15  CE2       13.9080   63.2530    6.0970 C.ar   82  TRP82       0.0810
     16  CE3       15.5060   65.0630    5.8770 C.ar   82  TRP82       0.0012
     17  CZ2       12.8300   64.1010    5.7700 C.ar   82  TRP82       0.0191
     18  CZ3       14.4520   65.9000    5.5610 C.ar   82  TRP82       0.0001
     19  CH2       13.1200   65.4130    5.4970 C.ar   82  TRP82       0.0015
     20  N         17.2930   60.8700    3.9630 N.am   83  SER83      -0.1952
     21  CA        16.7140   60.9460    2.6270 C.3    83  SER83       0.1924
     22  C         17.8590   60.9910    1.6120 C.2    83  SER83       0.2314
     23  O         18.7840   60.1720    1.6940 O.2    83  SER83      -0.2863
     24  CB        15.7830   62.1750    2.5190 C.3    83  SER83       0.2116
     25  OG        14.7580   61.9940    1.5440 O.3    83  SER83      -0.2180
     26  N         22.0010   58.9290    0.8930 N.3    87  VAL87      -0.1245
     27  CA        22.6590   58.4690   -0.3140 C.3    87  VAL87       0.1561
     28  C         23.9490   59.2410   -0.5620 C.2    87  VAL87       0.2260
     29  O         24.9480   58.6450   -0.9760 O.2    87  VAL87      -0.2867
     30  CB        21.7420   58.5950   -1.5320 C.3    87  VAL87       0.0252
     31  CG1       22.4510   58.1350   -2.7820 C.3    87  VAL87       0.0019
     32  CG2       20.4600   57.7690   -1.3240 C.3    87  VAL87       0.0019
     33  N         17.0540   56.3700    4.6470 N.3   111  ALA111     -0.1231
     34  CA        17.4240   56.4880    3.2300 C.3   111  ALA111      0.1694
     35  C         17.2000   55.1330    2.5460 C.2   111  ALA111      0.2592
     36  O         18.1340   54.3870    2.2140 O.2   111  ALA111     -0.2718
     37  CB        18.8650   56.9750    3.0970 C.3   111  ALA111      0.0304
     38  N         15.9280   54.7890    2.3920 N.am  112  VAL112     -0.1966
     39  CA        15.5280   53.4610    1.9660 C.3   112  VAL112      0.1727
     40  C         15.3050   53.4620    0.4730 C.2   112  VAL112      0.2616
     41  O         14.5830   54.3020   -0.0520 O.2   112  VAL112     -0.2715
     42  CB        14.2430   53.0350    2.7200 C.3   112  VAL112      0.0290
     43  CG1       13.6620   51.7660    2.1560 C.3   112  VAL112      0.0023
     44  CG2       14.5790   52.8730    4.1950 C.3   112  VAL112      0.0023
     45  N         15.9700   52.5600   -0.2310 N.am  113  ARG113     -0.1977
     46  CA        15.8420   52.5050   -1.6780 C.3   113  ARG113      0.1597
     47  C         14.4490   52.0640   -2.0830 C.2   113  ARG113      0.2287
     48  O         13.7600   51.3310   -1.3560 O.2   113  ARG113     -0.2864
     49  CB        16.8800   51.5370   -2.2830 C.3   113  ARG113      0.0334
     50  CG        18.3320   51.8870   -1.9010 C.3   113  ARG113      0.0492
     51  CD        18.7150   53.2940   -2.3680 C.3   113  ARG113      0.2205
     52  NE        18.4190   53.5110   -3.7870 N.pl3 113  ARG113     -0.0865
     53  CZ        19.1840   53.1050   -4.7970 C.cat 113  ARG113      0.5346
     54  NH1       20.2980   52.4180   -4.5650 N.pl3 113  ARG113      0.1354
     55  NH2       18.8160   53.3640   -6.0500 N.pl3 113  ARG113      0.1354
     56  N         16.1500   64.2970   -6.1310 N.3   184  ASN184     -0.1240
     57  CA        15.5990   62.9900   -5.8100 C.3   184  ASN184      0.1653
     58  C         15.7300   61.9940   -6.9490 C.2   184  ASN184      0.2266
     59  O         15.9630   60.8060   -6.7090 O.2   184  ASN184     -0.2867
     60  CB        14.1450   63.1150   -5.3660 C.3   184  ASN184      0.1155
     61  CG        14.0410   63.5760   -3.9230 C.2   184  ASN184      0.2627
     62  OD1       14.8800   63.2130   -3.0960 O.2   184  ASN184     -0.2716
     63  ND2       13.0160   64.3550   -3.6120 N.am  184  ASN184     -0.0877
     64  N         19.0410   59.8910   -7.5290 N.3   187  ILE187     -0.1245
     65  CA        19.1770   58.6510   -6.7810 C.3   187  ILE187      0.1561
     66  C         18.9880   57.4170   -7.6800 C.2   187  ILE187      0.2260
     67  O         19.6840   56.4060   -7.5320 O.2   187  ILE187     -0.2867
     68  CB        18.1730   58.6320   -5.5850 C.3   187  ILE187      0.0252
     69  CG1       18.5130   59.7850   -4.6220 C.3   187  ILE187      0.0019
     70  CG2       18.1910   57.2900   -4.8670 C.3   187  ILE187      0.0019
     71  CD1       17.4480   60.0330   -3.5230 C.3   187  ILE187      0.0001
     72  N          7.2950   55.1340    3.4890 N.3   207  TYR207     -0.1227
     73  CA         7.3690   56.4660    2.8870 C.3   207  TYR207      0.1736
     74  C          6.0470   57.1930    3.0310 C.2   207  TYR207      0.2595
     75  O          4.9630   56.5890    3.0280 O.2   207  TYR207     -0.2718
     76  CB         7.7730   56.3900    1.4030 C.3   207  TYR207      0.0548
     77  CG         9.2680   56.3620    1.2830 C.ar  207  TYR207     -0.0200
     78  CD1       10.0190   57.5190    1.5020 C.ar  207  TYR207     -0.0009
     79  CD2        9.9460   55.1770    1.0140 C.ar  207  TYR207     -0.0009
     80  CE1       11.3960   57.5060    1.4320 C.ar  207  TYR207      0.0417
     81  CE2       11.3300   55.1500    0.9530 C.ar  207  TYR207      0.0417
     82  CZ        12.0510   56.3210    1.1620 C.ar  207  TYR207      0.1957
     83  OH        13.4240   56.3190    1.1200 O.3   207  TYR207     -0.2866
     84  N          6.1380   58.5100    3.1760 N.am  208  HIS208     -0.1975
     85  CA         4.9540   59.3450    3.1810 C.3   208  HIS208      0.1656
     86  C          4.3610   59.4680    1.7760 C.2   208  HIS208      0.2291
     87  O          5.0230   59.1440    0.7910 O.2   208  HIS208     -0.2864
     88  CB         5.2860   60.7210    3.7520 C.3   208  HIS208      0.0771
     89  CG         6.3530   61.4550    2.9960 C.ar  208  HIS208      0.0820
     90  ND1        7.6020   60.9250    2.7600 N.ar  208  HIS208     -0.2267
     91  CD2        6.3520   62.6890    2.4330 C.ar  208  HIS208      0.1154
     92  CE1        8.3240   61.7960    2.0730 C.ar  208  HIS208      0.1986
     93  NE2        7.5890   62.8750    1.8640 N.ar  208  HIS208     -0.2212
     94  N          3.6420   61.8580   -0.3590 N.3   210  ASP210     -0.1225
     95  CA         4.2780   62.6480   -1.4000 C.3   210  ASP210      0.1805
     96  C          5.4530   61.8860   -2.0300 C.2   210  ASP210      0.2597
     97  O          5.7020   62.0220   -3.2180 O.2   210  ASP210     -0.2718
     98  CB         4.7290   64.0050   -0.8540 C.3   210  ASP210      0.1424
     99  CG         3.5660   64.9660   -0.6550 C.2   210  ASP210      0.3668
    100  OD1        2.4440   64.6700   -1.1150 O.co2 210  ASP210     -0.2456
    101  OD2        3.7790   66.0210   -0.0270 O.co2 210  ASP210     -0.2456
    102  N          6.1550   61.0640   -1.2540 N.am  211  ALA211     -0.1979
    103  CA         7.2470   60.2700   -1.8120 C.3   211  ALA211      0.1597
    104  C          6.7060   59.2370   -2.8050 C.2   211  ALA211      0.2287
    105  O          7.2940   58.9840   -3.8670 O.2   211  ALA211     -0.2864
    106  CB         8.0240   59.5810   -0.6980 C.3   211  ALA211      0.0319
    107  N          5.6760   60.8840   -6.0120 N.3   214  PHE214     -0.1241
    108  CA         6.9040   61.1410   -6.7780 C.3   214  PHE214      0.1605
    109  C          7.3550   59.8780   -7.5060 C.2   214  PHE214      0.2264
    110  O          7.5950   59.8880   -8.7190 O.2   214  PHE214     -0.2867
    111  CB         8.0140   61.6590   -5.8520 C.3   214  PHE214      0.0534
    112  CG         9.3970   61.5220   -6.4230 C.ar  214  PHE214     -0.0203
    113  CD1        9.8510   62.3920   -7.4000 C.ar  214  PHE214     -0.0042
    114  CD2       10.2630   60.5320   -5.9500 C.ar  214  PHE214     -0.0042
    115  CE1       11.1380   62.2740   -7.9360 C.ar  214  PHE214     -0.0003
    116  CE2       11.5430   60.4070   -6.4770 C.ar  214  PHE214     -0.0003
    117  CZ        11.9770   61.2810   -7.4660 C.ar  214  PHE214     -0.0000
    118  N          8.4630   53.4700   -4.2650 N.3   218  TYR218     -0.1241
    119  CA         8.7840   53.6960   -2.8640 C.3   218  TYR218      0.1605
    120  C          7.6570   53.1950   -1.9490 C.2   218  TYR218      0.2264
    121  O          7.7910   53.2190   -0.7240 O.2   218  TYR218     -0.2867
    122  CB         9.0750   55.1960   -2.6060 C.3   218  TYR218      0.0534
    123  CG        10.4450   55.6230   -3.0590 C.ar  218  TYR218     -0.0201
    124  CD1       11.6030   55.1040   -2.4590 C.ar  218  TYR218     -0.0009
    125  CD2       10.6040   56.5540   -4.0860 C.ar  218  TYR218     -0.0009
    126  CE1       12.8710   55.5220   -2.8730 C.ar  218  TYR218      0.0417
    127  CE2       11.8650   56.9530   -4.5150 C.ar  218  TYR218      0.0417
    128  CZ        12.9890   56.4370   -3.9020 C.ar  218  TYR218      0.1957
    129  OH        14.2290   56.8360   -4.3250 O.3   218  TYR218     -0.2866
    130  N          8.6770   58.4520    6.6270 N.3   243  HIS243     -0.1226
    131  CA         9.9440   59.0540    6.2060 C.3   243  HIS243      0.1752
    132  C         10.0980   60.5050    6.6300 C.2   243  HIS243      0.2595
    133  O         11.1640   60.9200    7.0800 O.2   243  HIS243     -0.2718
    134  CB        10.0570   58.9770    4.6820 C.3   243  HIS243      0.0759
    135  CG        11.3550   59.4890    4.1260 C.ar  243  HIS243      0.0818
    136  ND1       12.5320   58.7710    4.2080 N.ar  243  HIS243     -0.2268
    137  CD2       11.6420   60.5930    3.3960 C.ar  243  HIS243      0.1154
    138  CE1       13.4970   59.4400    3.5980 C.ar  243  HIS243      0.1986
    139  NE2       12.9850   60.5480    3.0900 N.ar  243  HIS243     -0.2212
    140  N          9.0440   61.2920    6.4410 N.am  244  ILE244     -0.1980
    141  CA         9.1510   62.7290    6.6360 C.3   244  ILE244      0.1595
    142  C          9.3310   63.0810    8.1110 C.2   244  ILE244      0.2287
    143  O          9.8750   64.1390    8.4490 O.2   244  ILE244     -0.2864
    144  CB         7.9140   63.4390    6.0310 C.3   244  ILE244      0.0276
    145  CG1        8.0910   64.9500    6.0690 C.3   244  ILE244      0.0022
    146  CG2        6.6030   62.9940    6.7270 C.3   244  ILE244      0.0022
    147  CD1        9.0730   65.4300    5.0330 C.3   244  ILE244      0.0001
@<TRIPOS>BOND
     1   110   109    2
     2   115   117   ar
     3   115   113   ar
     4    66    67    2
     5    66    65    1
     6    64    65    1
     7   109   108    1
     8   117   116   ar
     9   113   112   ar
    10    58    59    2
    11    58    57    1
    12    65    68    1
    13   108   107    1
    14   108   111    1
    15   116   114   ar
    16   112   114   ar
    17   112   111    1
    18    56    57    1
    19    55    53    1
    20    57    60    1
    21    68    70    1
    22    68    69    1
    23    60    61    1
    24    53    54    1
    25    53    52    2
    26    69    71    1
    27   127   125   ar
    28   127   128   ar
    29   129   128    1
    30   118   119    1
    31   125   123   ar
    32    61    63   am
    33    61    62    2
    34   128   126   ar
    35   105   104    2
    36    52    51    1
    37    97    96    2
    38   123   122    1
    39   123   124   ar
    40   126   124   ar
    41   119   122    1
    42   119   120    1
    43   104   103    1
    44    31    30    1
    45     5     2    1
    46    51    50    1
    47    49    50    1
    48    49    46    1
    49    47    46    1
    50    47    48    2
    51    96    95    1
    52    96   102   am
    53   120   121    2
    54   103   102    1
    55   103   106    1
    56    46    45    1
    57    30    32    1
    58    30    27    1
    59     2     3    1
    60     2     1    1
    61    95    98    1
    62    95    94    1
    63   100    99   ar
    64     3     4    2
    65    29    28    2
    66    98    99    1
    67    99   101   ar
    68    28    27    1
    69    27    26    1
    70    45    40   am
    71    41    40    2
    72    40    39    1
    73    87    86    2
    74    81    79   ar
    75    81    82   ar
    76    79    77   ar
    77    83    82    1
    78    82    80   ar
    79    77    76    1
    80    77    78   ar
    81    76    73    1
    82    80    78   ar
    83    25    24    1
    84    22    23    2
    85    22    21    1
    86    86    85    1
    87    93    92   ar
    88    93    91   ar
    89    39    38    1
    90    39    42    1
    91    92    90   ar
    92    43    42    1
    93    36    35    2
    94    38    35   am
    95    91    89   ar
    96    24    21    1
    97    35    34    1
    98    21    20    1
    99    42    44    1
   100    90    89   ar
   101    73    74    1
   102    73    72    1
   103    89    88    1
   104    75    74    2
   105    74    84   am
   106   139   137   ar
   107   139   138   ar
   108    37    34    1
   109    84    85    1
   110    85    88    1
   111    34    33    1
   112   137   135   ar
   113   138   136   ar
   114     9     8    2
   115    20     8   am
   116   135   136   ar
   117   135   134    1
   118     8     7    1
   119   134   131    1
   120   147   145    1
   121    19    18   ar
   122    19    17   ar
   123    18    16   ar
   124    17    15   ar
   125    16    13   ar
   126     7     6    1
   127     7    10    1
   128   144   145    1
   129   144   141    1
   130   144   146    1
   131    15    13   ar
   132    15    14   ar
   133    13    11   ar
   134   131   130    1
   135   131   132    1
   136    14    12   ar
   137   140   132   am
   138   140   141    1
   139    11    12   ar
   140    11    10    1
   141   132   133    2
   142   141   142    1
   143   142   143    2
