@<TRIPOS>MOLECULE
tmp/5v3xB00.pdb
 175 170 0 0 0
SMALL
GASTEIGER

@<TRIPOS>ATOM
      1  N         16.7350   63.0870    3.7890 N.3    82  SER82      -0.1217
      2  CA        16.2930   63.2580    2.4020 C.3    82  SER82       0.1889
      3  C         17.4870   63.3650    1.4410 C.2    82  SER82       0.2288
      4  O         18.4040   62.5350    1.5090 O.2    82  SER82      -0.2866
      5  CB        15.3730   64.4840    2.3020 C.3    82  SER82       0.2089
      6  OG        15.2250   64.9330    0.9630 O.3    82  SER82      -0.2183
      7  N         15.6470   56.8030    1.9370 N.3   111  VAL111     -0.1245
      8  CA        15.3140   55.4570    1.5130 C.3   111  VAL111      0.1561
      9  C         15.0630   55.4260    0.0010 C.2   111  VAL111      0.2260
     10  O         14.3010   56.2400   -0.5310 O.2   111  VAL111     -0.2867
     11  CB        14.0940   54.9520    2.3200 C.3   111  VAL111      0.0252
     12  CG1       13.4950   53.6890    1.7250 C.3   111  VAL111      0.0019
     13  CG2       14.5100   54.7480    3.8000 C.3   111  VAL111      0.0019
     14  N          1.8740   64.8000  -12.0790 N.3   131  TYR131     -0.1241
     15  CA         2.0520   66.1240  -11.4890 C.3   131  TYR131      0.1605
     16  C          0.8460   66.9860  -11.7830 C.2   131  TYR131      0.2264
     17  O          0.3610   67.7140  -10.9180 O.2   131  TYR131     -0.2867
     18  CB         3.2980   66.8140  -12.0370 C.3   131  TYR131      0.0534
     19  CG         4.5820   66.0750  -11.8030 C.ar  131  TYR131     -0.0201
     20  CD1        4.6640   65.0470  -10.8720 C.ar  131  TYR131     -0.0009
     21  CD2        5.7210   66.4040  -12.5200 C.ar  131  TYR131     -0.0009
     22  CE1        5.8470   64.3660  -10.6660 C.ar  131  TYR131      0.0417
     23  CE2        6.9040   65.7350  -12.3210 C.ar  131  TYR131      0.0417
     24  CZ         6.9690   64.7270  -11.3840 C.ar  131  TYR131      0.1957
     25  OH         8.1600   64.0640  -11.1910 O.3   131  TYR131     -0.2866
     26  N         -2.1530   66.0700   -9.6280 N.3   134  PHE134     -0.1241
     27  CA        -1.9440   66.5140   -8.2490 C.3   134  PHE134      0.1605
     28  C         -2.2010   68.0120   -8.0760 C.2   134  PHE134      0.2264
     29  O         -2.8810   68.4210   -7.1340 O.2   134  PHE134     -0.2867
     30  CB        -0.5160   66.1870   -7.7890 C.3   134  PHE134      0.0534
     31  CG        -0.2170   66.6600   -6.3940 C.ar  134  PHE134     -0.0203
     32  CD1       -0.8310   66.1150   -5.3000 C.ar  134  PHE134     -0.0042
     33  CD2        0.6050   67.7160   -6.2120 C.ar  134  PHE134     -0.0042
     34  CE1       -0.5480   66.6600   -4.0000 C.ar  134  PHE134     -0.0003
     35  CE2        0.9130   68.2210   -4.9190 C.ar  134  PHE134     -0.0003
     36  CZ         0.3400   67.6580   -3.8370 C.ar  134  PHE134     -0.0000
     37  N          9.8970   76.1260   -6.1470 N.3   178  GLN178     -0.1245
     38  CA         9.3170   74.8630   -6.5780 C.3   178  GLN178      0.1566
     39  C         10.1770   74.2060   -7.6450 C.2   178  GLN178      0.2260
     40  O         10.3250   72.9830   -7.6810 O.2   178  GLN178     -0.2867
     41  CB         7.9080   75.0780   -7.1080 C.3   178  GLN178      0.0367
     42  CG         7.0080   75.6900   -6.0760 C.3   178  GLN178      0.0905
     43  CD         6.7550   74.7490   -4.9230 C.2   178  GLN178      0.2608
     44  OE1        7.0050   75.0890   -3.7670 O.2   178  GLN178     -0.2717
     45  NE2        6.2830   73.5480   -5.2300 N.am  178  GLN178     -0.0878
     46  N         13.1900   72.6250   -5.9750 N.3   181  SER181     -0.1202
     47  CA        12.7280   71.5160   -5.1400 C.3   181  SER181      0.2020
     48  C         12.4350   70.2860   -6.0290 C.2   181  SER181      0.2618
     49  O         12.8290   69.1700   -5.7080 O.2   181  SER181     -0.2717
     50  CB        11.4820   71.8920   -4.3310 C.3   181  SER181      0.2103
     51  OG        11.7430   72.9190   -3.3810 O.3   181  SER181     -0.2182
     52  N         11.7570   70.5140   -7.1460 N.am  182  TYR182     -0.1975
     53  CA        11.5280   69.4660   -8.1280 C.3   182  TYR182      0.1639
     54  C         12.8390   68.8470   -8.6250 C.2   182  TYR182      0.2290
     55  O         12.9940   67.6230   -8.6290 O.2   182  TYR182     -0.2864
     56  CB        10.7380   70.0090   -9.3220 C.3   182  TYR182      0.0560
     57  CG        10.6790   69.0250  -10.4680 C.ar  182  TYR182     -0.0198
     58  CD1        9.8060   67.9450  -10.4380 C.ar  182  TYR182     -0.0009
     59  CD2       11.5070   69.1680  -11.5730 C.ar  182  TYR182     -0.0009
     60  CE1        9.7600   67.0330  -11.4790 C.ar  182  TYR182      0.0417
     61  CE2       11.4680   68.2600  -12.6200 C.ar  182  TYR182      0.0417
     62  CZ        10.5900   67.2000  -12.5700 C.ar  182  TYR182      0.1957
     63  OH        10.5450   66.2950  -13.6100 O.3   182  TYR182     -0.2866
     64  N         14.6470   66.7800   -5.9960 N.3   185  ASN185     -0.1225
     65  CA        13.9760   65.4800   -5.8800 C.3   185  ASN185      0.1785
     66  C         14.3230   64.5310   -7.0280 C.2   185  ASN185      0.2597
     67  O         14.5950   63.3590   -6.8130 O.2   185  ASN185     -0.2718
     68  CB        12.4700   65.6680   -5.8340 C.3   185  ASN185      0.1169
     69  CG        11.9590   65.9000   -4.4320 C.2   185  ASN185      0.2627
     70  OD1       11.5760   64.9610   -3.7410 O.2   185  ASN185     -0.2716
     71  ND2       11.9430   67.1550   -4.0060 N.am  185  ASN185     -0.0877
     72  N         14.3380   65.0460   -8.2520 N.am  186  ARG186     -0.1979
     73  CA        14.7180   64.2210   -9.3990 C.3   186  ARG186      0.1597
     74  C         16.1560   63.7360   -9.2810 C.2   186  ARG186      0.2287
     75  O         16.4620   62.6390   -9.7180 O.2   186  ARG186     -0.2864
     76  CB        14.5160   64.9970  -10.7110 C.3   186  ARG186      0.0334
     77  CG        13.0560   65.1650  -11.1010 C.3   186  ARG186      0.0492
     78  CD        12.4410   63.8670  -11.6180 C.3   186  ARG186      0.2205
     79  NE        13.1230   63.3480  -12.8040 N.pl3 186  ARG186     -0.0865
     80  CZ        13.3280   62.0560  -13.0610 C.cat 186  ARG186      0.5346
     81  NH1       12.9070   61.1220  -12.2180 N.pl3 186  ARG186      0.1354
     82  NH2       13.9560   61.6950  -14.1690 N.pl3 186  ARG186      0.1354
     83  N         17.5940   62.7630   -6.6280 N.3   188  ILE188     -0.1231
     84  CA        17.5050   61.5500   -5.8320 C.3   188  ILE188      0.1692
     85  C         17.0710   60.3810   -6.7180 C.2   188  ILE188      0.2592
     86  O         17.6030   59.2720   -6.5990 O.2   188  ILE188     -0.2718
     87  CB        16.5150   61.7140   -4.6630 C.3   188  ILE188      0.0266
     88  CG1       16.9830   62.8220   -3.7120 C.3   188  ILE188      0.0019
     89  CG2       16.3390   60.3960   -3.9050 C.3   188  ILE188      0.0020
     90  CD1       15.9190   63.2370   -2.7010 C.3   188  ILE188      0.0001
     91  N         16.0940   60.6340   -7.5890 N.am  189  ASP189     -0.1974
     92  CA        15.5560   59.5930   -8.4650 C.3   189  ASP189      0.1709
     93  C         16.6140   59.0130   -9.3910 C.2   189  ASP189      0.2293
     94  O         16.6660   57.7900   -9.5930 O.2   189  ASP189     -0.2864
     95  CB        14.3830   60.1210   -9.3030 C.3   189  ASP189      0.1436
     96  CG        13.0980   60.3240   -8.4860 C.2   189  ASP189      0.3671
     97  OD1       13.0950   60.0360   -7.2690 O.co2 189  ASP189     -0.2456
     98  OD2       12.0730   60.7380   -9.0820 O.co2 189  ASP189     -0.2456
     99  N          7.1470   56.5710    3.3110 N.3   208  TYR208     -0.1227
    100  CA         7.0890   57.9250    2.7610 C.3   208  TYR208      0.1736
    101  C          5.6970   58.5090    2.9480 C.2   208  TYR208      0.2595
    102  O          4.7130   57.7680    3.0130 O.2   208  TYR208     -0.2718
    103  CB         7.4790   57.9190    1.2830 C.3   208  TYR208      0.0548
    104  CG         8.9800   57.9970    1.0990 C.ar  208  TYR208     -0.0200
    105  CD1        9.6750   59.1460    1.4440 C.ar  208  TYR208     -0.0009
    106  CD2        9.7020   56.9140    0.6310 C.ar  208  TYR208     -0.0009
    107  CE1       11.0610   59.2250    1.3010 C.ar  208  TYR208      0.0417
    108  CE2       11.0780   56.9800    0.4890 C.ar  208  TYR208      0.0417
    109  CZ        11.7490   58.1330    0.8210 C.ar  208  TYR208      0.1957
    110  OH        13.1140   58.1980    0.6670 O.3   208  TYR208     -0.2866
    111  N          5.6230   59.8350    3.0620 N.am  209  HIS209     -0.1975
    112  CA         4.3390   60.5330    3.2200 C.3   209  HIS209      0.1656
    113  C          3.5920   60.4940    1.8970 C.2   209  HIS209      0.2291
    114  O          4.2160   60.3110    0.8530 O.2   209  HIS209     -0.2864
    115  CB         4.5290   61.9840    3.6780 C.3   209  HIS209      0.0771
    116  CG         5.5170   62.7680    2.8630 C.ar  209  HIS209      0.0820
    117  ND1        6.8320   62.3780    2.6980 N.ar  209  HIS209     -0.2267
    118  CD2        5.3860   63.9430    2.2000 C.ar  209  HIS209      0.1154
    119  CE1        7.4620   63.2730    1.9560 C.ar  209  HIS209      0.1986
    120  NE2        6.6110   64.2340    1.6430 N.ar  209  HIS209     -0.2212
    121  N          2.1770   62.5620   -0.2280 N.3   211  ASP211     -0.1225
    122  CA         2.5550   63.4500   -1.3280 C.3   211  ASP211      0.1805
    123  C          3.7730   62.9540   -2.0980 C.2   211  ASP211      0.2597
    124  O          3.8420   63.1000   -3.3200 O.2   211  ASP211     -0.2718
    125  CB         2.8430   64.8630   -0.8150 C.3   211  ASP211      0.1424
    126  CG         1.5900   65.6070   -0.3870 C.2   211  ASP211      0.3668
    127  OD1        0.4770   65.1350   -0.6960 O.co2 211  ASP211     -0.2456
    128  OD2        1.7230   66.6900    0.2270 O.co2 211  ASP211     -0.2456
    129  N          4.7190   62.3530   -1.3860 N.am  212  ALA212     -0.1979
    130  CA         5.9180   61.8050   -2.0170 C.3   212  ALA212      0.1597
    131  C          5.5300   60.6740   -2.9570 C.2   212  ALA212      0.2287
    132  O          6.0150   60.5870   -4.0820 O.2   212  ALA212     -0.2864
    133  CB         6.9020   61.2910   -0.9460 C.3   212  ALA212      0.0319
    134  N          3.6270   61.5530   -6.0740 N.3   215  PHE215     -0.1227
    135  CA         4.6160   62.0170   -7.0400 C.3   215  PHE215      0.1736
    136  C          5.3990   60.8930   -7.7190 C.2   215  PHE215      0.2595
    137  O          5.6390   60.9500   -8.9290 O.2   215  PHE215     -0.2718
    138  CB         5.5810   62.9810   -6.3600 C.3   215  PHE215      0.0547
    139  CG         5.2130   64.4110   -6.5590 C.ar  215  PHE215     -0.0202
    140  CD1        4.1640   64.9820   -5.8490 C.ar  215  PHE215     -0.0042
    141  CD2        5.8950   65.1840   -7.4860 C.ar  215  PHE215     -0.0042
    142  CE1        3.8080   66.3050   -6.0590 C.ar  215  PHE215     -0.0003
    143  CE2        5.5490   66.5040   -7.7010 C.ar  215  PHE215     -0.0003
    144  CZ         4.5090   67.0680   -6.9870 C.ar  215  PHE215     -0.0000
    145  N          5.7830   59.8750   -6.9510 N.am  216  GLU216     -0.1979
    146  CA         6.5100   58.7340   -7.5030 C.3   216  GLU216      0.1602
    147  C          6.1630   57.4790   -6.7140 C.2   216  GLU216      0.2287
    148  O          6.7170   57.2200   -5.6440 O.2   216  GLU216     -0.2864
    149  CB         8.0190   58.9780   -7.5050 C.3   216  GLU216      0.0415
    150  CG         8.8200   57.7380   -7.8950 C.3   216  GLU216      0.1163
    151  CD         8.3470   57.1320   -9.2000 C.2   216  GLU216      0.3649
    152  OE1        7.7560   56.0230   -9.1730 O.co2 216  GLU216     -0.2457
    153  OE2        8.5640   57.7660  -10.2540 O.co2 216  GLU216     -0.2457
    154  N          8.0530   54.6840   -4.5600 N.3   219  TYR219     -0.1241
    155  CA         8.4770   54.9230   -3.1780 C.3   219  TYR219      0.1605
    156  C          7.4580   54.3840   -2.1800 C.2   219  TYR219      0.2264
    157  O          7.6500   54.5040   -0.9670 O.2   219  TYR219     -0.2867
    158  CB         8.7160   56.4150   -2.9260 C.3   219  TYR219      0.0534
    159  CG        10.0070   56.9100   -3.5290 C.ar  219  TYR219     -0.0201
    160  CD1       11.2260   56.6640   -2.9090 C.ar  219  TYR219     -0.0009
    161  CD2       10.0090   57.5970   -4.7290 C.ar  219  TYR219     -0.0009
    162  CE1       12.4200   57.1050   -3.4710 C.ar  219  TYR219      0.0417
    163  CE2       11.1910   58.0420   -5.3020 C.ar  219  TYR219      0.0417
    164  CZ        12.3880   57.7960   -4.6690 C.ar  219  TYR219      0.1957
    165  OH        13.5580   58.2400   -5.2360 O.3   219  TYR219     -0.2866
    166  N          8.3360   59.7910    6.5510 N.3   244  HIS244     -0.1241
    167  CA         9.5590   60.4800    6.1170 C.3   244  HIS244      0.1621
    168  C          9.6350   61.9340    6.5590 C.2   244  HIS244      0.2264
    169  O         10.6420   62.3830    7.1080 O.2   244  HIS244     -0.2867
    170  CB         9.6530   60.4200    4.6010 C.3   244  HIS244      0.0745
    171  CG        10.8380   61.1450    4.0310 C.ar  244  HIS244      0.0817
    172  ND1       12.1230   60.6520    4.1060 N.ar  244  HIS244     -0.2268
    173  CD2       10.9170   62.3150    3.3480 C.ar  244  HIS244      0.1154
    174  CE1       12.9530   61.5030    3.5120 C.ar  244  HIS244      0.1986
    175  NE2       12.2450   62.5150    3.0480 N.ar  244  HIS244     -0.2212
@<TRIPOS>BOND
     1    82    80    1
     2    63    62    1
     3    80    79    2
     4    80    81    1
     5    79    78    1
     6    61    62   ar
     7    61    59   ar
     8    62    60   ar
     9    21    23   ar
    10    21    19   ar
    11    23    24   ar
    12    14    15    1
    13    18    19    1
    14    18    15    1
    15    19    20   ar
    16    16    15    1
    17    16    17    2
    18    78    77    1
    19    59    57   ar
    20    60    58   ar
    21    24    25    1
    22    24    22   ar
    23    77    76    1
    24    20    22   ar
    25    76    73    1
    26    57    58   ar
    27    57    56    1
    28   153   151   ar
    29    75    74    2
    30    26    27    1
    31    94    93    2
    32    73    74    1
    33    73    72    1
    34    93    92    1
    35    56    53    1
    36    95    96    1
    37    95    92    1
    38   151   152   ar
    39   151   150    1
    40    98    96   ar
    41   137   136    2
    42    55    54    2
    43    54    53    1
    44    96    97   ar
    45    92    91    1
    46    72    66   am
    47    27    28    1
    48    27    30    1
    49    53    52    1
    50    28    29    2
    51   150   149    1
    52    30    31    1
    53   136   135    1
    54   136   145   am
    55   143   141   ar
    56   143   144   ar
    57    40    39    2
    58    39    38    1
    59    91    85   am
    60   149   146    1
    61   146   145    1
    62   146   147    1
    63   141   139   ar
    64    52    48   am
    65    41    38    1
    66    41    42    1
    67   135   138    1
    68   135   134    1
    69    66    67    2
    70    66    65    1
    71   144   142   ar
    72    85    86    2
    73    85    84    1
    74   147   148    2
    75    83    84    1
    76    38    37    1
    77   139   138    1
    78   139   140   ar
    79    31    33   ar
    80    31    32   ar
    81    33    35   ar
    82    42    43    1
    83   142   140   ar
    84    48    49    2
    85    48    47    1
    86    64    65    1
    87    46    47    1
    88    65    68    1
    89    68    69    1
    90    84    87    1
    91   163   161   ar
    92   163   164   ar
    93    32    34   ar
    94   165   164    1
    95    45    43   am
    96    47    50    1
    97    43    44    2
    98    35    36   ar
    99   161   159   ar
   100   164   162   ar
   101    87    89    1
   102    87    88    1
   103   154   155    1
   104    69    71   am
   105    69    70    2
   106    50    51    1
   107   132   131    2
   108    34    36   ar
   109    88    90    1
   110   159   158    1
   111   159   160   ar
   112   162   160   ar
   113   124   123    2
   114   155   158    1
   115   155   156    1
   116   131   130    1
   117   156   157    2
   118   123   129   am
   119   123   122    1
   120   130   129    1
   121   130   133    1
   122   122   125    1
   123   122   121    1
   124   125   126    1
   125   127   126   ar
   126    10     9    2
   127   126   128   ar
   128     9     8    1
   129   108   106   ar
   130   108   109   ar
   131   106   104   ar
   132   110   109    1
   133   109   107   ar
   134   114   113    2
   135     6     5    1
   136   104   103    1
   137   104   105   ar
   138   103   100    1
   139   107   105   ar
   140     3     4    2
   141     3     2    1
   142     8     7    1
   143     8    11    1
   144   120   119   ar
   145   120   118   ar
   146    12    11    1
   147   113   112    1
   148   119   117   ar
   149   118   116   ar
   150     5     2    1
   151    11    13    1
   152     2     1    1
   153   117   116   ar
   154   100   101    1
   155   100    99    1
   156   116   115    1
   157   101   102    2
   158   101   111   am
   159   175   173   ar
   160   175   174   ar
   161   111   112    1
   162   112   115    1
   163   173   171   ar
   164   174   172   ar
   165   171   172   ar
   166   171   170    1
   167   170   167    1
   168   167   166    1
   169   167   168    1
   170   168   169    2
