@<TRIPOS>MOLECULE
tmp/5v3yA00.pdb
 172 169 0 0 0
SMALL
GASTEIGER

@<TRIPOS>ATOM
      1  N         -7.9810   29.1140    5.4090 N.3   126  ARG126     -0.1245
      2  CA        -6.7220   28.3900    5.5170 C.3   126  ARG126      0.1563
      3  C         -6.9020   26.9490    5.0640 C.2   126  ARG126      0.2260
      4  O         -6.1180   26.4450    4.2550 O.2   126  ARG126     -0.2867
      5  CB        -6.1450   28.5180    6.9360 C.3   126  ARG126      0.0307
      6  CG        -4.7920   27.8860    7.1360 C.3   126  ARG126      0.0489
      7  CD        -4.2080   28.1910    8.5280 C.3   126  ARG126      0.2205
      8  NE        -4.7960   27.4210    9.6190 N.pl3 126  ARG126     -0.0865
      9  CZ        -5.5310   27.9490   10.5930 C.cat 126  ARG126      0.5346
     10  NH1       -5.7760   29.2530   10.6110 N.pl3 126  ARG126      0.1354
     11  NH2       -6.0240   27.1770   11.5520 N.pl3 126  ARG126      0.1354
     12  N         -5.4390   24.7160    1.8220 N.3   130  TYR130     -0.1241
     13  CA        -4.7380   23.4400    1.9420 C.3   130  TYR130      0.1605
     14  C         -5.4020   22.4050    1.0540 C.2   130  TYR130      0.2264
     15  O         -4.7250   21.7060    0.3040 O.2   130  TYR130     -0.2867
     16  CB        -4.7410   22.9280    3.3810 C.3   130  TYR130      0.0534
     17  CG        -4.0080   23.7970    4.3830 C.ar  130  TYR130     -0.0201
     18  CD1       -3.1650   24.8240    3.9690 C.ar  130  TYR130     -0.0009
     19  CD2       -4.1500   23.5730    5.7490 C.ar  130  TYR130     -0.0009
     20  CE1       -2.4980   25.6080    4.8860 C.ar  130  TYR130      0.0417
     21  CE2       -3.4870   24.3520    6.6750 C.ar  130  TYR130      0.0417
     22  CZ        -2.6630   25.3680    6.2390 C.ar  130  TYR130      0.1957
     23  OH        -2.0030   26.1510    7.1630 O.3   130  TYR130     -0.2866
     24  N          7.2690   14.2200   12.1950 N.3   174  HIS174     -0.1226
     25  CA         7.9610   15.3750   11.6520 C.3   174  HIS174      0.1752
     26  C          7.0050   16.4100   11.0680 C.2   174  HIS174      0.2595
     27  O          7.1840   17.6100   11.2900 O.2   174  HIS174     -0.2718
     28  CB         9.0430   14.9740   10.6460 C.3   174  HIS174      0.0759
     29  CG         9.6870   16.1450    9.9730 C.ar  174  HIS174      0.0818
     30  ND1        9.3770   16.5320    8.6870 N.ar  174  HIS174     -0.2268
     31  CD2       10.5730   17.0590   10.4380 C.ar  174  HIS174      0.1154
     32  CE1       10.0770   17.6090    8.3740 C.ar  174  HIS174      0.1986
     33  NE2       10.8090   17.9500    9.4190 N.ar  174  HIS174     -0.2212
     34  N          5.9800   15.9430   10.3560 N.am  175  GLN175     -0.1979
     35  CA         4.9570   16.8430    9.8220 C.3   175  GLN175      0.1601
     36  C          4.1470   17.5240   10.9170 C.2   175  GLN175      0.2287
     37  O          3.8840   18.7190   10.8390 O.2   175  GLN175     -0.2864
     38  CB         4.0070   16.0900    8.8890 C.3   175  GLN175      0.0394
     39  CG         4.6660   15.5310    7.6390 C.3   175  GLN175      0.0908
     40  CD         5.3060   16.6170    6.8150 C.2   175  GLN175      0.2608
     41  OE1        6.4900   16.9120    6.9700 O.2   175  GLN175     -0.2717
     42  NE2        4.5230   17.2370    5.9430 N.am  175  GLN175     -0.0878
     43  N          6.4240   20.1600   12.7150 N.3   178  SER178     -0.1202
     44  CA         6.7040   21.2650   11.7920 C.3   178  SER178      0.2020
     45  C          5.4730   22.1500   11.6210 C.2   178  SER178      0.2618
     46  O          5.5560   23.3640   11.7010 O.2   178  SER178     -0.2717
     47  CB         7.1140   20.7380   10.4180 C.3   178  SER178      0.2103
     48  OG         8.3260   20.0180   10.4700 O.3   178  SER178     -0.2182
     49  N          4.3230   21.5330   11.3640 N.am  179  TYR179     -0.1975
     50  CA         3.1020   22.3030   11.2290 C.3   179  TYR179      0.1639
     51  C          2.8190   23.0900   12.5070 C.2   179  TYR179      0.2290
     52  O          2.5550   24.2820   12.4560 O.2   179  TYR179     -0.2864
     53  CB         1.9260   21.3910   10.9060 C.3   179  TYR179      0.0560
     54  CG         0.6090   22.1280   10.8460 C.ar  179  TYR179     -0.0198
     55  CD1        0.2570   22.8630    9.7200 C.ar  179  TYR179     -0.0009
     56  CD2       -0.2740   22.1070   11.9150 C.ar  179  TYR179     -0.0009
     57  CE1       -0.9450   23.5430    9.6580 C.ar  179  TYR179      0.0417
     58  CE2       -1.4770   22.7860   11.8600 C.ar  179  TYR179      0.0417
     59  CZ        -1.8030   23.5010   10.7310 C.ar  179  TYR179      0.1957
     60  OH        -2.9970   24.1770   10.6730 O.3   179  TYR179     -0.2866
     61  N          5.2620   25.9740   13.1080 N.3   182  ASN182     -0.1225
     62  CA         4.9560   27.0620   12.1880 C.3   182  ASN182      0.1785
     63  C          3.7060   27.8460   12.6000 C.2   182  ASN182      0.2597
     64  O          3.6820   29.0770   12.5090 O.2   182  ASN182     -0.2718
     65  CB         4.8250   26.5340   10.7570 C.3   182  ASN182      0.1169
     66  CG         6.1710   26.4520   10.0470 C.2   182  ASN182      0.2627
     67  OD1        6.6510   27.4430    9.4930 O.2   182  ASN182     -0.2716
     68  ND2        6.7830   25.2680   10.0630 N.am  182  ASN182     -0.0877
     69  N          2.6610   27.1410   13.0360 N.am  183  ARG183     -0.1979
     70  CA         1.4580   27.8240   13.5280 C.3   183  ARG183      0.1597
     71  C          1.7790   28.6640   14.7640 C.2   183  ARG183      0.2287
     72  O          1.2080   29.7390   14.9600 O.2   183  ARG183     -0.2864
     73  CB         0.3500   26.8200   13.8540 C.3   183  ARG183      0.0334
     74  CG        -0.3040   26.2070   12.6200 C.3   183  ARG183      0.0492
     75  CD        -1.1280   27.2560   11.8640 C.3   183  ARG183      0.2205
     76  NE        -2.2310   27.7700   12.6730 N.pl3 183  ARG183     -0.0865
     77  CZ        -2.6940   29.0210   12.6240 C.cat 183  ARG183      0.5346
     78  NH1       -2.1550   29.9170   11.7970 N.pl3 183  ARG183      0.1354
     79  NH2       -3.6960   29.3840   13.4110 N.pl3 183  ARG183      0.1354
     80  N          4.5040   30.2790   15.3230 N.3   185  ILE185     -0.1231
     81  CA         4.9900   31.5470   14.8070 C.3   185  ILE185      0.1692
     82  C          3.8280   32.4290   14.3860 C.2   185  ILE185      0.2592
     83  O          3.7730   33.6020   14.7570 O.2   185  ILE185     -0.2718
     84  CB         5.9260   31.3790   13.5950 C.3   185  ILE185      0.0266
     85  CG1        7.1690   30.5690   13.9690 C.3   185  ILE185      0.0019
     86  CG2        6.3620   32.7570   13.0670 C.3   185  ILE185      0.0020
     87  CD1        7.9520   30.1130   12.7650 C.3   185  ILE185      0.0001
     88  N          2.9230   31.8660   13.5870 N.am  186  ASP186     -0.1974
     89  CA         1.7360   32.5810   13.1180 C.3   186  ASP186      0.1709
     90  C          0.9110   33.2490   14.2110 C.2   186  ASP186      0.2293
     91  O          0.3930   34.3550   14.0200 O.2   186  ASP186     -0.2864
     92  CB         0.8000   31.6440   12.3570 C.3   186  ASP186      0.1436
     93  CG         1.3150   31.3030   10.9830 C.2   186  ASP186      0.3671
     94  OD1        2.4540   31.7100   10.6600 O.co2 186  ASP186     -0.2456
     95  OD2        0.5590   30.6720   10.2140 O.co2 186  ASP186     -0.2456
     96  N         11.0910   35.7600    2.6850 N.3   205  TYR205     -0.1227
     97  CA        10.7980   34.3520    2.9390 C.3   205  TYR205      0.1736
     98  C         10.9180   33.5490    1.6470 C.2   205  TYR205      0.2595
     99  O         10.7140   34.0740    0.5500 O.2   205  TYR205     -0.2718
    100  CB         9.4110   34.1730    3.5840 C.3   205  TYR205      0.0548
    101  CG         9.4310   34.3120    5.1000 C.ar  205  TYR205     -0.0200
    102  CD1        9.9870   33.3150    5.8970 C.ar  205  TYR205     -0.0009
    103  CD2        8.9380   35.4520    5.7260 C.ar  205  TYR205     -0.0009
    104  CE1       10.0270   33.4370    7.2770 C.ar  205  TYR205      0.0417
    105  CE2        8.9790   35.5890    7.1110 C.ar  205  TYR205      0.0417
    106  CZ         9.5190   34.5760    7.8770 C.ar  205  TYR205      0.1957
    107  OH         9.5620   34.6890    9.2450 O.3   205  TYR205     -0.2866
    108  N         11.2710   32.2750    1.7800 N.am  206  HIS206     -0.1975
    109  CA        11.3900   31.3840    0.6320 C.3   206  HIS206      0.1656
    110  C         10.0220   31.0500    0.0610 C.2   206  HIS206      0.2291
    111  O          9.0020   31.2490    0.7230 O.2   206  HIS206     -0.2864
    112  CB        12.1430   30.1080    1.0260 C.3   206  HIS206      0.0771
    113  CG        11.5870   29.4390    2.2440 C.ar  206  HIS206      0.0820
    114  ND1       11.5160   30.0700    3.4700 N.ar  206  HIS206     -0.2267
    115  CD2       11.0790   28.1990    2.4280 C.ar  206  HIS206      0.1154
    116  CE1       10.9800   29.2470    4.3540 C.ar  206  HIS206      0.1986
    117  NE2       10.7060   28.1050    3.7490 N.ar  206  HIS206     -0.2212
    118  N          8.2460   28.3710   -0.5800 N.3   208  ASP208     -0.1225
    119  CA         7.3710   27.4070    0.0970 C.3   208  ASP208      0.1805
    120  C          6.6310   28.0590    1.2690 C.2   208  ASP208      0.2597
    121  O          5.4720   27.7470    1.5470 O.2   208  ASP208     -0.2718
    122  CB         8.1740   26.2150    0.6240 C.3   208  ASP208      0.1424
    123  CG         8.5050   25.2050   -0.4560 C.2   208  ASP208      0.3668
    124  OD1        7.9270   25.2820   -1.5650 O.co2 208  ASP208     -0.2456
    125  OD2        9.3440   24.3190   -0.1810 O.co2 208  ASP208     -0.2456
    126  N          7.3280   28.9340    1.9830 N.am  209  ALA209     -0.1979
    127  CA         6.7210   29.6650    3.0930 C.3   209  ALA209      0.1597
    128  C          5.5450   30.5100    2.5970 C.2   209  ALA209      0.2287
    129  O          4.4540   30.5020    3.1770 O.2   209  ALA209     -0.2864
    130  CB         7.7700   30.5580    3.7580 C.3   209  ALA209      0.0319
    131  N          2.4660   28.6700    1.4020 N.3   212  PHE212     -0.1227
    132  CA         1.7050   28.2210    2.5580 C.3   212  PHE212      0.1736
    133  C          0.8660   29.3190    3.2050 C.2   212  PHE212      0.2595
    134  O         -0.2780   29.0920    3.5930 O.2   212  PHE212     -0.2718
    135  CB         2.6650   27.6640    3.6070 C.3   212  PHE212      0.0547
    136  CG         2.1290   26.4770    4.3210 C.ar  212  PHE212     -0.0202
    137  CD1        1.1770   26.6250    5.3110 C.ar  212  PHE212     -0.0042
    138  CD2        2.5560   25.2020    3.9800 C.ar  212  PHE212     -0.0042
    139  CE1        0.6670   25.5190    5.9600 C.ar  212  PHE212     -0.0003
    140  CE2        2.0480   24.0850    4.6270 C.ar  212  PHE212     -0.0003
    141  CZ         1.1080   24.2460    5.6210 C.ar  212  PHE212     -0.0000
    142  N          1.4550   30.5030    3.3380 N.am  213  GLU213     -0.1979
    143  CA         0.7800   31.6460    3.9390 C.3   213  GLU213      0.1602
    144  C          1.2610   32.9030    3.2300 C.2   213  GLU213      0.2287
    145  O          2.3360   33.4200    3.5400 O.2   213  GLU213     -0.2864
    146  CB         1.0640   31.7250    5.4480 C.3   213  GLU213      0.0415
    147  CG         0.5400   33.0110    6.1120 C.3   213  GLU213      0.1163
    148  CD        -0.9100   33.2750    5.8000 C.2   213  GLU213      0.3649
    149  OE1       -1.1950   34.1980    4.9960 O.co2 213  GLU213     -0.2457
    150  OE2       -1.7700   32.5570    6.3630 O.co2 213  GLU213     -0.2457
    151  N          3.2810   36.2740    4.3620 N.3   216  TYR216     -0.1241
    152  CA         4.7320   36.3570    4.5280 C.3   216  TYR216      0.1605
    153  C          5.4560   36.8020    3.2500 C.2   216  TYR216      0.2264
    154  O          6.6820   36.8960    3.2250 O.2   216  TYR216     -0.2867
    155  CB         5.2900   35.0170    4.9850 C.3   216  TYR216      0.0534
    156  CG         4.9330   34.6900    6.4140 C.ar  216  TYR216     -0.0201
    157  CD1        5.5900   35.3060    7.4700 C.ar  216  TYR216     -0.0009
    158  CD2        3.9260   33.7860    6.7030 C.ar  216  TYR216     -0.0009
    159  CE1        5.2700   35.0130    8.7860 C.ar  216  TYR216      0.0417
    160  CE2        3.5830   33.4880    8.0170 C.ar  216  TYR216      0.0417
    161  CZ         4.2630   34.1040    9.0500 C.ar  216  TYR216      0.1957
    162  OH         3.9360   33.8100   10.3480 O.3   216  TYR216     -0.2866
    163  N         15.0670   33.4090    3.8830 N.3   241  HIS241     -0.1241
    164  CA        14.9470   32.8970    5.2610 C.3   241  HIS241      0.1621
    165  C         15.7310   31.6060    5.5110 C.2   241  HIS241      0.2264
    166  O         16.4310   31.4710    6.5260 O.2   241  HIS241     -0.2867
    167  CB        13.4550   32.6900    5.6070 C.3   241  HIS241      0.0745
    168  CG        13.1990   32.1840    6.9950 C.ar  241  HIS241      0.0817
    169  ND1       13.2950   32.9880    8.1150 N.ar  241  HIS241     -0.2268
    170  CD2       12.7610   30.9800    7.4370 C.ar  241  HIS241      0.1154
    171  CE1       12.9840   32.2830    9.1880 C.ar  241  HIS241      0.1986
    172  NE2       12.6410   31.0660    8.8020 N.ar  241  HIS241     -0.2212
@<TRIPOS>BOND
     1   124   123   ar
     2   118   119    1
     3   123   125   ar
     4   123   122    1
     5   110   109    1
     6   110   111    2
     7   119   122    1
     8   119   120    1
     9    15    14    2
    10    99    98    2
    11   109   112    1
    12   109   108    1
    13   112   113    1
    14    14    13    1
    15   120   121    2
    16   120   126   am
    17   131   132    1
    18    98   108   am
    19    98    97    1
    20    12    13    1
    21    13    16    1
    22   126   127    1
    23   113   115   ar
    24   113   114   ar
    25   115   117   ar
    26   132   133    1
    27   132   135    1
    28   128   127    1
    29   128   129    2
    30    96    97    1
    31    97   100    1
    32   127   130    1
    33   133   142   am
    34   133   134    2
    35   154   153    2
    36   144   145    2
    37   144   143    1
    38   153   152    1
    39   142   143    1
    40    16    17    1
    41   114   116   ar
    42   100   101    1
    43   135   136    1
    44   117   116   ar
    45   163   164    1
    46   143   146    1
    47    18    17   ar
    48    18    20   ar
    49   138   136   ar
    50   138   140   ar
    51     4     3    2
    52   136   137   ar
    53   151   152    1
    54    17    19   ar
    55   152   155    1
    56   140   141   ar
    57    20    22   ar
    58   155   156    1
    59   149   148   ar
    60     3     2    1
    61   101   103   ar
    62   101   102   ar
    63   164   165    1
    64   164   167    1
    65   137   139   ar
    66     1     2    1
    67   146   147    1
    68   165   166    2
    69     2     5    1
    70   167   168    1
    71   141   139   ar
    72   103   105   ar
    73    19    21   ar
    74   148   147    1
    75   148   150   ar
    76   102   104   ar
    77    42    40   am
    78    22    21   ar
    79    22    23    1
    80   156   158   ar
    81   156   157   ar
    82   158   160   ar
    83    40    41    2
    84    40    39    1
    85     5     6    1
    86   168   170   ar
    87   168   169   ar
    88   105   106   ar
    89     6     7    1
    90   104   106   ar
    91   170   172   ar
    92   157   159   ar
    93    39    38    1
    94   106   107    1
    95   160   161   ar
    96   169   171   ar
    97    32    30   ar
    98    32    33   ar
    99     7     8    1
   100    30    29   ar
   101   159   161   ar
   102   172   171   ar
   103    38    35    1
   104   161   162    1
   105    33    31   ar
   106    67    66    2
   107     8     9    2
   108    57    55   ar
   109    57    59   ar
   110    55    54   ar
   111    35    34    1
   112    35    36    1
   113    29    31   ar
   114    29    28    1
   115    66    68   am
   116    66    65    1
   117    95    93   ar
   118    34    26   am
   119    47    48    1
   120    47    44    1
   121     9    10    1
   122     9    11    1
   123    28    25    1
   124    94    93   ar
   125    60    59    1
   126    59    58   ar
   127    65    62    1
   128    37    36    2
   129    54    53    1
   130    54    56   ar
   131    53    50    1
   132    93    92    1
   133    26    27    2
   134    26    25    1
   135    50    49    1
   136    50    51    1
   137    49    45   am
   138    45    46    2
   139    45    44    1
   140    25    24    1
   141    44    43    1
   142    78    77    1
   143    58    56   ar
   144    75    74    1
   145    75    76    1
   146    62    63    1
   147    62    61    1
   148    92    89    1
   149    52    51    2
   150    64    63    2
   151    63    69   am
   152    74    73    1
   153    77    76    2
   154    77    79    1
   155    87    85    1
   156    69    70    1
   157    86    84    1
   158    89    88    1
   159    89    90    1
   160    70    73    1
   161    70    71    1
   162    88    82   am
   163    84    85    1
   164    84    81    1
   165    91    90    2
   166    82    83    2
   167    82    81    1
   168    71    72    2
   169    81    80    1
