@<TRIPOS>MOLECULE
tmp/5v3zB00.pdb
 160 156 0 0 0
SMALL
GASTEIGER

@<TRIPOS>ATOM
      1  N         24.8870   63.6670   -8.2510 N.3    57  ILE57      -0.1231
      2  CA        25.3170   63.3420   -6.8940 C.3    57  ILE57       0.1692
      3  C         26.8420   63.2350   -6.8030 C.2    57  ILE57       0.2591
      4  O         27.4590   63.7720   -5.8720 O.2    57  ILE57      -0.2718
      5  CB        24.6910   62.0210   -6.4140 C.3    57  ILE57       0.0266
      6  CG1       23.1580   62.1230   -6.4260 C.3    57  ILE57       0.0019
      7  CG2       25.1750   61.6830   -4.9960 C.3    57  ILE57       0.0020
      8  CD1       22.6050   63.1480   -5.4130 C.3    57  ILE57       0.0001
      9  N         27.4430   62.5370   -7.7670 N.am   58  GLU58      -0.1979
     10  CA        28.8950   62.3840   -7.8350 C.3    58  GLU58       0.1602
     11  C         29.6250   63.7190   -7.9860 C.2    58  GLU58       0.2287
     12  O         30.6130   63.9960   -7.2800 O.2    58  GLU58      -0.2864
     13  CB        29.2560   61.4510   -8.9940 C.3    58  GLU58       0.0415
     14  CG        28.7910   59.9840   -8.7860 C.3    58  GLU58       0.1163
     15  CD        27.2720   59.7260   -8.9590 C.2    58  GLU58       0.3649
     16  OE1       26.5720   60.4230   -9.7420 O.co2  58  GLU58      -0.2457
     17  OE2       26.7780   58.7810   -8.2920 O.co2  58  GLU58      -0.2457
     18  N         22.0040   60.6630    0.9850 N.3    87  VAL87      -0.1245
     19  CA        22.6260   60.2440   -0.2530 C.3    87  VAL87       0.1561
     20  C         23.9180   61.0320   -0.4240 C.2    87  VAL87       0.2260
     21  O         24.9430   60.4670   -0.7990 O.2    87  VAL87      -0.2867
     22  CB        21.6600   60.4810   -1.4220 C.3    87  VAL87       0.0252
     23  CG1       22.3100   60.1860   -2.7760 C.3    87  VAL87       0.0019
     24  CG2       20.3870   59.6410   -1.2320 C.3    87  VAL87       0.0019
     25  N         26.6100   59.8540    2.0240 N.3    90  TYR90      -0.1227
     26  CA        27.1870   58.6020    1.5490 C.3    90  TYR90       0.1736
     27  C         28.2010   58.8150    0.4220 C.2    90  TYR90       0.2595
     28  O         29.2900   58.2130    0.4200 O.2    90  TYR90      -0.2718
     29  CB        26.0660   57.6680    1.0930 C.3    90  TYR90       0.0548
     30  CG        26.5160   56.2670    0.7950 C.ar   90  TYR90      -0.0200
     31  CD1       26.9370   55.9180   -0.4870 C.ar   90  TYR90      -0.0009
     32  CD2       26.5070   55.2870    1.7770 C.ar   90  TYR90      -0.0009
     33  CE1       27.3530   54.6240   -0.7840 C.ar   90  TYR90       0.0417
     34  CE2       26.9180   53.9740    1.4930 C.ar   90  TYR90       0.0417
     35  CZ        27.3380   53.6620    0.2110 C.ar   90  TYR90       0.1957
     36  OH        27.7480   52.3920   -0.0880 O.3    90  TYR90      -0.2866
     37  N         27.8550   59.6640   -0.5360 N.am   91  ALA91      -0.1980
     38  CA        28.7480   59.9040   -1.6710 C.3    91  ALA91       0.1597
     39  C         30.0540   60.5250   -1.1980 C.2    91  ALA91       0.2287
     40  O         31.1360   60.2300   -1.7210 O.2    91  ALA91      -0.2864
     41  CB        28.0600   60.8000   -2.7100 C.3    91  ALA91       0.0319
     42  N         16.3130   53.9920   -0.1950 N.3   113  ARG113     -0.1231
     43  CA        16.2720   53.9370   -1.6510 C.3   113  ARG113      0.1694
     44  C         14.8800   53.4810   -2.1070 C.2   113  ARG113      0.2592
     45  O         14.1740   52.7230   -1.4030 O.2   113  ARG113     -0.2718
     46  CB        17.3840   53.0140   -2.1830 C.3   113  ARG113      0.0321
     47  CG        18.8160   53.5360   -1.8650 C.3   113  ARG113      0.0489
     48  CD        19.9010   52.5370   -2.3590 C.3   113  ARG113      0.2205
     49  NE        19.8310   52.4180   -3.8100 N.pl3 113  ARG113     -0.0865
     50  CZ        19.8800   51.2970   -4.5120 C.cat 113  ARG113      0.5346
     51  NH1       20.0280   50.1170   -3.9150 N.pl3 113  ARG113      0.1354
     52  NH2       19.7880   51.3710   -5.8370 N.pl3 113  ARG113      0.1354
     53  N         14.4660   53.9530   -3.2800 N.am  114  ALA114     -0.1966
     54  CA        13.2170   53.4830   -3.8750 C.3   114  ALA114      0.1728
     55  C         13.2720   51.9710   -3.9460 C.2   114  ALA114      0.2617
     56  O         14.3480   51.4010   -4.1420 O.2   114  ALA114     -0.2715
     57  CB        13.0020   54.0760   -5.2580 C.3   114  ALA114      0.0334
     58  N         12.1330   51.3160   -3.7460 N.am  115  GLY115     -0.1940
     59  CA        12.1010   49.8650   -3.6770 C.3   115  GLY115      0.2014
     60  C         12.3590   49.1960   -5.0180 C.2   115  GLY115      0.2639
     61  O         12.5520   47.9940   -5.0980 O.2   115  GLY115     -0.2714
     62  N         12.3790   49.9920   -6.0720 N.am  116  GLU116     -0.1963
     63  CA        12.5360   49.4810   -7.4110 C.3   116  GLU116      0.1733
     64  C         13.3280   50.5070   -8.2130 C.2   116  GLU116      0.2616
     65  O         13.1950   51.7070   -7.9890 O.2   116  GLU116     -0.2715
     66  CB        11.1440   49.2000   -8.0130 C.3   116  GLU116      0.0429
     67  CG        11.0760   48.9920   -9.5300 C.3   116  GLU116      0.1163
     68  CD         9.6410   48.9030  -10.0400 C.2   116  GLU116      0.3649
     69  OE1        8.8820   48.0650   -9.5110 O.co2 116  GLU116     -0.2457
     70  OE2        9.2730   49.6760  -10.9570 O.co2 116  GLU116     -0.2457
     71  N         14.1610   50.0440   -9.1350 N.am  117  GLU117     -0.1963
     72  CA        14.8980   50.9350  -10.0270 C.3   117  GLU117      0.1733
     73  C         13.9570   51.8480  -10.8470 C.2   117  GLU117      0.2616
     74  O         12.9680   51.3930  -11.4200 O.2   117  GLU117     -0.2715
     75  CB        15.7650   50.0950  -10.9660 C.3   117  GLU117      0.0429
     76  CG        16.6640   50.9010  -11.8610 C.3   117  GLU117      0.1163
     77  CD        16.9720   50.1980  -13.1700 C.2   117  GLU117      0.3649
     78  OE1       16.4780   49.0670  -13.3860 O.co2 117  GLU117     -0.2457
     79  OE2       17.7060   50.7920  -13.9900 O.co2 117  GLU117     -0.2457
     80  N         14.2710   53.1280  -10.9270 N.am  118  ILE118     -0.1977
     81  CA        13.4490   54.0200  -11.7190 C.3   118  ILE118      0.1596
     82  C         13.8880   53.9420  -13.1880 C.2   118  ILE118      0.2287
     83  O         14.9970   54.3550  -13.5330 O.2   118  ILE118     -0.2864
     84  CB        13.5400   55.4590  -11.2070 C.3   118  ILE118      0.0276
     85  CG1       12.8820   55.5760   -9.8240 C.3   118  ILE118      0.0022
     86  CG2       12.8300   56.3890  -12.1660 C.3   118  ILE118      0.0022
     87  CD1       13.8220   55.6430   -8.6680 C.3   118  ILE118      0.0001
     88  N         18.8830   61.6880   -7.3640 N.3   191  ILE191     -0.1231
     89  CA        19.0760   60.4000   -6.6940 C.3   191  ILE191      0.1692
     90  C         18.8540   59.2210   -7.6490 C.2   191  ILE191      0.2592
     91  O         19.6190   58.2610   -7.6180 O.2   191  ILE191     -0.2718
     92  CB        18.1440   60.3030   -5.4850 C.3   191  ILE191      0.0266
     93  CG1       18.3700   61.5560   -4.6170 C.3   191  ILE191      0.0019
     94  CG2       18.3310   58.9680   -4.7380 C.3   191  ILE191      0.0020
     95  CD1       17.4850   61.6470   -3.3660 C.3   191  ILE191      0.0001
     96  N         17.8840   59.3170   -8.5590 N.am  192  ASP192     -0.1974
     97  CA        17.5390   58.1470   -9.4020 C.3   192  ASP192      0.1709
     98  C         18.7040   57.5750  -10.1980 C.2   192  ASP192      0.2293
     99  O         18.7380   56.3700  -10.4850 O.2   192  ASP192     -0.2864
    100  CB        16.4570   58.4930  -10.4240 C.3   192  ASP192      0.1436
    101  CG        15.2110   59.0140   -9.7900 C.2   192  ASP192      0.3671
    102  OD1       15.0830   58.8920   -8.5530 O.co2 192  ASP192     -0.2456
    103  OD2       14.3650   59.5600  -10.5320 O.co2 192  ASP192     -0.2456
    104  N         22.0290   58.1260   -9.3680 N.3   194  ALA194     -0.1231
    105  CA        23.2690   58.0940   -8.5950 C.3   194  ALA194      0.1694
    106  C         23.9350   56.7220   -8.6920 C.2   194  ALA194      0.2592
    107  O         23.2930   55.6840   -8.4930 O.2   194  ALA194     -0.2718
    108  CB        22.9980   58.4430   -7.1470 C.3   194  ALA194      0.0304
    109  N         25.2210   56.7150   -9.0090 N.am  195  GLN195     -0.1966
    110  CA        25.9740   55.4680   -9.0740 C.3   195  GLN195      0.1733
    111  C         26.4500   55.0740   -7.6850 C.2   195  GLN195      0.2616
    112  O         27.4690   55.5760   -7.2170 O.2   195  GLN195     -0.2715
    113  CB        27.1690   55.6150  -10.0190 C.3   195  GLN195      0.0408
    114  CG        26.7830   55.7740  -11.4790 C.3   195  GLN195      0.0908
    115  CD        26.1380   54.5190  -12.0360 C.2   195  GLN195      0.2608
    116  OE1       25.0270   54.5610  -12.5790 O.2   195  GLN195     -0.2717
    117  NE2       26.8320   53.3880  -11.9000 N.am  195  GLN195     -0.0878
    118  N         25.7260   54.1860   -7.0190 N.am  196  ILE196     -0.1977
    119  CA        26.0770   53.8210   -5.6470 C.3   196  ILE196      0.1596
    120  C         27.3070   52.9040   -5.6060 C.2   196  ILE196      0.2287
    121  O         27.3690   51.9240   -6.3280 O.2   196  ILE196     -0.2864
    122  CB        24.8790   53.1540   -4.9430 C.3   196  ILE196      0.0276
    123  CG1       25.2630   52.6350   -3.5560 C.3   196  ILE196      0.0022
    124  CG2       24.2860   52.0390   -5.8090 C.3   196  ILE196      0.0022
    125  CD1       24.0770   52.1580   -2.7640 C.3   196  ILE196      0.0001
    126  N         20.5030   49.3170    0.8620 N.3   231  TRP231     -0.1241
    127  CA        21.9170   49.5660    1.1130 C.3   231  TRP231      0.1605
    128  C         22.6960   48.3090    1.4310 C.2   231  TRP231      0.2264
    129  O         23.9300   48.3390    1.4780 O.2   231  TRP231     -0.2867
    130  CB        22.0680   50.5670    2.2600 C.3   231  TRP231      0.0550
    131  CG        21.4710   51.9450    1.9400 C.ar  231  TRP231      0.0003
    132  CD1       20.2400   52.4080    2.3080 C.ar  231  TRP231      0.0946
    133  CD2       22.0880   53.0030    1.1890 C.ar  231  TRP231      0.0152
    134  NE1       20.0680   53.6920    1.8510 N.ar  231  TRP231     -0.2442
    135  CE2       21.1810   54.0770    1.1610 C.ar  231  TRP231      0.0810
    136  CE3       23.3250   53.1440    0.5480 C.ar  231  TRP231      0.0012
    137  CZ2       21.4570   55.2760    0.5040 C.ar  231  TRP231      0.0191
    138  CZ3       23.6050   54.3490   -0.1080 C.ar  231  TRP231      0.0001
    139  CH2       22.6720   55.3920   -0.1210 C.ar  231  TRP231      0.0015
    140  N         23.7070   45.4530    0.0660 N.3   233  GLU233     -0.1231
    141  CA        24.7890   44.8260   -0.6740 C.3   233  GLU233      0.1699
    142  C         25.9100   45.7970   -1.0150 C.2   233  GLU233      0.2592
    143  O         26.8830   45.4140   -1.6580 O.2   233  GLU233     -0.2718
    144  CB        24.2710   44.1720   -1.9420 C.3   233  GLU233      0.0402
    145  CG        23.3850   45.0310   -2.7810 C.3   233  GLU233      0.1161
    146  CD        22.2330   44.2170   -3.3420 C.2   233  GLU233      0.3649
    147  OE1       22.1260   43.0150   -2.9780 O.co2 233  GLU233     -0.2457
    148  OE2       21.4380   44.7820   -4.1330 O.co2 233  GLU233     -0.2457
    149  N         25.7860   47.0480   -0.5870 N.am  234  TYR234     -0.1976
    150  CA        26.8710   47.9940   -0.8150 C.3   234  TYR234      0.1639
    151  C         27.6610   48.3220    0.4300 C.2   234  TYR234      0.2290
    152  O         28.7650   48.8480    0.3350 O.2   234  TYR234     -0.2864
    153  CB        26.3300   49.2820   -1.4260 C.3   234  TYR234      0.0560
    154  CG        25.6310   49.0210   -2.7210 C.ar  234  TYR234     -0.0198
    155  CD1       26.3550   48.9550   -3.9030 C.ar  234  TYR234     -0.0009
    156  CD2       24.2580   48.8420   -2.7750 C.ar  234  TYR234     -0.0009
    157  CE1       25.7390   48.7020   -5.0960 C.ar  234  TYR234      0.0417
    158  CE2       23.6270   48.6000   -3.9690 C.ar  234  TYR234      0.0417
    159  CZ        24.3700   48.5260   -5.1250 C.ar  234  TYR234      0.1957
    160  OH        23.7430   48.2790   -6.3220 O.3   234  TYR234     -0.2866
@<TRIPOS>BOND
     1    79    77   ar
     2    83    82    2
     3    78    77   ar
     4    82    81    1
     5    77    76    1
     6   116   115    2
     7    86    84    1
     8   115   117   am
     9   115   114    1
    10    76    75    1
    11    81    84    1
    12    81    80    1
    13   114   113    1
    14    74    73    2
    15    84    85    1
    16    75    72    1
    17    70    68   ar
    18    80    73   am
    19    73    72    1
    20   103   101   ar
    21    99    98    2
    22   100   101    1
    23   100    97    1
    24    98    97    1
    25    68    67    1
    26    68    69   ar
    27    72    71    1
    28   113   110    1
    29    85    87    1
    30   101   102   ar
    31    16    15   ar
    32    67    66    1
    33    97    96    1
    34   104   105    1
    35    71    64   am
    36   110   109    1
    37   110   111    1
    38   109   106   am
    39    13    14    1
    40    13    10    1
    41    15    14    1
    42    15    17   ar
    43   106   105    1
    44   106   107    2
    45   105   108    1
    46    96    90   am
    47     1     2    1
    48    64    65    2
    49    64    63    1
    50    66    63    1
    51    11    10    1
    52    11    12    2
    53    10     9    1
    54     9     3   am
    55   111   112    2
    56   111   118   am
    57    90    91    2
    58    90    89    1
    59    63    62    1
    60    88    89    1
    61   118   119    1
    62     2     3    1
    63     2     5    1
    64     3     4    2
    65    89    92    1
    66     6     5    1
    67     6     8    1
    68     5     7    1
    69   121   120    2
    70   160   159    1
    71    62    60   am
    72    52    50    1
    73   124   122    1
    74   119   120    1
    75   119   122    1
    76    92    94    1
    77    92    93    1
    78    57    54    1
    79   159   157   ar
    80   159   158   ar
    81    61    60    2
    82   157   155   ar
    83    60    59    1
    84   122   123    1
    85    93    95    1
    86    50    51    1
    87    50    49    2
    88    56    55    2
    89   148   146   ar
    90   158   156   ar
    91    55    54    1
    92    55    58   am
    93   155   154   ar
    94    54    53    1
    95    49    48    1
    96    58    59    1
    97   123   125    1
    98   146   147   ar
    99   146   145    1
   100    53    44   am
   101   145   144    1
   102    23    22    1
   103   156   154   ar
   104   154   153    1
   105    41    38    1
   106    48    47    1
   107    46    47    1
   108    46    43    1
   109    44    43    1
   110    44    45    2
   111   144   141    1
   112    40    39    2
   113    38    39    1
   114    38    37    1
   115   143   142    2
   116    43    42    1
   117   153   150    1
   118    22    24    1
   119    22    19    1
   120   142   141    1
   121   142   149   am
   122   150   149    1
   123   150   151    1
   124    21    20    2
   125    33    31   ar
   126    33    35   ar
   127   141   140    1
   128    37    27   am
   129    31    30   ar
   130    20    19    1
   131    19    18    1
   132   139   138   ar
   133   139   137   ar
   134   138   136   ar
   135    36    35    1
   136    35    34   ar
   137   152   151    2
   138    28    27    2
   139    27    26    1
   140   137   135   ar
   141   136   133   ar
   142    30    29    1
   143    30    32   ar
   144   126   127    1
   145    29    26    1
   146   127   128    1
   147   127   130    1
   148   135   133   ar
   149   135   134   ar
   150   133   131   ar
   151   128   129    2
   152    34    32   ar
   153    26    25    1
   154   134   132   ar
   155   131   130    1
   156   131   132   ar
