@<TRIPOS>MOLECULE
tmp/5v3zB01.pdb
 128 123 0 0 0
SMALL
GASTEIGER

@<TRIPOS>ATOM
      1  N         16.9970   62.3420    4.1390 N.3    83  SER83      -0.1202
      2  CA        16.4540   62.4080    2.7800 C.3    83  SER83       0.2020
      3  C         17.6220   62.4970    1.7880 C.2    83  SER83       0.2618
      4  O         18.5790   61.7420    1.9010 O.2    83  SER83      -0.2717
      5  CB        15.5060   63.6180    2.6410 C.3    83  SER83       0.2103
      6  OG        14.5080   63.4050    1.6410 O.3    83  SER83      -0.2182
      7  N         17.5790   63.4500    0.8560 N.am   84  LEU84      -0.1979
      8  CA        18.7080   63.6750   -0.0560 C.3    84  LEU84       0.1596
      9  C         20.0200   63.8490    0.6840 C.2    84  LEU84       0.2287
     10  O         21.0680   63.3900    0.2070 O.2    84  LEU84      -0.2864
     11  CB        18.4490   64.8980   -0.9540 C.3    84  LEU84       0.0297
     12  CG        19.6990   65.4530   -1.6790 C.3    84  LEU84       0.0022
     13  CD1       20.2250   64.4480   -2.7040 C.3    84  LEU84       0.0001
     14  CD2       19.3500   66.7630   -2.3520 C.3    84  LEU84       0.0001
     15  N         22.0040   60.6630    0.9850 N.3    87  VAL87      -0.1245
     16  CA        22.6260   60.2440   -0.2530 C.3    87  VAL87       0.1561
     17  C         23.9180   61.0320   -0.4240 C.2    87  VAL87       0.2260
     18  O         24.9430   60.4670   -0.7990 O.2    87  VAL87      -0.2867
     19  CB        21.6600   60.4810   -1.4220 C.3    87  VAL87       0.0252
     20  CG1       22.3100   60.1860   -2.7760 C.3    87  VAL87       0.0019
     21  CG2       20.3870   59.6410   -1.2320 C.3    87  VAL87       0.0019
     22  N         17.1850   57.8450    4.7020 N.3   111  ALA111     -0.1231
     23  CA        17.5490   58.0000    3.3000 C.3   111  ALA111      0.1694
     24  C         17.3940   56.6280    2.6630 C.2   111  ALA111      0.2592
     25  O         18.3570   55.9000    2.4980 O.2   111  ALA111     -0.2718
     26  CB        18.9760   58.5260    3.1470 C.3   111  ALA111      0.0304
     27  N         16.1500   56.2610    2.3650 N.am  112  VAL112     -0.1966
     28  CA        15.7890   54.9140    1.9620 C.3   112  VAL112      0.1727
     29  C         15.6130   54.9060    0.4590 C.2   112  VAL112      0.2616
     30  O         14.9090   55.7640   -0.1100 O.2   112  VAL112     -0.2715
     31  CB        14.5170   54.4560    2.6820 C.3   112  VAL112      0.0290
     32  CG1       13.9570   53.1430    2.0840 C.3   112  VAL112      0.0023
     33  CG2       14.8040   54.3030    4.1840 C.3   112  VAL112      0.0023
     34  N         16.3130   53.9920   -0.1950 N.am  113  ARG113     -0.1977
     35  CA        16.2720   53.9370   -1.6510 C.3   113  ARG113      0.1597
     36  C         14.8800   53.4810   -2.1070 C.2   113  ARG113      0.2287
     37  O         14.1740   52.7230   -1.4030 O.2   113  ARG113     -0.2864
     38  CB        17.3840   53.0140   -2.1830 C.3   113  ARG113      0.0334
     39  CG        18.8160   53.5360   -1.8650 C.3   113  ARG113      0.0492
     40  CD        19.9010   52.5370   -2.3590 C.3   113  ARG113      0.2205
     41  NE        19.8310   52.4180   -3.8100 N.pl3 113  ARG113     -0.0865
     42  CZ        19.8800   51.2970   -4.5120 C.cat 113  ARG113      0.5346
     43  NH1       20.0280   50.1170   -3.9150 N.pl3 113  ARG113      0.1354
     44  NH2       19.7880   51.3710   -5.8370 N.pl3 113  ARG113      0.1354
     45  N         15.9090   66.0460   -5.8290 N.3   188  ASN188     -0.1240
     46  CA        15.4490   64.6930   -5.5350 C.3   188  ASN188      0.1653
     47  C         15.5800   63.7380   -6.7270 C.2   188  ASN188      0.2266
     48  O         15.9840   62.5670   -6.5500 O.2   188  ASN188     -0.2867
     49  CB        14.0190   64.6940   -5.0000 C.3   188  ASN188      0.1155
     50  CG        13.9750   64.8830   -3.4680 C.2   188  ASN188      0.2627
     51  OD1       14.9460   64.5550   -2.7670 O.2   188  ASN188     -0.2716
     52  ND2       12.8370   65.3500   -2.9450 N.am  188  ASN188     -0.0877
     53  N         18.8830   61.6880   -7.3640 N.3   191  ILE191     -0.1245
     54  CA        19.0760   60.4000   -6.6940 C.3   191  ILE191      0.1561
     55  C         18.8540   59.2210   -7.6490 C.2   191  ILE191      0.2260
     56  O         19.6190   58.2610   -7.6180 O.2   191  ILE191     -0.2867
     57  CB        18.1440   60.3030   -5.4850 C.3   191  ILE191      0.0252
     58  CG1       18.3700   61.5560   -4.6170 C.3   191  ILE191      0.0019
     59  CG2       18.3310   58.9680   -4.7380 C.3   191  ILE191      0.0019
     60  CD1       17.4850   61.6470   -3.3660 C.3   191  ILE191      0.0001
     61  N          7.5470   56.1080    3.5060 N.3   211  TYR211     -0.1227
     62  CA         7.5580   57.4490    2.9560 C.3   211  TYR211      0.1736
     63  C          6.1590   58.0390    3.1090 C.2   211  TYR211      0.2595
     64  O          5.1590   57.3020    3.1660 O.2   211  TYR211     -0.2718
     65  CB         8.0250   57.4390    1.4940 C.3   211  TYR211      0.0548
     66  CG         9.5530   57.4620    1.3310 C.ar  211  TYR211     -0.0200
     67  CD1       10.2660   58.6370    1.5420 C.ar  211  TYR211     -0.0009
     68  CD2       10.2720   56.3130    0.9820 C.ar  211  TYR211     -0.0009
     69  CE1       11.6340   58.6840    1.4190 C.ar  211  TYR211      0.0417
     70  CE2       11.6760   56.3550    0.8490 C.ar  211  TYR211      0.0417
     71  CZ        12.3390   57.5560    1.0640 C.ar  211  TYR211      0.1957
     72  OH        13.7130   57.6520    0.9430 O.3   211  TYR211     -0.2866
     73  N          6.1010   59.3600    3.2530 N.am  212  HIS212     -0.1975
     74  CA         4.8360   60.0940    3.2990 C.3   212  HIS212      0.1656
     75  C          4.2250   60.1720    1.9020 C.2   212  HIS212      0.2291
     76  O          4.9130   59.8970    0.9100 O.2   212  HIS212     -0.2864
     77  CB         5.0480   61.5110    3.8800 C.3   212  HIS212      0.0771
     78  CG         6.0840   62.3190    3.1620 C.ar  212  HIS212      0.0820
     79  ND1        7.4000   61.9230    3.0700 N.ar  212  HIS212     -0.2267
     80  CD2        6.0060   63.5120    2.5280 C.ar  212  HIS212      0.1154
     81  CE1        8.0840   62.8200    2.3880 C.ar  212  HIS212      0.1986
     82  NE2        7.2640   63.8000    2.0530 N.ar  212  HIS212     -0.2212
     83  N          3.3130   62.5460   -0.1470 N.3   214  ASP214     -0.1225
     84  CA         3.9190   63.4470   -1.1220 C.3   214  ASP214      0.1805
     85  C          5.1350   62.8460   -1.8290 C.2   214  ASP214      0.2597
     86  O          5.3500   63.1060   -3.0140 O.2   214  ASP214     -0.2718
     87  CB         4.3380   64.7680   -0.4580 C.3   214  ASP214      0.1424
     88  CG         3.1650   65.7250   -0.2580 C.2   214  ASP214      0.3668
     89  OD1        2.0600   65.4570   -0.7750 O.co2 214  ASP214     -0.2456
     90  OD2        3.3610   66.7470    0.4250 O.co2 214  ASP214     -0.2456
     91  N          5.9290   62.0530   -1.1080 N.am  215  ALA215     -0.1979
     92  CA         7.0880   61.3860   -1.7090 C.3   215  ALA215      0.1597
     93  C          6.6080   60.3680   -2.7370 C.2   215  ALA215      0.2287
     94  O          7.1990   60.1980   -3.8110 O.2   215  ALA215     -0.2864
     95  CB         7.9460   60.7040   -0.6290 C.3   215  ALA215      0.0319
     96  N          5.4470   62.0530   -5.8520 N.3   218  PHE218     -0.1241
     97  CA         6.6650   62.3900   -6.5870 C.3   218  PHE218      0.1605
     98  C          7.1820   61.1630   -7.3370 C.2   218  PHE218      0.2264
     99  O          7.4770   61.2260   -8.5360 O.2   218  PHE218     -0.2867
    100  CB         7.7190   62.9260   -5.6240 C.3   218  PHE218      0.0534
    101  CG         9.1200   62.9180   -6.1620 C.ar  218  PHE218     -0.0203
    102  CD1        9.5390   63.8800   -7.0660 C.ar  218  PHE218     -0.0042
    103  CD2       10.0320   61.9680   -5.7370 C.ar  218  PHE218     -0.0042
    104  CE1       10.8380   63.8820   -7.5600 C.ar  218  PHE218     -0.0003
    105  CE2       11.3410   61.9520   -6.2240 C.ar  218  PHE218     -0.0003
    106  CZ        11.7460   62.9150   -7.1340 C.ar  218  PHE218     -0.0000
    107  N          8.6740   54.8040   -4.3040 N.3   222  TYR222     -0.1241
    108  CA         9.0300   54.9970   -2.8990 C.3   222  TYR222      0.1605
    109  C          7.9660   54.3620   -1.9860 C.2   222  TYR222      0.2264
    110  O          8.1240   54.3050   -0.7580 O.2   222  TYR222     -0.2867
    111  CB         9.2020   56.4730   -2.5760 C.3   222  TYR222      0.0534
    112  CG        10.5250   57.0390   -3.0460 C.ar  222  TYR222     -0.0201
    113  CD1       11.7380   56.4670   -2.6420 C.ar  222  TYR222     -0.0009
    114  CD2       10.5670   58.1790   -3.8410 C.ar  222  TYR222     -0.0009
    115  CE1       12.9760   56.9940   -3.0690 C.ar  222  TYR222      0.0417
    116  CE2       11.7920   58.7300   -4.2580 C.ar  222  TYR222      0.0417
    117  CZ        12.9850   58.1300   -3.8770 C.ar  222  TYR222      0.1957
    118  OH        14.1800   58.6690   -4.3030 O.3   222  TYR222     -0.2866
    119  N          8.6260   59.4910    6.7060 N.3   247  HIS247     -0.1241
    120  CA         9.9080   60.0730    6.3090 C.3   247  HIS247      0.1621
    121  C         10.0150   61.5360    6.7130 C.2   247  HIS247      0.2264
    122  O         11.0360   61.9700    7.2460 O.2   247  HIS247     -0.2867
    123  CB        10.0840   59.9390    4.7990 C.3   247  HIS247      0.0745
    124  CG        11.3450   60.5480    4.2670 C.ar  247  HIS247      0.0817
    125  ND1       12.5610   59.9000    4.3210 N.ar  247  HIS247     -0.2268
    126  CD2       11.5600   61.7050    3.6010 C.ar  247  HIS247      0.1154
    127  CE1       13.4790   60.6540    3.7440 C.ar  247  HIS247      0.1986
    128  NE2       12.8990   61.7540    3.3060 N.ar  247  HIS247     -0.2212
@<TRIPOS>BOND
     1    99    98    2
     2    55    56    2
     3    55    54    1
     4   104   106   ar
     5   104   102   ar
     6    53    54    1
     7    98    97    1
     8   106   105   ar
     9   102   101   ar
    10    47    48    2
    11    47    46    1
    12    54    57    1
    13    97    96    1
    14    97   100    1
    15   105   103   ar
    16   101   103   ar
    17   101   100    1
    18    44    42    1
    19    45    46    1
    20    46    49    1
    21    57    59    1
    22    57    58    1
    23    49    50    1
    24    58    60    1
    25    42    43    1
    26    42    41    2
    27   107   108    1
    28   118   117    1
    29   116   117   ar
    30   116   114   ar
    31   117   115   ar
    32   114   112   ar
    33    94    93    2
    34    41    40    1
    35    50    52   am
    36    50    51    2
    37   115   113   ar
    38   112   113   ar
    39   112   111    1
    40    86    85    2
    41   108   111    1
    42   108   109    1
    43    20    19    1
    44    93    92    1
    45    13    12    1
    46    40    39    1
    47    14    12    1
    48    38    39    1
    49    38    35    1
    50    36    35    1
    51    36    37    2
    52   109   110    2
    53    85    84    1
    54    85    91   am
    55    92    91    1
    56    92    95    1
    57    12    11    1
    58    35    34    1
    59    19    21    1
    60    19    16    1
    61    84    87    1
    62    84    83    1
    63    11     8    1
    64    18    17    2
    65    89    88   ar
    66    87    88    1
    67    17    16    1
    68    88    90   ar
    69    16    15    1
    70    34    29   am
    71    30    29    2
    72     8     9    1
    73     8     7    1
    74    10     9    2
    75    29    28    1
    76    70    68   ar
    77    70    71   ar
    78     7     3   am
    79    76    75    2
    80    72    71    1
    81    68    66   ar
    82    71    69   ar
    83    66    65    1
    84    66    67   ar
    85    69    67   ar
    86    65    62    1
    87     6     5    1
    88     3     4    2
    89     3     2    1
    90    75    74    1
    91    28    27    1
    92    28    31    1
    93    82    81   ar
    94    82    80   ar
    95    32    31    1
    96    27    24   am
    97    81    79   ar
    98    25    24    2
    99    80    78   ar
   100     5     2    1
   101    24    23    1
   102    31    33    1
   103     2     1    1
   104    62    63    1
   105    62    61    1
   106    79    78   ar
   107    63    64    2
   108    63    73   am
   109    26    23    1
   110    78    77    1
   111    73    74    1
   112    74    77    1
   113    23    22    1
   114   128   126   ar
   115   128   127   ar
   116   126   124   ar
   117   127   125   ar
   118   124   125   ar
   119   124   123    1
   120   123   120    1
   121   120   119    1
   122   120   121    1
   123   121   122    2
