@<TRIPOS>MOLECULE
tmp/5v3zA00.pdb
 109 104 0 0 0
SMALL
GASTEIGER

@<TRIPOS>ATOM
      1  N         14.0440   31.6420   13.4810 N.3    83  SER83      -0.1217
      2  CA        12.6540   31.2730   13.2310 C.3    83  SER83       0.1889
      3  C         11.8940   31.1980   14.5730 C.2    83  SER83       0.2288
      4  O         12.0630   32.0760   15.4240 O.2    83  SER83      -0.2866
      5  CB        12.6150   29.9360   12.4750 C.3    83  SER83       0.2089
      6  OG        11.4480   29.8660   11.6620 O.3    83  SER83      -0.2183
      7  N         11.4730   33.5830   18.7010 N.3    87  VAL87      -0.1245
      8  CA        10.3010   33.9050   19.5160 C.3    87  VAL87       0.1561
      9  C         10.4460   33.2880   20.8990 C.2    87  VAL87       0.2260
     10  O         10.0830   33.8920   21.9070 O.2    87  VAL87      -0.2867
     11  CB         8.9960   33.4350   18.8330 C.3    87  VAL87       0.0252
     12  CG1        7.7700   33.6640   19.7300 C.3    87  VAL87       0.0019
     13  CG2        8.8010   34.1400   17.4690 C.3    87  VAL87       0.0019
     14  N         13.6950   36.1230   12.8670 N.3   111  ALA111     -0.1231
     15  CA        12.4000   35.8170   13.4860 C.3   111  ALA111      0.1694
     16  C         11.4750   37.0130   13.2610 C.2   111  ALA111      0.2591
     17  O         11.2230   37.7930   14.1680 O.2   111  ALA111     -0.2718
     18  CB        12.5710   35.5330   14.9690 C.3   111  ALA111      0.0304
     19  N         10.9710   37.1320   12.0390 N.am  112  VAL112     -0.1980
     20  CA        10.2620   38.3080   11.5740 C.3   112  VAL112      0.1595
     21  C          8.7590   38.0330   11.6260 C.2   112  VAL112      0.2287
     22  O          8.2840   37.0140   11.1110 O.2   112  VAL112     -0.2864
     23  CB        10.7160   38.6790   10.1430 C.3   112  VAL112      0.0276
     24  CG1        9.7680   39.6560    9.4800 C.3   112  VAL112      0.0022
     25  CG2       12.1820   39.2100   10.1320 C.3   112  VAL112      0.0022
     26  N          4.9010   26.4420   14.5390 N.3   190  ASN190     -0.1240
     27  CA         4.8460   27.7180   13.8050 C.3   190  ASN190      0.1653
     28  C          3.5160   28.4700   14.0410 C.2   190  ASN190      0.2266
     29  O          3.4980   29.7050   14.1360 O.2   190  ASN190     -0.2867
     30  CB         5.0740   27.4740   12.3110 C.3   190  ASN190      0.1155
     31  CG         6.5620   27.3870   11.9550 C.2   190  ASN190      0.2627
     32  OD1        7.4070   28.0340   12.5880 O.2   190  ASN190     -0.2716
     33  ND2        6.8930   26.5100   11.0080 N.am  190  ASN190     -0.0877
     34  N          3.0960   30.7820   17.2810 N.3   193  ILE193     -0.1245
     35  CA         3.5270   32.1560   17.1680 C.3   193  ILE193      0.1561
     36  C          2.3510   33.1350   17.0480 C.2   193  ILE193      0.2260
     37  O          2.3810   34.2410   17.6270 O.2   193  ILE193     -0.2867
     38  CB         4.4760   32.2860   15.9700 C.3   193  ILE193      0.0252
     39  CG1        5.6470   31.3030   16.1510 C.3   193  ILE193      0.0019
     40  CG2        4.9680   33.7250   15.8330 C.3   193  ILE193      0.0019
     41  CD1        6.6750   31.3270   15.0460 C.3   193  ILE193      0.0001
     42  N         10.6740   35.9870    3.3950 N.3   213  TYR213     -0.1227
     43  CA        10.4060   34.5830    3.6660 C.3   213  TYR213      0.1736
     44  C         10.4530   33.7820    2.3720 C.2   213  TYR213      0.2595
     45  O         10.1730   34.3120    1.2770 O.2   213  TYR213     -0.2718
     46  CB         9.0520   34.4030    4.3680 C.3   213  TYR213      0.0548
     47  CG         9.1560   34.5960    5.8660 C.ar  213  TYR213     -0.0200
     48  CD1        9.7310   33.6120    6.6770 C.ar  213  TYR213     -0.0009
     49  CD2        8.7080   35.7690    6.4640 C.ar  213  TYR213     -0.0009
     50  CE1        9.8430   33.8020    8.0640 C.ar  213  TYR213      0.0417
     51  CE2        8.8080   35.9590    7.8340 C.ar  213  TYR213      0.0417
     52  CZ         9.3800   34.9780    8.6160 C.ar  213  TYR213      0.1957
     53  OH         9.4520   35.2080    9.9760 O.3   213  TYR213     -0.2866
     54  N         10.8240   32.5110    2.5070 N.am  214  HIS214     -0.1975
     55  CA        10.8340   31.5580    1.4030 C.3   214  HIS214      0.1656
     56  C          9.3940   31.1780    1.0540 C.2   214  HIS214      0.2291
     57  O          8.4760   31.4380    1.8330 O.2   214  HIS214     -0.2864
     58  CB        11.6560   30.3210    1.7830 C.3   214  HIS214      0.0771
     59  CG        11.2130   29.6800    3.0670 C.ar  214  HIS214      0.0820
     60  ND1       11.2510   30.3420    4.2740 N.ar  214  HIS214     -0.2267
     61  CD2       10.6800   28.4620    3.3220 C.ar  214  HIS214      0.1154
     62  CE1       10.7820   29.5520    5.2240 C.ar  214  HIS214      0.1986
     63  NE2       10.4310   28.4020    4.6730 N.ar  214  HIS214     -0.2212
     64  N          7.5410   28.4230    0.8400 N.3   216  ASP216     -0.1225
     65  CA         6.7840   27.5000    1.6880 C.3   216  ASP216      0.1805
     66  C          6.2280   28.2040    2.9470 C.2   216  ASP216      0.2597
     67  O          5.1490   27.8530    3.4150 O.2   216  ASP216     -0.2718
     68  CB         7.6420   26.2920    2.0640 C.3   216  ASP216      0.1424
     69  CG         7.7570   25.2860    0.9210 C.2   216  ASP216      0.3668
     70  OD1        7.0600   25.4460   -0.1030 O.co2 216  ASP216     -0.2456
     71  OD2        8.5400   24.3290    1.0410 O.co2 216  ASP216     -0.2456
     72  N          6.9360   29.2010    3.4840 N.am  217  ALA217     -0.1979
     73  CA         6.4020   29.9570    4.6320 C.3   217  ALA217      0.1597
     74  C          5.1560   30.7380    4.2220 C.2   217  ALA217      0.2287
     75  O          4.1900   30.8510    4.9830 O.2   217  ALA217     -0.2864
     76  CB         7.4400   30.9040    5.1960 C.3   217  ALA217      0.0319
     77  N          2.3080   28.4510    3.8050 N.3   220  PHE220     -0.1241
     78  CA         1.8320   28.1830    5.1640 C.3   220  PHE220      0.1605
     79  C          0.9070   29.3200    5.6440 C.2   220  PHE220      0.2264
     80  O         -0.2350   29.0950    6.0880 O.2   220  PHE220     -0.2867
     81  CB         3.0400   28.0020    6.0940 C.3   220  PHE220      0.0534
     82  CG         2.7370   28.1850    7.5620 C.ar  220  PHE220     -0.0203
     83  CD1        2.0790   27.2000    8.2910 C.ar  220  PHE220     -0.0042
     84  CD2        3.1320   29.3430    8.2210 C.ar  220  PHE220     -0.0042
     85  CE1        1.8040   27.3750    9.6530 C.ar  220  PHE220     -0.0003
     86  CE2        2.8690   29.5210    9.5880 C.ar  220  PHE220     -0.0003
     87  CZ         2.2070   28.5340   10.2920 C.ar  220  PHE220     -0.0000
     88  N          2.9940   36.3510    5.6750 N.3   224  TYR224     -0.1241
     89  CA         4.4480   36.3850    5.8050 C.3   224  TYR224      0.1605
     90  C          5.0950   36.9140    4.5350 C.2   224  TYR224      0.2264
     91  O          6.3160   37.1170    4.4890 O.2   224  TYR224     -0.2867
     92  CB         4.9940   35.0020    6.1250 C.3   224  TYR224      0.0534
     93  CG         4.8870   34.6510    7.5840 C.ar  224  TYR224     -0.0201
     94  CD1        5.5470   35.4090    8.5450 C.ar  224  TYR224     -0.0009
     95  CD2        4.0960   33.5900    8.0060 C.ar  224  TYR224     -0.0009
     96  CE1        5.4590   35.0960    9.8880 C.ar  224  TYR224      0.0417
     97  CE2        3.9840   33.2740    9.3570 C.ar  224  TYR224      0.0417
     98  CZ         4.6650   34.0250   10.2890 C.ar  224  TYR224      0.1957
     99  OH         4.5710   33.7150   11.6310 O.3   224  TYR224     -0.2866
    100  N         14.6460   33.4250    4.4210 N.3   249  HIS249     -0.1241
    101  CA        14.5810   33.0230    5.8090 C.3   249  HIS249      0.1621
    102  C         15.2800   31.6940    6.0080 C.2   249  HIS249      0.2264
    103  O         16.0290   31.5170    6.9540 O.2   249  HIS249     -0.2867
    104  CB        13.1270   32.9090    6.2170 C.3   249  HIS249      0.0745
    105  CG        12.9080   32.4330    7.6120 C.ar  249  HIS249      0.0817
    106  ND1       12.9350   33.2780    8.6980 N.ar  249  HIS249     -0.2268
    107  CD2       12.5760   31.2050    8.0920 C.ar  249  HIS249      0.1154
    108  CE1       12.6370   32.5940    9.7950 C.ar  249  HIS249      0.1986
    109  NE2       12.4020   31.3340    9.4540 N.ar  249  HIS249     -0.2212
@<TRIPOS>BOND
     1    70    69   ar
     2    64    65    1
     3    69    71   ar
     4    69    68    1
     5    56    55    1
     6    56    57    2
     7    45    44    2
     8    55    58    1
     9    55    54    1
    10    65    68    1
    11    65    66    1
    12    58    59    1
    13    44    54   am
    14    44    43    1
    15    66    67    2
    16    66    72   am
    17    59    61   ar
    18    59    60   ar
    19    61    63   ar
    20    42    43    1
    21    72    73    1
    22    43    46    1
    23    77    78    1
    24    74    73    1
    25    74    75    2
    26    60    62   ar
    27    46    47    1
    28   100   101    1
    29    91    90    2
    30    90    89    1
    31    73    76    1
    32    63    62   ar
    33    78    79    1
    34    78    81    1
    35    79    80    2
    36    88    89    1
    37    89    92    1
    38   101   102    1
    39   101   104    1
    40    47    49   ar
    41    47    48   ar
    42   102   103    2
    43    81    82    1
    44    92    93    1
    45   104   105    1
    46    49    51   ar
    47    48    50   ar
    48    82    84   ar
    49    82    83   ar
    50    93    95   ar
    51    93    94   ar
    52   105   107   ar
    53   105   106   ar
    54    51    52   ar
    55    95    97   ar
    56    50    52   ar
    57   107   109   ar
    58    84    86   ar
    59    83    85   ar
    60    94    96   ar
    61    52    53    1
    62   106   108   ar
    63    97    98   ar
    64   109   108   ar
    65    24    23    1
    66    86    87   ar
    67    85    87   ar
    68    96    98   ar
    69    25    23    1
    70    23    20    1
    71    98    99    1
    72    33    31   am
    73    22    21    2
    74    20    21    1
    75    20    19    1
    76     6     5    1
    77    31    30    1
    78    31    32    2
    79    19    16   am
    80    30    27    1
    81     5     2    1
    82    14    15    1
    83     2     1    1
    84     2     3    1
    85    16    15    1
    86    16    17    2
    87    15    18    1
    88    27    28    1
    89    27    26    1
    90    28    29    2
    91     3     4    2
    92    41    39    1
    93    40    38    1
    94    38    39    1
    95    38    35    1
    96    36    35    1
    97    36    37    2
    98    35    34    1
    99    13    11    1
   100     7     8    1
   101    11     8    1
   102    11    12    1
   103     8     9    1
   104     9    10    2
