@<TRIPOS>MOLECULE
tmp/5v40B00.pdb
 178 173 0 0 0
SMALL
GASTEIGER

@<TRIPOS>ATOM
      1  N         16.1380   68.1710    0.3000 N.3    27  ALA27      -0.1245
      2  CA        15.4660   68.6450   -0.9020 C.3    27  ALA27       0.1562
      3  C         14.4180   69.6910   -0.5300 C.2    27  ALA27       0.2260
      4  O         13.5150   69.4260    0.2660 O.2    27  ALA27      -0.2867
      5  CB        14.8140   67.4810   -1.6510 C.3    27  ALA27       0.0290
      6  N          5.2130   60.6990  -15.6270 N.3   128  ARG128     -0.1245
      7  CA         5.5820   61.4970  -14.4700 C.3   128  ARG128      0.1563
      8  C          4.8450   62.8340  -14.4890 C.2   128  ARG128      0.2260
      9  O          4.2830   63.2470  -13.4690 O.2   128  ARG128     -0.2867
     10  CB         7.1110   61.6290  -14.4200 C.3   128  ARG128      0.0307
     11  CG         7.7480   62.0760  -13.0940 C.3   128  ARG128      0.0489
     12  CD         9.2810   61.8670  -13.1050 C.3   128  ARG128      0.2205
     13  NE         9.9000   62.3760  -14.3240 N.pl3 128  ARG128     -0.0865
     14  CZ        10.7950   61.7190  -15.0560 C.cat 128  ARG128      0.5346
     15  NH1       11.1940   60.5000  -14.7070 N.pl3 128  ARG128      0.1354
     16  NH2       11.2890   62.2860  -16.1490 N.pl3 128  ARG128      0.1354
     17  N          1.8830   64.3470  -12.0900 N.3   132  TYR132     -0.1241
     18  CA         2.0040   65.6560  -11.4610 C.3   132  TYR132      0.1605
     19  C          0.8130   66.5410  -11.8240 C.2   132  TYR132      0.2264
     20  O          0.3110   67.2930  -10.9790 O.2   132  TYR132     -0.2867
     21  CB         3.3350   66.3050  -11.8510 C.3   132  TYR132      0.0534
     22  CG         3.4190   67.7120  -11.3640 C.ar  132  TYR132     -0.0201
     23  CD1        3.6020   67.9810  -10.0180 C.ar  132  TYR132     -0.0009
     24  CD2        3.3190   68.7790  -12.2230 C.ar  132  TYR132     -0.0009
     25  CE1        3.6400   69.2970   -9.5410 C.ar  132  TYR132      0.0417
     26  CE2        3.3600   70.1020  -11.7770 C.ar  132  TYR132      0.0417
     27  CZ         3.5170   70.3220  -10.4090 C.ar  132  TYR132      0.1957
     28  OH         3.5350   71.6370   -9.9920 O.3   132  TYR132     -0.2866
     29  N         -2.1680   65.6790   -9.6710 N.3   135  PHE135     -0.1241
     30  CA        -2.0230   66.1290   -8.2840 C.3   135  PHE135      0.1605
     31  C         -2.4980   67.5660   -8.0900 C.2   135  PHE135      0.2264
     32  O         -3.0740   67.8900   -7.0430 O.2   135  PHE135     -0.2867
     33  CB        -0.5650   65.9870   -7.8270 C.3   135  PHE135      0.0534
     34  CG        -0.2790   66.4360   -6.4110 C.ar  135  PHE135     -0.0203
     35  CD1       -0.9340   65.9070   -5.3330 C.ar  135  PHE135     -0.0042
     36  CD2        0.6970   67.3650   -6.1590 C.ar  135  PHE135     -0.0042
     37  CE1       -0.6440   66.2350   -4.0250 C.ar  135  PHE135     -0.0003
     38  CE2        1.0350   67.7220   -4.8290 C.ar  135  PHE135     -0.0003
     39  CZ         0.3320   67.1750   -3.8100 C.ar  135  PHE135     -0.0000
     40  N          9.7700   75.9450   -5.8570 N.3   182  GLN182     -0.1245
     41  CA         9.1990   74.6680   -6.2760 C.3   182  GLN182      0.1566
     42  C         10.0410   74.0220   -7.3700 C.2   182  GLN182      0.2260
     43  O         10.1640   72.7920   -7.4210 O.2   182  GLN182     -0.2867
     44  CB         7.7610   74.8570   -6.7430 C.3   182  GLN182      0.0367
     45  CG         6.8250   75.3450   -5.6600 C.3   182  GLN182      0.0905
     46  CD         6.7350   74.3910   -4.4890 C.2   182  GLN182      0.2608
     47  OE1        7.0970   74.7390   -3.3670 O.2   182  GLN182     -0.2717
     48  NE2        6.2960   73.1630   -4.7550 N.am  182  GLN182     -0.0878
     49  N         12.9950   72.5670   -5.6200 N.3   185  SER185     -0.1202
     50  CA        12.5430   71.4530   -4.7920 C.3   185  SER185      0.2020
     51  C         12.2800   70.2300   -5.6610 C.2   185  SER185      0.2618
     52  O         12.6620   69.1020   -5.3150 O.2   185  SER185     -0.2717
     53  CB        11.2770   71.8290   -4.0210 C.3   185  SER185      0.2103
     54  OG        11.5270   72.8770   -3.0990 O.3   185  SER185     -0.2182
     55  N         11.6190   70.4400   -6.8000 N.am  186  TYR186     -0.1975
     56  CA        11.4010   69.3500   -7.7390 C.3   186  TYR186      0.1639
     57  C         12.7220   68.7580   -8.2330 C.2   186  TYR186      0.2290
     58  O         12.9030   67.5360   -8.2180 O.2   186  TYR186     -0.2864
     59  CB        10.5550   69.8270   -8.9150 C.3   186  TYR186      0.0560
     60  CG        10.4120   68.7540   -9.9580 C.ar  186  TYR186     -0.0198
     61  CD1        9.5310   67.6910   -9.7700 C.ar  186  TYR186     -0.0009
     62  CD2       11.1710   68.7810  -11.1220 C.ar  186  TYR186     -0.0009
     63  CE1        9.3960   66.6960  -10.7210 C.ar  186  TYR186      0.0417
     64  CE2       11.0440   67.7880  -12.0760 C.ar  186  TYR186      0.0417
     65  CZ        10.1640   66.7480  -11.8680 C.ar  186  TYR186      0.1957
     66  OH        10.0450   65.7660  -12.8220 O.3   186  TYR186     -0.2866
     67  N         14.6130   66.7350   -5.6640 N.3   189  ASN189     -0.1225
     68  CA        14.0030   65.4280   -5.4800 C.3   189  ASN189      0.1785
     69  C         14.3530   64.4930   -6.6300 C.2   189  ASN189      0.2597
     70  O         14.6970   63.3300   -6.3970 O.2   189  ASN189     -0.2718
     71  CB        12.4960   65.5790   -5.3140 C.3   189  ASN189      0.1169
     72  CG        12.1050   65.8320   -3.8750 C.2   189  ASN189      0.2627
     73  OD1       12.0310   64.8970   -3.0760 O.2   189  ASN189     -0.2716
     74  ND2       11.8800   67.0940   -3.5250 N.am  189  ASN189     -0.0877
     75  N         14.3180   64.9940   -7.8750 N.am  190  ARG190     -0.1979
     76  CA        14.7640   64.1770   -9.0010 C.3   190  ARG190      0.1597
     77  C         16.2240   63.7730   -8.8500 C.2   190  ARG190      0.2287
     78  O         16.5990   62.6650   -9.2460 O.2   190  ARG190     -0.2864
     79  CB        14.5180   64.8940  -10.3270 C.3   190  ARG190      0.0334
     80  CG        13.0340   64.9380  -10.6840 C.3   190  ARG190      0.0492
     81  CD        12.5310   63.5970  -11.2450 C.3   190  ARG190      0.2205
     82  NE        13.2540   63.2040  -12.4450 N.pl3 190  ARG190     -0.0865
     83  CZ        13.6200   61.9650  -12.7610 C.cat 190  ARG190      0.5346
     84  NH1       13.2990   60.9310  -11.9800 N.pl3 190  ARG190      0.1354
     85  NH2       14.2640   61.7660  -13.8990 N.pl3 190  ARG190      0.1354
     86  N         17.6460   62.9150   -6.1690 N.3   192  ILE192     -0.1231
     87  CA        17.6110   61.6920   -5.3740 C.3   192  ILE192      0.1692
     88  C         17.3280   60.5050   -6.2800 C.2   192  ILE192      0.2592
     89  O         18.0260   59.4870   -6.2280 O.2   192  ILE192     -0.2718
     90  CB        16.5680   61.7980   -4.2460 C.3   192  ILE192      0.0266
     91  CG1       16.9060   62.9670   -3.3220 C.3   192  ILE192      0.0019
     92  CG2       16.5270   60.4810   -3.4440 C.3   192  ILE192      0.0020
     93  CD1       15.8460   63.2690   -2.2650 C.3   192  ILE192      0.0001
     94  N         16.3320   60.6490   -7.1640 N.am  193  ASP193     -0.1974
     95  CA        15.9150   59.5500   -8.0380 C.3   193  ASP193      0.1709
     96  C         17.0520   59.0750   -8.9360 C.2   193  ASP193      0.2293
     97  O         17.2740   57.8690   -9.0870 O.2   193  ASP193     -0.2864
     98  CB        14.7240   59.9860   -8.9030 C.3   193  ASP193      0.1436
     99  CG        13.4390   60.1730   -8.1050 C.2   193  ASP193      0.3671
    100  OD1       13.4700   60.0490   -6.8630 O.co2 193  ASP193     -0.2456
    101  OD2       12.3980   60.4800   -8.7250 O.co2 193  ASP193     -0.2456
    102  N          7.5300   56.5780    3.3570 N.3   212  TYR212     -0.1227
    103  CA         7.4190   57.9410    2.8610 C.3   212  TYR212      0.1736
    104  C          6.0000   58.4420    3.0720 C.2   212  TYR212      0.2595
    105  O          5.0410   57.6620    3.1080 O.2   212  TYR212     -0.2718
    106  CB         7.7750   58.0160    1.3800 C.3   212  TYR212      0.0548
    107  CG         9.2560   58.1320    1.1590 C.ar  212  TYR212     -0.0200
    108  CD1        9.9080   59.3500    1.3350 C.ar  212  TYR212     -0.0009
    109  CD2       10.0090   57.0140    0.8190 C.ar  212  TYR212     -0.0009
    110  CE1       11.2630   59.4580    1.1540 C.ar  212  TYR212      0.0417
    111  CE2       11.3720   57.1070    0.6330 C.ar  212  TYR212      0.0417
    112  CZ        11.9980   58.3330    0.8060 C.ar  212  TYR212      0.1957
    113  OH        13.3590   58.4430    0.6300 O.3   212  TYR212     -0.2866
    114  N          5.8790   59.7540    3.2490 N.am  213  HIS213     -0.1975
    115  CA         4.5680   60.3600    3.3840 C.3   213  HIS213      0.1656
    116  C          3.8440   60.3840    2.0390 C.2   213  HIS213      0.2291
    117  O          4.4510   60.2160    0.9740 O.2   213  HIS213     -0.2864
    118  CB         4.6880   61.7620    3.9850 C.3   213  HIS213      0.0771
    119  CG         5.6590   62.6590    3.2800 C.ar  213  HIS213      0.0820
    120  ND1        6.9750   62.3100    3.0480 N.ar  213  HIS213     -0.2267
    121  CD2        5.5110   63.9140    2.7880 C.ar  213  HIS213      0.1154
    122  CE1        7.5870   63.3040    2.4280 C.ar  213  HIS213      0.1986
    123  NE2        6.7230   64.2900    2.2610 N.ar  213  HIS213     -0.2212
    124  N          2.5330   62.5750    0.0700 N.3   215  ASP215     -0.1225
    125  CA         2.9000   63.5040   -0.9930 C.3   215  ASP215      0.1805
    126  C          4.1000   63.0000   -1.7870 C.2   215  ASP215      0.2597
    127  O          4.1290   63.1200   -3.0180 O.2   215  ASP215     -0.2718
    128  CB         3.1890   64.8820   -0.3980 C.3   215  ASP215      0.1424
    129  CG         1.9250   65.6220    0.0150 C.2   215  ASP215      0.3668
    130  OD1        0.8170   65.2110   -0.3910 O.co2 215  ASP215     -0.2456
    131  OD2        2.0390   66.6080    0.7680 O.co2 215  ASP215     -0.2456
    132  N          5.0970   62.4290   -1.1030 N.am  216  ALA216     -0.1979
    133  CA         6.2350   61.8400   -1.8020 C.3   216  ALA216      0.1597
    134  C          5.7850   60.6910   -2.6990 C.2   216  ALA216      0.2287
    135  O          6.2110   60.5820   -3.8580 O.2   216  ALA216     -0.2864
    136  CB         7.2880   61.3650   -0.7960 C.3   216  ALA216      0.0319
    137  N          4.1380   61.7630   -5.9880 N.3   219  PHE219     -0.1227
    138  CA         5.0570   62.1670   -7.0510 C.3   219  PHE219      0.1736
    139  C          5.7650   60.9780   -7.6910 C.2   219  PHE219      0.2595
    140  O          6.0220   60.9870   -8.9000 O.2   219  PHE219     -0.2718
    141  CB         6.0900   63.1520   -6.5070 C.3   219  PHE219      0.0547
    142  CG         5.5970   64.5590   -6.4410 C.ar  219  PHE219     -0.0202
    143  CD1        5.6110   65.3630   -7.5690 C.ar  219  PHE219     -0.0042
    144  CD2        5.1110   65.0800   -5.2530 C.ar  219  PHE219     -0.0042
    145  CE1        5.1490   66.6700   -7.5120 C.ar  219  PHE219     -0.0003
    146  CE2        4.6490   66.3750   -5.1840 C.ar  219  PHE219     -0.0003
    147  CZ         4.6720   67.1790   -6.3120 C.ar  219  PHE219     -0.0000
    148  N          6.1110   59.9650   -6.9010 N.am  220  GLU220     -0.1979
    149  CA         6.8160   58.7830   -7.4010 C.3   220  GLU220      0.1602
    150  C          6.3100   57.5880   -6.6230 C.2   220  GLU220      0.2287
    151  O          6.7360   57.3490   -5.4800 O.2   220  GLU220     -0.2864
    152  CB         8.3330   58.9120   -7.2800 C.3   220  GLU220      0.0415
    153  CG         9.1120   57.6490   -7.6500 C.3   220  GLU220      0.1163
    154  CD         8.7280   57.0670   -8.9990 C.2   220  GLU220      0.3649
    155  OE1        7.8770   56.1580   -9.0360 O.co2 220  GLU220     -0.2457
    156  OE2        9.2710   57.5230  -10.0240 O.co2 220  GLU220     -0.2457
    157  N          8.2150   54.8020   -4.4120 N.3   223  TYR223     -0.1241
    158  CA         8.5970   55.0050   -3.0210 C.3   223  TYR223      0.1605
    159  C          7.5640   54.4470   -2.0520 C.2   223  TYR223      0.2264
    160  O          7.7710   54.5350   -0.8380 O.2   223  TYR223     -0.2867
    161  CB         8.8210   56.4970   -2.7320 C.3   223  TYR223      0.0534
    162  CG        10.1210   57.0380   -3.2870 C.ar  223  TYR223     -0.0201
    163  CD1       11.3490   56.6750   -2.7400 C.ar  223  TYR223     -0.0009
    164  CD2       10.1190   57.9010   -4.3710 C.ar  223  TYR223     -0.0009
    165  CE1       12.5380   57.1660   -3.2600 C.ar  223  TYR223      0.0417
    166  CE2       11.3000   58.3990   -4.8980 C.ar  223  TYR223      0.0417
    167  CZ        12.4980   58.0400   -4.3410 C.ar  223  TYR223      0.1957
    168  OH        13.6580   58.5410   -4.8760 O.3   223  TYR223     -0.2866
    169  N          8.5320   59.7400    6.6020 N.3   248  HIS248     -0.1241
    170  CA         9.7320   60.4650    6.1870 C.3   248  HIS248      0.1621
    171  C          9.7090   61.9190    6.6370 C.2   248  HIS248      0.2264
    172  O         10.7020   62.4360    7.1700 O.2   248  HIS248     -0.2867
    173  CB         9.8730   60.3770    4.6700 C.3   248  HIS248      0.0745
    174  CG        11.0900   61.0630    4.1300 C.ar  248  HIS248      0.0817
    175  ND1       12.3470   60.4970    4.1780 N.ar  248  HIS248     -0.2268
    176  CD2       11.2400   62.2570    3.5100 C.ar  248  HIS248      0.1154
    177  CE1       13.2210   61.3190    3.6240 C.ar  248  HIS248      0.1986
    178  NE2       12.5750   62.3940    3.2100 N.ar  248  HIS248     -0.2212
@<TRIPOS>BOND
     1    16    14    1
     2     6     7    1
     3    14    15    1
     4    14    13    2
     5     8     7    1
     6     8     9    2
     7     7    10    1
     8    10    11    1
     9    13    12    1
    10    85    83    1
    11    12    11    1
    12    66    65    1
    13    83    82    2
    14    83    84    1
    15    82    81    1
    16    24    26   ar
    17    24    22   ar
    18    17    18    1
    19    64    65   ar
    20    64    62   ar
    21    65    63   ar
    22    21    18    1
    23    21    22    1
    24    19    18    1
    25    19    20    2
    26    26    27   ar
    27    22    23   ar
    28    81    80    1
    29    62    60   ar
    30    63    61   ar
    31    80    79    1
    32    27    28    1
    33    27    25   ar
    34    79    76    1
    35   156   154   ar
    36    23    25   ar
    37    60    61   ar
    38    60    59    1
    39    29    30    1
    40    78    77    2
    41    97    96    2
    42   155   154   ar
    43    76    77    1
    44    76    75    1
    45   154   153    1
    46    96    95    1
    47    59    56    1
    48    98    99    1
    49    98    95    1
    50   140   139    2
    51   101    99   ar
    52    30    31    1
    53    30    33    1
    54    57    58    2
    55    57    56    1
    56    99   100   ar
    57    31    32    2
    58    95    94    1
    59    75    69   am
    60    33    34    1
    61    56    55    1
    62   139   138    1
    63   139   148   am
    64   153   152    1
    65   143   145   ar
    66   143   142   ar
    67   145   147   ar
    68    43    42    2
    69   149   152    1
    70   149   148    1
    71   149   150    1
    72    42    41    1
    73    94    88   am
    74   138   141    1
    75   138   137    1
    76    55    51   am
    77    44    41    1
    78    44    45    1
    79    69    70    2
    80    69    68    1
    81   150   151    2
    82   141   142    1
    83   142   144   ar
    84    34    36   ar
    85    34    35   ar
    86   147   146   ar
    87    88    89    2
    88    88    87    1
    89    41    40    1
    90    86    87    1
    91    36    38   ar
    92    67    68    1
    93    51    52    2
    94    51    50    1
    95    45    46    1
    96    49    50    1
    97    68    71    1
    98    87    90    1
    99    35    37   ar
   100    71    72    1
   101   144   146   ar
   102   166   164   ar
   103   166   167   ar
   104   168   167    1
   105    38    39   ar
   106    50    53    1
   107    48    46   am
   108    46    47    2
   109   157   158    1
   110   164   162   ar
   111   167   165   ar
   112    90    92    1
   113    90    91    1
   114    37    39   ar
   115    53    54    1
   116    72    74   am
   117    72    73    2
   118   135   134    2
   119    91    93    1
   120   162   163   ar
   121   162   161    1
   122   165   163   ar
   123   158   161    1
   124   158   159    1
   125   127   126    2
   126   134   133    1
   127   159   160    2
   128   133   132    1
   129   133   136    1
   130   126   132   am
   131   126   125    1
   132     5     2    1
   133   125   128    1
   134   125   124    1
   135     2     3    1
   136     2     1    1
   137     3     4    2
   138   128   129    1
   139   130   129   ar
   140   129   131   ar
   141   113   112    1
   142   111   112   ar
   143   111   109   ar
   144   112   110   ar
   145   109   107   ar
   146   117   116    2
   147   110   108   ar
   148   107   108   ar
   149   107   106    1
   150   106   103    1
   151   116   115    1
   152   123   122   ar
   153   123   121   ar
   154   122   120   ar
   155   121   119   ar
   156   103   104    1
   157   103   102    1
   158   120   119   ar
   159   104   105    2
   160   104   114   am
   161   178   176   ar
   162   178   177   ar
   163   114   115    1
   164   119   118    1
   165   115   118    1
   166   176   174   ar
   167   177   175   ar
   168   174   175   ar
   169   174   173    1
   170   173   170    1
   171   170   169    1
   172   170   171    1
   173   171   172    2
