@<TRIPOS>MOLECULE
tmp/5v42B00.pdb
 173 169 0 0 0
SMALL
GASTEIGER

@<TRIPOS>ATOM
      1  N          5.5750   60.7710  -15.8080 N.3   125  ARG125     -0.1245
      2  CA         5.9440   61.6740  -14.7250 C.3   125  ARG125      0.1563
      3  C          5.1350   62.9580  -14.7640 C.2   125  ARG125      0.2260
      4  O          4.5680   63.3800  -13.7510 O.2   125  ARG125     -0.2867
      5  CB         7.4420   61.9920  -14.7830 C.3   125  ARG125      0.0307
      6  CG         7.9580   62.8720  -13.6580 C.3   125  ARG125      0.0489
      7  CD         9.4530   63.1630  -13.8550 C.3   125  ARG125      0.2205
      8  NE        10.1750   61.9570  -14.2690 N.pl3 125  ARG125     -0.0865
      9  CZ        11.0400   61.8760  -15.2720 C.cat 125  ARG125      0.5346
     10  NH1       11.3260   62.9390  -16.0200 N.pl3 125  ARG125      0.1354
     11  NH2       11.6140   60.7090  -15.5250 N.pl3 125  ARG125      0.1354
     12  N          2.3920   64.6000  -12.3960 N.3   129  TYR129     -0.1241
     13  CA         2.6330   65.9210  -11.8230 C.3   129  TYR129      0.1605
     14  C          1.4210   66.8280  -12.0280 C.2   129  TYR129      0.2264
     15  O          1.0280   67.5630  -11.1190 O.2   129  TYR129     -0.2867
     16  CB         3.8880   66.5550  -12.4280 C.3   129  TYR129      0.0534
     17  CG         4.0980   67.9930  -11.9600 C.ar  129  TYR129     -0.0201
     18  CD1        4.3980   68.2680  -10.6340 C.ar  129  TYR129     -0.0009
     19  CD2        3.9960   69.0960  -12.8160 C.ar  129  TYR129     -0.0009
     20  CE1        4.6130   69.5690  -10.1620 C.ar  129  TYR129      0.0417
     21  CE2        4.1850   70.4110  -12.3710 C.ar  129  TYR129      0.0417
     22  CZ         4.4830   70.6560  -11.0280 C.ar  129  TYR129      0.1957
     23  OH         4.6660   71.9350  -10.5760 O.3   129  TYR129     -0.2866
     24  N         -1.7300   66.0530   -9.6680 N.3   132  PHE132     -0.1241
     25  CA        -1.5460   66.5040   -8.2910 C.3   132  PHE132      0.1605
     26  C         -1.7480   68.0210   -8.1800 C.2   132  PHE132      0.2264
     27  O         -2.3900   68.5000   -7.2340 O.2   132  PHE132     -0.2867
     28  CB        -0.1500   66.0980   -7.7920 C.3   132  PHE132      0.0534
     29  CG         0.2260   66.6640   -6.4380 C.ar  132  PHE132     -0.0203
     30  CD1        0.8300   67.9120   -6.3310 C.ar  132  PHE132     -0.0042
     31  CD2        0.0120   65.9320   -5.2740 C.ar  132  PHE132     -0.0042
     32  CE1        1.1860   68.4330   -5.0920 C.ar  132  PHE132     -0.0003
     33  CE2        0.3710   66.4440   -4.0270 C.ar  132  PHE132     -0.0003
     34  CZ         0.9590   67.6970   -3.9380 C.ar  132  PHE132     -0.0000
     35  N         10.1970   76.0120   -6.2330 N.3   177  GLN177     -0.1245
     36  CA         9.5700   74.7770   -6.6840 C.3   177  GLN177      0.1566
     37  C         10.4270   74.0920   -7.7400 C.2   177  GLN177      0.2260
     38  O         10.5500   72.8660   -7.7590 O.2   177  GLN177     -0.2867
     39  CB         8.1690   75.0370   -7.2430 C.3   177  GLN177      0.0367
     40  CG         7.2770   75.6680   -6.2260 C.3   177  GLN177      0.0905
     41  CD         7.0480   74.7520   -5.0610 C.2   177  GLN177      0.2608
     42  OE1        6.5400   73.6390   -5.2220 O.2   177  GLN177     -0.2717
     43  NE2        7.4710   75.1910   -3.8750 N.am  177  GLN177     -0.0878
     44  N         13.3830   72.5320   -5.9920 N.3   180  SER180     -0.1202
     45  CA        12.8410   71.4540   -5.1530 C.3   180  SER180      0.2020
     46  C         12.5290   70.2310   -6.0030 C.2   180  SER180      0.2618
     47  O         12.8040   69.0830   -5.6190 O.2   180  SER180     -0.2717
     48  CB        11.5660   71.9050   -4.4350 C.3   180  SER180      0.2103
     49  OG        11.8300   72.9420   -3.4960 O.3   180  SER180     -0.2182
     50  N         11.9410   70.4740   -7.1670 N.am  181  TYR181     -0.1975
     51  CA        11.6940   69.3940   -8.1020 C.3   181  TYR181      0.1639
     52  C         13.0080   68.7360   -8.5640 C.2   181  TYR181      0.2290
     53  O         13.1180   67.5050   -8.6250 O.2   181  TYR181     -0.2864
     54  CB        10.9170   69.9070   -9.3010 C.3   181  TYR181      0.0560
     55  CG        10.8060   68.8810  -10.3840 C.ar  181  TYR181     -0.0198
     56  CD1        9.8480   67.8880  -10.3120 C.ar  181  TYR181     -0.0009
     57  CD2       11.6570   68.9000  -11.4810 C.ar  181  TYR181     -0.0009
     58  CE1        9.7340   66.9460  -11.2870 C.ar  181  TYR181      0.0417
     59  CE2       11.5480   67.9510  -12.4730 C.ar  181  TYR181      0.0417
     60  CZ        10.5810   66.9790  -12.3650 C.ar  181  TYR181      0.1957
     61  OH        10.4420   66.0140  -13.3330 O.3   181  TYR181     -0.2866
     62  N         14.7140   66.6830   -5.8930 N.3   184  ASN184     -0.1225
     63  CA        14.0230   65.4040   -5.7740 C.3   184  ASN184      0.1785
     64  C         14.3820   64.4190   -6.8800 C.2   184  ASN184      0.2597
     65  O         14.5010   63.2060   -6.6300 O.2   184  ASN184     -0.2718
     66  CB        12.5180   65.6190   -5.7560 C.3   184  ASN184      0.1169
     67  CG        12.0020   65.8430   -4.3630 C.2   184  ASN184      0.2627
     68  OD1       11.7400   64.8880   -3.6210 O.2   184  ASN184     -0.2716
     69  ND2       11.8840   67.1050   -3.9760 N.am  184  ASN184     -0.0877
     70  N         14.5430   64.9280   -8.1020 N.am  185  ARG185     -0.1979
     71  CA        14.9540   64.0820   -9.2220 C.3   185  ARG185      0.1597
     72  C         16.4090   63.6210   -9.0550 C.2   185  ARG185      0.2287
     73  O         16.7720   62.5330   -9.5200 O.2   185  ARG185     -0.2864
     74  CB        14.7620   64.8120  -10.5650 C.3   185  ARG185      0.0334
     75  CG        13.2930   64.9550  -11.0200 C.3   185  ARG185      0.0492
     76  CD        12.6730   63.6250  -11.4800 C.3   185  ARG185      0.2205
     77  NE        13.3690   63.1130  -12.6570 N.pl3 185  ARG185     -0.0865
     78  CZ        13.6150   61.8280  -12.8980 C.cat 185  ARG185      0.5346
     79  NH1       13.1790   60.8850  -12.0630 N.pl3 185  ARG185      0.1354
     80  NH2       14.2850   61.4870  -13.9920 N.pl3 185  ARG185      0.1354
     81  N         17.7260   62.7470   -6.3640 N.3   187  ILE187     -0.1231
     82  CA        17.5520   61.5280   -5.5870 C.3   187  ILE187      0.1692
     83  C         17.1940   60.3330   -6.4780 C.2   187  ILE187      0.2592
     84  O         17.8260   59.2870   -6.3730 O.2   187  ILE187     -0.2718
     85  CB        16.4790   61.7010   -4.5040 C.3   187  ILE187      0.0266
     86  CG1       16.8290   62.8920   -3.6020 C.3   187  ILE187      0.0019
     87  CG2       16.3240   60.3850   -3.6990 C.3   187  ILE187      0.0020
     88  CD1       15.7850   63.1670   -2.5080 C.3   187  ILE187      0.0001
     89  N         16.1890   60.4920   -7.3470 N.am  188  ASP188     -0.1974
     90  CA        15.7490   59.4170   -8.2590 C.3   188  ASP188      0.1709
     91  C         16.8800   58.8710   -9.1430 C.2   188  ASP188      0.2293
     92  O         17.0070   57.6530   -9.3390 O.2   188  ASP188     -0.2864
     93  CB        14.6150   59.9070   -9.1750 C.3   188  ASP188      0.1436
     94  CG        13.3210   60.2130   -8.4250 C.2   188  ASP188      0.3671
     95  OD1       13.2630   59.9830   -7.1900 O.co2 188  ASP188     -0.2456
     96  OD2       12.3540   60.6980   -9.0750 O.co2 188  ASP188     -0.2456
     97  N          7.4340   56.6960    3.2220 N.3   207  TYR207     -0.1227
     98  CA         7.3630   58.0540    2.6760 C.3   207  TYR207      0.1736
     99  C          5.9520   58.6260    2.8450 C.2   207  TYR207      0.2595
    100  O          4.9660   57.8940    2.8600 O.2   207  TYR207     -0.2718
    101  CB         7.7710   58.0770    1.2000 C.3   207  TYR207      0.0548
    102  CG         9.2630   58.1830    1.0000 C.ar  207  TYR207     -0.0200
    103  CD1        9.9230   59.3880    1.2280 C.ar  207  TYR207     -0.0009
    104  CD2       10.0250   57.0650    0.6530 C.ar  207  TYR207     -0.0009
    105  CE1       11.2800   59.4890    1.0600 C.ar  207  TYR207      0.0417
    106  CE2       11.3920   57.1600    0.5000 C.ar  207  TYR207      0.0417
    107  CZ        12.0080   58.3790    0.7050 C.ar  207  TYR207      0.1957
    108  OH        13.3660   58.4960    0.5510 O.3   207  TYR207     -0.2866
    109  N          5.8750   59.9450    2.9750 N.am  208  HIS208     -0.1975
    110  CA         4.6020   60.6420    3.1450 C.3   208  HIS208      0.1656
    111  C          3.8390   60.6600    1.8190 C.2   208  HIS208      0.2291
    112  O          4.4130   60.3780    0.7570 O.2   208  HIS208     -0.2864
    113  CB         4.8330   62.0670    3.6880 C.3   208  HIS208      0.0771
    114  CG         5.8190   62.8670    2.8970 C.ar  208  HIS208      0.0820
    115  ND1        7.0660   62.4020    2.5650 N.ar  208  HIS208     -0.2267
    116  CD2        5.7500   64.1420    2.4110 C.ar  208  HIS208      0.1154
    117  CE1        7.7280   63.3310    1.8890 C.ar  208  HIS208      0.1986
    118  NE2        6.9410   64.3940    1.7860 N.ar  208  HIS208     -0.2212
    119  N          2.5250   62.7880   -0.2610 N.3   210  ASP210     -0.1225
    120  CA         2.8520   63.6590   -1.3760 C.3   210  ASP210      0.1805
    121  C          4.0640   63.1490   -2.1430 C.2   210  ASP210      0.2597
    122  O          4.1150   63.2600   -3.3740 O.2   210  ASP210     -0.2718
    123  CB         3.0900   65.0820   -0.8800 C.3   210  ASP210      0.1424
    124  CG         1.7840   65.8090   -0.5450 C.2   210  ASP210      0.3668
    125  OD1        0.7030   65.3810   -1.0120 O.co2 210  ASP210     -0.2456
    126  OD2        1.8370   66.7970    0.2110 O.co2 210  ASP210     -0.2456
    127  N          5.0290   62.5680   -1.4290 N.am  211  ALA211     -0.1979
    128  CA         6.2100   62.0140   -2.0810 C.3   211  ALA211      0.1597
    129  C          5.7890   60.8230   -2.9290 C.2   211  ALA211      0.2287
    130  O          6.2980   60.5980   -4.0370 O.2   211  ALA211     -0.2864
    131  CB         7.2550   61.5930   -1.0520 C.3   211  ALA211      0.0319
    132  N          4.0320   61.7790   -6.1290 N.3   214  PHE214     -0.1227
    133  CA         4.9670   62.1880   -7.1640 C.3   214  PHE214      0.1736
    134  C          5.6760   60.9930   -7.8040 C.2   214  PHE214      0.2595
    135  O          5.9690   60.9940   -9.0030 O.2   214  PHE214     -0.2718
    136  CB         5.9740   63.1610   -6.5690 C.3   214  PHE214      0.0547
    137  CG         5.5600   64.5830   -6.7230 C.ar  214  PHE214     -0.0202
    138  CD1        4.6840   65.1600   -5.8140 C.ar  214  PHE214     -0.0042
    139  CD2        6.0040   65.3340   -7.7960 C.ar  214  PHE214     -0.0042
    140  CE1        4.2690   66.4750   -5.9630 C.ar  214  PHE214     -0.0003
    141  CE2        5.5990   66.6580   -7.9540 C.ar  214  PHE214     -0.0003
    142  CZ         4.7360   67.2280   -7.0360 C.ar  214  PHE214     -0.0000
    143  N          5.9240   59.9620   -7.0100 N.am  215  GLU215     -0.1979
    144  CA         6.6000   58.7760   -7.5150 C.3   215  GLU215      0.1602
    145  C          6.1900   57.5610   -6.6860 C.2   215  GLU215      0.2287
    146  O          6.7850   57.2630   -5.6400 O.2   215  GLU215     -0.2864
    147  CB         8.1180   58.9670   -7.4840 C.3   215  GLU215      0.0415
    148  CG         8.9010   57.6940   -7.8180 C.3   215  GLU215      0.1163
    149  CD         8.4780   57.0710   -9.1340 C.2   215  GLU215      0.3649
    150  OE1        7.6720   56.1170   -9.1170 O.co2 215  GLU215     -0.2457
    151  OE2        8.9150   57.5660  -10.1980 O.co2 215  GLU215     -0.2457
    152  N          8.0180   54.8560   -4.4510 N.3   218  TYR218     -0.1241
    153  CA         8.4540   55.1280   -3.0910 C.3   218  TYR218      0.1605
    154  C          7.4320   54.6450   -2.0590 C.2   218  TYR218      0.2264
    155  O          7.6300   54.8160   -0.8530 O.2   218  TYR218     -0.2867
    156  CB         8.7150   56.6260   -2.8950 C.3   218  TYR218      0.0534
    157  CG        10.0200   57.1030   -3.5040 C.ar  218  TYR218     -0.0201
    158  CD1       11.2400   56.7360   -2.9460 C.ar  218  TYR218     -0.0009
    159  CD2       10.0290   57.9470   -4.6060 C.ar  218  TYR218     -0.0009
    160  CE1       12.4480   57.1830   -3.4890 C.ar  218  TYR218      0.0417
    161  CE2       11.2340   58.4090   -5.1570 C.ar  218  TYR218      0.0417
    162  CZ        12.4340   58.0260   -4.5910 C.ar  218  TYR218      0.1957
    163  OH        13.6210   58.4670   -5.1280 O.3   218  TYR218     -0.2866
    164  N          8.4760   59.9270    6.5200 N.3   243  HIS243     -0.1241
    165  CA         9.7000   60.5890    6.0480 C.3   243  HIS243      0.1621
    166  C          9.7560   62.0420    6.4550 C.2   243  HIS243      0.2264
    167  O         10.7840   62.5390    6.9100 O.2   243  HIS243     -0.2867
    168  CB         9.8130   60.5050    4.5200 C.3   243  HIS243      0.0745
    169  CG        11.0370   61.1890    3.9600 C.ar  243  HIS243      0.0817
    170  ND1       12.2830   60.6040    3.9690 N.ar  243  HIS243     -0.2268
    171  CD2       11.1750   62.3810    3.3350 C.ar  243  HIS243      0.1154
    172  CE1       13.1560   61.4230    3.3920 C.ar  243  HIS243      0.1986
    173  NE2       12.5090   62.5100    3.0020 N.ar  243  HIS243     -0.2212
@<TRIPOS>BOND
     1    10     9    1
     2     1     2    1
     3    11     9    1
     4     9     8    2
     5     5     2    1
     6     5     6    1
     7     3     2    1
     8     3     4    2
     9     8     7    1
    10    80    78    1
    11     7     6    1
    12    61    60    1
    13    78    77    2
    14    78    79    1
    15    19    21   ar
    16    19    17   ar
    17    77    76    1
    18    59    60   ar
    19    59    57   ar
    20    16    17    1
    21    16    13    1
    22    12    13    1
    23    21    22   ar
    24    60    58   ar
    25    14    13    1
    26    14    15    2
    27    17    18   ar
    28    57    55   ar
    29    76    75    1
    30    58    56   ar
    31    22    23    1
    32    22    20   ar
    33    75    74    1
    34    18    20   ar
    35    74    71    1
    36    55    56   ar
    37    55    54    1
    38   151   149   ar
    39    24    25    1
    40    73    72    2
    41    92    91    2
    42    54    51    1
    43    71    72    1
    44    71    70    1
    45    93    94    1
    46    93    90    1
    47    91    90    1
    48   149   150   ar
    49   149   148    1
    50    96    94   ar
    51   135   134    2
    52    53    52    2
    53    52    51    1
    54    94    95   ar
    55    25    26    1
    56    25    28    1
    57    90    89    1
    58    26    27    2
    59    51    50    1
    60    70    64   am
    61   141   139   ar
    62   141   142   ar
    63   148   147    1
    64   134   133    1
    65   134   143   am
    66   139   137   ar
    67    28    29    1
    68    38    37    2
    69    37    36    1
    70   144   147    1
    71   144   143    1
    72   144   145    1
    73    89    83   am
    74    39    36    1
    75    39    40    1
    76    50    46   am
    77   133   136    1
    78   133   132    1
    79   142   140   ar
    80    64    65    2
    81    64    63    1
    82   137   136    1
    83   137   138   ar
    84   145   146    2
    85    36    35    1
    86    83    84    2
    87    83    82    1
    88    29    30   ar
    89    29    31   ar
    90    81    82    1
    91    30    32   ar
    92    40    41    1
    93    46    47    2
    94    46    45    1
    95    44    45    1
    96   140   138   ar
    97    62    63    1
    98    63    66    1
    99    66    67    1
   100    82    85    1
   101    31    33   ar
   102    42    41    2
   103   161   159   ar
   104   161   162   ar
   105    45    48    1
   106   163   162    1
   107    32    34   ar
   108    41    43   am
   109   159   157   ar
   110   162   160   ar
   111    85    87    1
   112    85    86    1
   113   152   153    1
   114    48    49    1
   115    67    69   am
   116    67    68    2
   117   130   129    2
   118    33    34   ar
   119    86    88    1
   120   157   158   ar
   121   157   156    1
   122   160   158   ar
   123   122   121    2
   124   153   156    1
   125   153   154    1
   126   129   128    1
   127   121   127   am
   128   121   120    1
   129   128   127    1
   130   128   131    1
   131   154   155    2
   132   120   123    1
   133   120   119    1
   134   125   124   ar
   135   123   124    1
   136   124   126   ar
   137   106   104   ar
   138   106   107   ar
   139   108   107    1
   140   104   102   ar
   141   107   105   ar
   142   112   111    2
   143   102   101    1
   144   102   103   ar
   145   105   103   ar
   146   101    98    1
   147   118   117   ar
   148   118   116   ar
   149   111   110    1
   150   117   115   ar
   151   116   114   ar
   152   115   114   ar
   153    98    99    1
   154    98    97    1
   155    99   100    2
   156    99   109   am
   157   114   113    1
   158   109   110    1
   159   173   171   ar
   160   173   172   ar
   161   110   113    1
   162   171   169   ar
   163   172   170   ar
   164   169   170   ar
   165   169   168    1
   166   168   165    1
   167   165   166    1
   168   165   164    1
   169   166   167    2
