@<TRIPOS>MOLECULE
tmp/5v48B00.pdb
 179 173 0 0 0
SMALL
GASTEIGER

@<TRIPOS>ATOM
      1  N         19.8300    6.0090   27.7980 N.3    49  ARG49      -0.1245
      2  CA        20.7350    7.1400   27.9340 C.3    49  ARG49       0.1563
      3  C         21.9440    6.8940   27.0470 C.2    49  ARG49       0.2260
      4  O         22.4800    5.7820   27.0160 O.2    49  ARG49      -0.2867
      5  CB        21.1830    7.3420   29.3890 C.3    49  ARG49       0.0307
      6  CG        22.1710    8.4850   29.5760 C.3    49  ARG49       0.0489
      7  CD        22.7220    8.5440   30.9960 C.3    49  ARG49       0.2205
      8  NE        23.6640    7.4670   31.2880 N.pl3  49  ARG49      -0.0865
      9  CZ        24.2970    7.3260   32.4490 C.cat  49  ARG49       0.5346
     10  NH1       24.0890    8.1940   33.4300 N.pl3  49  ARG49       0.1354
     11  NH2       25.1380    6.3180   32.6310 N.pl3  49  ARG49       0.1354
     12  N         30.1280    8.7350   28.3210 N.3    53  PHE53      -0.1241
     13  CA        30.3360    7.7980   29.4200 C.3    53  PHE53       0.1605
     14  C         29.7200    6.4400   29.1050 C.2    53  PHE53       0.2264
     15  O         30.3140    5.3970   29.4040 O.2    53  PHE53      -0.2867
     16  CB        29.7510    8.3720   30.7100 C.3    53  PHE53       0.0534
     17  CG        30.1650    7.6310   31.9500 C.ar   53  PHE53      -0.0203
     18  CD1       29.3800    6.6110   32.4590 C.ar   53  PHE53      -0.0042
     19  CD2       31.3360    7.9620   32.6090 C.ar   53  PHE53      -0.0042
     20  CE1       29.7580    5.9320   33.5990 C.ar   53  PHE53      -0.0003
     21  CE2       31.7190    7.2870   33.7500 C.ar   53  PHE53      -0.0003
     22  CZ        30.9290    6.2710   34.2460 C.ar   53  PHE53      -0.0000
     23  N         31.2770    2.2640   28.1050 N.3    57  ARG57      -0.1245
     24  CA        30.7350    0.9770   28.5260 C.3    57  ARG57       0.1563
     25  C         30.4990    0.0690   27.3270 C.2    57  ARG57       0.2260
     26  O         30.7450   -1.1410   27.3960 O.2    57  ARG57      -0.2867
     27  CB        29.4360    1.1780   29.3070 C.3    57  ARG57       0.0307
     28  CG        29.6050    1.8930   30.6390 C.3    57  ARG57       0.0489
     29  CD        28.2600    2.0990   31.3210 C.3    57  ARG57       0.2205
     30  NE        28.3920    2.7400   32.6270 N.pl3  57  ARG57      -0.0865
     31  CZ        27.3630    3.0650   33.4030 C.cat  57  ARG57       0.5346
     32  NH1       26.1240    2.8110   33.0040 N.pl3  57  ARG57       0.1354
     33  NH2       27.5710    3.6450   34.5780 N.pl3  57  ARG57       0.1354
     34  N         33.6680    2.7870   35.8260 N.3   489  ASN489     -0.1225
     35  CA        33.0750    3.5080   36.9470 C.3   489  ASN489      0.1785
     36  C         34.1440    3.6740   38.0210 C.2   489  ASN489      0.2597
     37  O         35.2880    3.2360   37.8620 O.2   489  ASN489     -0.2718
     38  CB        31.8450    2.7740   37.4910 C.3   489  ASN489      0.1169
     39  CG        30.7630    3.7210   37.9640 C.2   489  ASN489      0.2627
     40  OD1       31.0470    4.8320   38.4070 O.2   489  ASN489     -0.2716
     41  ND2       29.5110    3.2860   37.8670 N.am  489  ASN489     -0.0877
     42  N         33.7590    4.3250   39.1170 N.am  490  ALA490     -0.1966
     43  CA        34.5940    4.4590   40.3010 C.3   490  ALA490      0.1728
     44  C         33.7030    4.3510   41.5280 C.2   490  ALA490      0.2616
     45  O         32.5060    4.6460   41.4680 O.2   490  ALA490     -0.2715
     46  CB        35.3640    5.7840   40.3150 C.3   490  ALA490      0.0334
     47  N         34.2890    3.9240   42.6450 N.am  491  PHE491     -0.1974
     48  CA        33.5000    3.6060   43.8250 C.3   491  PHE491      0.1639
     49  C         34.1930    4.1000   45.0850 C.2   491  PHE491      0.2290
     50  O         35.4110    4.2910   45.1240 O.2   491  PHE491     -0.2864
     51  CB        33.2440    2.0970   43.9340 C.3   491  PHE491      0.0560
     52  CG        32.6560    1.4930   42.6940 C.ar  491  PHE491     -0.0200
     53  CD1       31.2880    1.5070   42.4840 C.ar  491  PHE491     -0.0042
     54  CD2       33.4710    0.9160   41.7370 C.ar  491  PHE491     -0.0042
     55  CE1       30.7440    0.9530   41.3430 C.ar  491  PHE491     -0.0003
     56  CE2       32.9340    0.3610   40.5930 C.ar  491  PHE491     -0.0003
     57  CZ        31.5680    0.3790   40.3960 C.ar  491  PHE491     -0.0000
     58  N         37.8950    2.3120   33.9670 N.3   505  ILE505     -0.1245
     59  CA        37.8510    3.7710   33.9580 C.3   505  ILE505      0.1561
     60  C         39.2270    4.3960   33.7680 C.2   505  ILE505      0.2260
     61  O         39.3160    5.6150   33.5470 O.2   505  ILE505     -0.2867
     62  CB        37.1940    4.3140   35.2480 C.3   505  ILE505      0.0252
     63  CG1       36.6110    5.7100   35.0120 C.3   505  ILE505      0.0019
     64  CG2       38.1940    4.3270   36.3960 C.3   505  ILE505      0.0019
     65  CD1       35.9040    6.2900   36.2140 C.3   505  ILE505      0.0001
     66  N         39.6710    9.7150   30.5080 N.3   510  PHE510     -0.1241
     67  CA        39.9910    9.9010   31.9200 C.3   510  PHE510      0.1605
     68  C         41.4970    9.9440   32.1500 C.2   510  PHE510      0.2264
     69  O         42.0220   10.9050   32.7200 O.2   510  PHE510     -0.2867
     70  CB        39.3500    8.7910   32.7580 C.3   510  PHE510      0.0534
     71  CG        37.8510    8.7940   32.7190 C.ar  510  PHE510     -0.0203
     72  CD1       37.1300    9.7360   33.4330 C.ar  510  PHE510     -0.0042
     73  CD2       37.1620    7.8540   31.9730 C.ar  510  PHE510     -0.0042
     74  CE1       35.7490    9.7420   33.4000 C.ar  510  PHE510     -0.0003
     75  CE2       35.7830    7.8550   31.9390 C.ar  510  PHE510     -0.0003
     76  CZ        35.0750    8.7990   32.6520 C.ar  510  PHE510     -0.0000
     77  N         39.5730   14.5230   38.5190 N.3   526  MET526     -0.1230
     78  CA        38.2730   14.8220   39.1060 C.3   526  MET526      0.1702
     79  C         37.6020   13.5610   39.6340 C.2   526  MET526      0.2592
     80  O         36.8460   13.6250   40.6080 O.2   526  MET526     -0.2718
     81  CB        37.3860   15.5220   38.0760 C.3   526  MET526      0.0401
     82  CG        36.0330   15.9790   38.5970 C.3   526  MET526      0.0596
     83  SD        34.7440   14.7230   38.4640 S.3   526  MET526     -0.1393
     84  CE        33.3400   15.6180   39.1170 C.3   526  MET526      0.0692
     85  N         37.8730   12.4100   39.0120 N.am  527  VAL527     -0.1980
     86  CA        37.2950   11.1520   39.4780 C.3   527  VAL527      0.1595
     87  C         37.8490   10.7820   40.8470 C.2   527  VAL527      0.2287
     88  O         37.1030   10.3640   41.7410 O.2   527  VAL527     -0.2864
     89  CB        37.5490   10.0340   38.4510 C.3   527  VAL527      0.0276
     90  CG1       37.0190    8.7110   38.9710 C.3   527  VAL527      0.0022
     91  CG2       36.9110   10.3790   37.1200 C.3   527  VAL527      0.0022
     92  N         36.4500   12.9550   43.3170 N.3   530  HIS530     -0.1226
     93  CA        35.0340   12.6660   43.5120 C.3   530  HIS530      0.1752
     94  C         34.8400   11.5710   44.5530 C.2   530  HIS530      0.2595
     95  O         34.0150   11.7020   45.4640 O.2   530  HIS530     -0.2718
     96  CB        34.4000   12.2670   42.1790 C.3   530  HIS530      0.0759
     97  CG        32.9580   11.8800   42.2800 C.ar  530  HIS530      0.0818
     98  ND1       31.9330   12.7340   41.9340 N.ar  530  HIS530     -0.2268
     99  CD2       32.3690   10.7270   42.6780 C.ar  530  HIS530      0.1154
    100  CE1       30.7750   12.1250   42.1170 C.ar  530  HIS530      0.1986
    101  NE2       31.0120   10.9070   42.5710 N.ar  530  HIS530     -0.2212
    102  N         35.6010   10.4810   44.4360 N.am  531  GLU531     -0.1979
    103  CA        35.4350    9.3610   45.3560 C.3   531  GLU531      0.1602
    104  C         35.9910    9.6760   46.7380 C.2   531  GLU531      0.2287
    105  O         35.5010    9.1380   47.7370 O.2   531  GLU531     -0.2864
    106  CB        36.0990    8.1120   44.7800 C.3   531  GLU531      0.0415
    107  CG        35.6130    7.7550   43.3870 C.3   531  GLU531      0.1163
    108  CD        34.1150    7.5080   43.3310 C.2   531  GLU531      0.3649
    109  OE1       33.5510    7.0000   44.3240 O.co2 531  GLU531     -0.2457
    110  OE2       33.4990    7.8240   42.2920 O.co2 531  GLU531     -0.2457
    111  N         33.4110   11.6290   48.4550 N.3   534  HIS534     -0.1241
    112  CA        32.3110   10.7420   48.8210 C.3   534  HIS534      0.1621
    113  C         32.4250   10.2410   50.2550 C.2   534  HIS534      0.2264
    114  O         31.4080    9.8710   50.8530 O.2   534  HIS534     -0.2867
    115  CB        32.2410    9.5560   47.8580 C.3   534  HIS534      0.0745
    116  CG        31.2660    9.7440   46.7390 C.ar  534  HIS534      0.0817
    117  ND1       30.1950   10.6080   46.8230 N.ar  534  HIS534     -0.2268
    118  CD2       31.1990    9.1810   45.5100 C.ar  534  HIS534      0.1154
    119  CE1       29.5100   10.5680   45.6940 C.ar  534  HIS534      0.1986
    120  NE2       30.0990    9.7100   44.8800 N.ar  534  HIS534     -0.2212
    121  N         26.1670   13.0780   45.5200 N.3   593  GLU593     -0.1245
    122  CA        26.9480   13.1250   44.2910 C.3   593  GLU593      0.1567
    123  C         27.3350   14.5480   43.9130 C.2   593  GLU593      0.2260
    124  O         28.4250   14.7630   43.3710 O.2   593  GLU593     -0.2867
    125  CB        26.1720   12.4610   43.1540 C.3   593  GLU593      0.0388
    126  CG        26.1370   10.9450   43.2480 C.3   593  GLU593      0.1160
    127  CD        27.5090   10.3170   43.0570 C.2   593  GLU593      0.3649
    128  OE1       28.3720   10.9410   42.4060 O.co2 593  GLU593     -0.2457
    129  OE2       27.7330    9.1960   43.5580 O.co2 593  GLU593     -0.2457
    130  N         33.3210   14.5280   29.1200 N.3   639  VAL639     -0.1231
    131  CA        33.0200   13.1870   29.6100 C.3   639  VAL639      0.1692
    132  C         31.5140   12.9520   29.6340 C.2   639  VAL639      0.2592
    133  O         31.0470   11.8320   29.3870 O.2   639  VAL639     -0.2718
    134  CB        33.6490   12.9720   31.0010 C.3   639  VAL639      0.0266
    135  CG1       33.1980   11.6500   31.6020 C.3   639  VAL639      0.0020
    136  CG2       35.1670   13.0200   30.9150 C.3   639  VAL639      0.0020
    137  N         30.7310   13.9980   29.9010 N.am  640  TRP640     -0.1976
    138  CA        29.2900   13.8750   30.0810 C.3   640  TRP640      0.1640
    139  C         28.5000   14.4480   28.9100 C.2   640  TRP640      0.2290
    140  O         27.3420   14.8420   29.0840 O.2   640  TRP640     -0.2864
    141  CB        28.8690   14.5480   31.3870 C.3   640  TRP640      0.0576
    142  CG        29.6340   14.0460   32.5670 C.ar  640  TRP640      0.0006
    143  CD1       30.6440   14.6860   33.2240 C.ar  640  TRP640      0.0946
    144  CD2       29.4630   12.7850   33.2220 C.ar  640  TRP640      0.0152
    145  NE1       31.1070   13.9050   34.2550 N.ar  640  TRP640     -0.2442
    146  CE2       30.3990   12.7320   34.2740 C.ar  640  TRP640      0.0810
    147  CE3       28.6070   11.6970   33.0240 C.ar  640  TRP640      0.0012
    148  CZ2       30.5020   11.6340   35.1250 C.ar  640  TRP640      0.0191
    149  CZ3       28.7110   10.6100   33.8680 C.ar  640  TRP640      0.0001
    150  CH2       29.6510   10.5850   34.9060 C.ar  640  TRP640      0.0015
    151  N         18.1500    7.4390   39.9600 N.3   656  ASP656     -0.1239
    152  CA        19.5820    7.7040   39.8770 C.3   656  ASP656      0.1674
    153  C         19.9710    8.7320   40.9350 C.2   656  ASP656      0.2266
    154  O         19.4260    9.8410   40.9620 O.2   656  ASP656     -0.2867
    155  CB        19.9490    8.1990   38.4780 C.3   656  ASP656      0.1410
    156  CG        21.4420    8.1260   38.1980 C.2   656  ASP656      0.3668
    157  OD1       22.2340    7.9950   39.1550 O.co2 656  ASP656     -0.2456
    158  OD2       21.8250    8.2050   37.0110 O.co2 656  ASP656     -0.2456
    159  N         22.7130   10.1970   40.9190 N.3   658  HIS658     -0.1241
    160  CA        23.5110   11.1860   40.2120 C.3   658  HIS658      0.1621
    161  C         22.6020   12.1860   39.5090 C.2   658  HIS658      0.2264
    162  O         21.4580   11.8790   39.1630 O.2   658  HIS658     -0.2867
    163  CB        24.4240   10.5240   39.1750 C.3   658  HIS658      0.0745
    164  CG        25.3240    9.4660   39.7330 C.ar  658  HIS658      0.0817
    165  ND1       24.8660    8.2220   40.1110 N.ar  658  HIS658     -0.2268
    166  CD2       26.6590    9.4600   39.9600 C.ar  658  HIS658      0.1154
    167  CE1       25.8790    7.4990   40.5560 C.ar  658  HIS658      0.1986
    168  NE2       26.9780    8.2280   40.4750 N.ar  658  HIS658     -0.2212
    169  N         25.5270   18.2400   35.8450 N.3   664  ARG664     -0.1245
    170  CA        26.7800   17.9620   36.5360 C.3   664  ARG664      0.1563
    171  C         27.8810   18.8990   36.0630 C.2   664  ARG664      0.2260
    172  O         28.7930   19.2270   36.8300 O.2   664  ARG664     -0.2867
    173  CB        27.1940   16.5050   36.3300 C.3   664  ARG664      0.0307
    174  CG        26.2970   15.5020   37.0330 C.3   664  ARG664      0.0489
    175  CD        26.8190   14.0780   36.8950 C.3   664  ARG664      0.2205
    176  NE        28.0500   13.8500   37.6460 N.pl3 664  ARG664     -0.0865
    177  CZ        28.5520   12.6460   37.9030 C.cat 664  ARG664      0.5346
    178  NH1       27.9230   11.5600   37.4740 N.pl3 664  ARG664      0.1354
    179  NH2       29.6770   12.5250   38.5930 N.pl3 664  ARG664      0.1354
@<TRIPOS>BOND
     1     4     3    2
     2     3     2    1
     3    25    26    2
     4    25    24    1
     5     1     2    1
     6     2     5    1
     7    23    24    1
     8    12    13    1
     9    24    27    1
    10   139   140    2
    11   139   138    1
    12    14    15    2
    13    14    13    1
    14   130   131    1
    15    27    28    1
    16   133   132    2
    17     5     6    1
    18    13    16    1
    19     6     7    1
    20   131   132    1
    21   131   134    1
    22   132   137   am
    23   137   138    1
    24   138   141    1
    25    66    67    1
    26    28    29    1
    27    16    17    1
    28   136   134    1
    29     7     8    1
    30   134   135    1
    31     8     9    2
    32    29    30    1
    33   141   142    1
    34    67    68    1
    35    67    70    1
    36    75    73   ar
    37    75    76   ar
    38    17    18   ar
    39    17    19   ar
    40    73    71   ar
    41    68    69    2
    42     9    11    1
    43     9    10    1
    44    18    20   ar
    45   142   144   ar
    46   142   143   ar
    47    19    21   ar
    48    30    31    2
    49    76    74   ar
    50    71    70    1
    51    71    72   ar
    52    32    31    1
    53   147   144   ar
    54   147   149   ar
    55   144   146   ar
    56   143   145   ar
    57    74    72   ar
    58    31    33    1
    59    61    60    2
    60    20    22   ar
    61    21    22   ar
    62    60    59    1
    63   149   150   ar
    64    59    58    1
    65    59    62    1
    66   145   146   ar
    67   146   148   ar
    68   150   148   ar
    69    63    62    1
    70    63    65    1
    71    62    64    1
    72    34    35    1
    73   169   170    1
    74   171   170    1
    75   171   172    2
    76   173   170    1
    77   173   174    1
    78   175   174    1
    79   175   176    1
    80    35    38    1
    81    35    36    1
    82   158   156   ar
    83    91    89    1
    84   178   177    1
    85    38    39    1
    86   176   177    2
    87    37    36    2
    88    41    39   am
    89   177   179    1
    90    39    40    2
    91    36    42   am
    92    81    82    1
    93    81    78    1
    94   156   155    1
    95   156   157   ar
    96    89    90    1
    97    89    86    1
    98    83    82    1
    99    83    84    1
   100   155   152    1
   101    77    78    1
   102    85    86    1
   103    85    79   am
   104    78    79    1
   105    42    43    1
   106   162   161    2
   107   163   164    1
   108   163   160    1
   109    86    87    1
   110   161   160    1
   111    79    80    2
   112   164   166   ar
   113   164   165   ar
   114   152   151    1
   115   152   153    1
   116   166   168   ar
   117   165   167   ar
   118   160   159    1
   119    43    46    1
   120    43    44    1
   121    57    56   ar
   122    57    55   ar
   123   168   167   ar
   124    56    54   ar
   125    87    88    2
   126   153   154    2
   127    55    53   ar
   128    45    44    2
   129    44    47   am
   130    54    52   ar
   131    98   100   ar
   132    98    97   ar
   133   100   101   ar
   134    96    97    1
   135    96    93    1
   136    97    99   ar
   137   110   108   ar
   138   128   127   ar
   139    53    52   ar
   140   101    99   ar
   141    47    48    1
   142    52    51    1
   143   127   126    1
   144   127   129   ar
   145   125   126    1
   146   125   122    1
   147    92    93    1
   148   108   107    1
   149   108   109   ar
   150   124   123    2
   151   107   106    1
   152    93    94    1
   153    48    51    1
   154    48    49    1
   155   123   122    1
   156   122   121    1
   157   102    94   am
   158   102   103    1
   159    94    95    2
   160   106   103    1
   161   120   118   ar
   162   120   119   ar
   163    49    50    2
   164   103   104    1
   165   118   116   ar
   166   119   117   ar
   167   104   105    2
   168   116   117   ar
   169   116   115    1
   170   115   112    1
   171   111   112    1
   172   112   113    1
   173   113   114    2
