@<TRIPOS>MOLECULE
tmp/5v49B00.pdb
 211 210 0 0 0
SMALL
GASTEIGER

@<TRIPOS>ATOM
      1  N         32.8690  -11.5570    5.1860 N.3    16  PRO16      -0.2102
      2  CA        33.9450  -12.0770    6.0260 C.3    16  PRO16       0.1504
      3  C         33.6640  -11.6380    7.4610 C.2    16  PRO16       0.2576
      4  O         32.8840  -10.6960    7.6730 O.2    16  PRO16      -0.2718
      5  CB        35.1990  -11.3730    5.4830 C.3    16  PRO16       0.0282
      6  CG        34.7780  -10.7380    4.1790 C.3    16  PRO16       0.0208
      7  CD        33.3280  -10.4210    4.3800 C.3    16  PRO16       0.0893
      8  N         34.2770  -12.3050    8.4230 N.am   17  ILE17      -0.1966
      9  CA        34.2750  -11.8320    9.8100 C.3    17  ILE17       0.1727
     10  C         35.5440  -11.0160   10.0280 C.2    17  ILE17       0.2616
     11  O         36.6260  -11.4400    9.6560 O.2    17  ILE17      -0.2715
     12  CB        34.1000  -12.9670   10.8410 C.3    17  ILE17       0.0290
     13  CG1       35.1170  -14.1000   10.6360 C.3    17  ILE17       0.0022
     14  CG2       32.6760  -13.5120   10.7420 C.3    17  ILE17       0.0023
     15  CD1       35.2140  -15.0290   11.8260 C.3    17  ILE17       0.0001
     16  N         35.4000   -9.8350   10.6220 N.am   18  TYR18      -0.1960
     17  CA        36.4700   -8.8330   10.6190 C.3    18  TYR18       0.1771
     18  C         37.3020   -8.8600   11.9050 C.2    18  TYR18       0.2619
     19  O         36.7680   -9.0980   13.0000 O.2    18  TYR18      -0.2715
     20  CB        35.8570   -7.4600   10.3850 C.3    18  TYR18       0.0574
     21  CG        34.8750   -7.4560    9.2340 C.ar   18  TYR18      -0.0198
     22  CD1       35.3210   -7.5720    7.9160 C.ar   18  TYR18      -0.0009
     23  CD2       33.5020   -7.3590    9.4590 C.ar   18  TYR18      -0.0009
     24  CE1       34.4310   -7.5660    6.8460 C.ar   18  TYR18       0.0417
     25  CE2       32.5990   -7.3500    8.4010 C.ar   18  TYR18       0.0417
     26  CZ        33.0650   -7.4620    7.1010 C.ar   18  TYR18       0.1957
     27  OH        32.2090   -7.4510    6.0360 O.3    18  TYR18      -0.2866
     28  N         38.6130   -8.6680   11.7600 N.am   19  TYR19      -0.1974
     29  CA        39.5580   -8.7360   12.8760 C.3    19  TYR19       0.1639
     30  C         39.3870   -7.5170   13.7810 C.2    19  TYR19       0.2290
     31  O         39.3110   -6.3890   13.3040 O.2    19  TYR19      -0.2864
     32  CB        41.0040   -8.9450   12.3480 C.3    19  TYR19       0.0560
     33  CG        41.9520   -9.6770   13.3120 C.ar   19  TYR19      -0.0198
     34  CD1       41.5050  -10.7470   14.0790 C.ar   19  TYR19      -0.0009
     35  CD2       43.3030   -9.3450   13.3980 C.ar   19  TYR19      -0.0009
     36  CE1       42.3330  -11.4450   14.9270 C.ar   19  TYR19       0.0417
     37  CE2       44.1560  -10.0490   14.2460 C.ar   19  TYR19       0.0417
     38  CZ        43.6660  -11.1000   15.0100 C.ar   19  TYR19       0.1957
     39  OH        44.4970  -11.7970   15.8670 O.3    19  TYR19      -0.2866
     40  N         36.0740  -11.6080   14.1240 N.3    56  ASP56      -0.1239
     41  CA        37.1290  -12.5920   14.2830 C.3    56  ASP56       0.1674
     42  C         37.9640  -12.0880   15.4920 C.2    56  ASP56       0.2266
     43  O         38.7040  -11.0990   15.3730 O.2    56  ASP56      -0.2867
     44  CB        37.9480  -12.5930   12.9740 C.3    56  ASP56       0.1410
     45  CG        38.9950  -13.6860   12.9130 C.2    56  ASP56       0.3668
     46  OD1       39.0290  -14.5870   13.7570 O.co2  56  ASP56      -0.2456
     47  OD2       39.7700  -13.7040   11.9480 O.co2  56  ASP56      -0.2456
     48  N         40.0000  -13.9710   18.1640 N.3    58  HIS58      -0.1226
     49  CA        41.1620  -14.6350   18.7540 C.3    58  HIS58       0.1752
     50  C         42.4650  -14.2210   18.0830 C.2    58  HIS58       0.2597
     51  O         42.4680  -13.5250   17.0630 O.2    58  HIS58      -0.2718
     52  CB        40.9890  -16.1570   18.6620 C.3    58  HIS58       0.0759
     53  CG        39.8280  -16.6760   19.4460 C.ar   58  HIS58       0.0818
     54  ND1       38.8740  -17.5160   18.9130 N.ar   58  HIS58      -0.2268
     55  CD2       39.4660  -16.4650   20.7320 C.ar   58  HIS58       0.1154
     56  CE1       37.9710  -17.7940   19.8360 C.ar   58  HIS58       0.1986
     57  NE2       38.3100  -17.1700   20.9510 N.ar   58  HIS58      -0.2212
     58  N         43.5740  -14.6340   18.6840 N.am   59  GLY59      -0.1942
     59  CA        44.8900  -14.4860   18.0690 C.3    59  GLY59       0.2014
     60  C         45.8760  -13.5510   18.7410 C.2    59  GLY59       0.2639
     61  O         45.5170  -12.7190   19.5730 O.2    59  GLY59      -0.2714
     62  N         47.1270  -13.6900   18.3150 N.am   60  GLN60      -0.1963
     63  CA        48.2480  -12.9540   18.8710 C.3    60  GLN60       0.1733
     64  C         48.0630  -11.4270   18.8360 C.2    60  GLN60       0.2616
     65  O         48.2240  -10.7500   19.8600 O.2    60  GLN60      -0.2715
     66  CB        49.5240  -13.3500   18.1330 C.3    60  GLN60       0.0408
     67  CG        50.8050  -12.8440   18.7600 C.3    60  GLN60       0.0908
     68  CD        51.9800  -13.1780   17.8310 C.2    60  GLN60       0.2608
     69  OE1       52.2760  -14.3470   17.6050 O.2    60  GLN60      -0.2717
     70  NE2       52.5740  -12.1700   17.2060 N.am   60  GLN60      -0.0878
     71  N         47.7280  -10.8980   17.6620 N.am   61  LYS61      -0.1977
     72  CA        47.5910   -9.4410   17.4780 C.3    61  LYS61       0.1600
     73  C         46.4370   -8.8510   18.3170 C.2    61  LYS61       0.2287
     74  O         46.5550   -7.7310   18.8150 O.2    61  LYS61      -0.2864
     75  CB        47.5380   -9.0450   15.9980 C.3    61  LYS61       0.0344
     76  CG        48.7220   -9.4520   15.1300 C.3    61  LYS61       0.0297
     77  CD        49.9530   -8.5620   15.3540 C.2    61  LYS61      -0.0067
     78  CE        51.3400   -9.1820   14.9520 C.2    61  LYS61       0.1012
     79  NZ        51.3120  -10.5680   14.3770 N.pl3  61  LYS61      -0.1270
     80  N         54.3470  -15.2530   12.7960 N.3   137  GLU137     -0.1245
     81  CA        53.6870  -16.5340   13.0940 C.3   137  GLU137      0.1567
     82  C         53.8950  -17.5190   11.9330 C.2   137  GLU137      0.2260
     83  O         52.9800  -18.2400   11.5420 O.2   137  GLU137     -0.2867
     84  CB        52.1780  -16.3310   13.3750 C.3   137  GLU137      0.0388
     85  CG        51.8450  -14.9780   14.0530 C.3   137  GLU137      0.1160
     86  CD        50.4270  -14.8510   14.6300 C.2   137  GLU137      0.3649
     87  OE1       49.7940  -13.7560   14.5330 O.co2 137  GLU137     -0.2457
     88  OE2       49.9370  -15.8310   15.2040 O.co2 137  GLU137     -0.2457
     89  N         50.2980  -17.3580   20.9970 N.3   222  LEU222     -0.1245
     90  CA        49.0220  -16.6340   20.9340 C.3   222  LEU222      0.1561
     91  C         48.5570  -15.9320   22.2290 C.2   222  LEU222      0.2260
     92  O         47.4020  -15.4680   22.3120 O.2   222  LEU222     -0.2867
     93  CB        47.9310  -17.6210   20.4920 C.3   222  LEU222      0.0270
     94  CG        48.2090  -18.4340   19.2310 C.3   222  LEU222      0.0019
     95  CD1       47.0100  -19.3020   18.8970 C.3   222  LEU222      0.0001
     96  CD2       48.5520  -17.5030   18.0790 C.3   222  LEU222      0.0001
     97  N         42.9110  -18.0540   22.2070 N.3   226  ALA226     -0.1245
     98  CA        42.5310  -18.8850   21.0550 C.3   226  ALA226      0.1562
     99  C         41.7760  -20.1380   21.5250 C.2   226  ALA226      0.2260
    100  O         41.7360  -20.4410   22.7270 O.2   226  ALA226     -0.2867
    101  CB        43.7710  -19.2690   20.2550 C.3   226  ALA226      0.0290
    102  N         44.0210  -23.7400   18.0800 N.3   237  VAL237     -0.1231
    103  CA        43.5600  -23.7750   16.7080 C.3   237  VAL237      0.1692
    104  C         43.9330  -22.4420   16.0830 C.2   237  VAL237      0.2592
    105  O         43.6160  -21.3660   16.5980 O.2   237  VAL237     -0.2718
    106  CB        42.0490  -23.9890   16.6200 C.3   237  VAL237      0.0266
    107  CG1       41.5890  -23.9810   15.1620 C.3   237  VAL237      0.0020
    108  CG2       41.6800  -25.3080   17.2990 C.3   237  VAL237      0.0020
    109  N         44.6420  -22.5060   14.9690 N.am  238  TYR238     -0.1962
    110  CA        45.0850  -21.2800   14.3640 C.3   238  TYR238      0.1771
    111  C         43.9070  -20.6300   13.5390 C.2   238  TYR238      0.2619
    112  O         42.7420  -21.0990   13.5690 O.2   238  TYR238     -0.2715
    113  CB        46.4030  -21.5160   13.5960 C.3   238  TYR238      0.0574
    114  CG        47.0920  -20.2500   13.0900 C.ar  238  TYR238     -0.0198
    115  CD1       47.1500  -19.0850   13.8640 C.ar  238  TYR238     -0.0009
    116  CD2       47.6560  -20.2040   11.8170 C.ar  238  TYR238     -0.0009
    117  CE1       47.7220  -17.9120   13.3850 C.ar  238  TYR238      0.0417
    118  CE2       48.2480  -19.0410   11.3330 C.ar  238  TYR238      0.0417
    119  CZ        48.2720  -17.8970   12.1170 C.ar  238  TYR238      0.1957
    120  OH        48.8640  -16.7440   11.6260 O.3   238  TYR238     -0.2866
    121  N         44.1790  -19.5290   12.8400 N.am  239  VAL239     -0.1963
    122  CA        43.1420  -18.7780   12.1160 C.3   239  VAL239      0.1727
    123  C         42.2680  -19.5840   11.1460 C.2   239  VAL239      0.2616
    124  O         41.0690  -19.3140   11.0320 O.2   239  VAL239     -0.2715
    125  CB        43.7450  -17.5460   11.3950 C.3   239  VAL239      0.0290
    126  CG1       44.7100  -17.9550   10.2950 C.3   239  VAL239      0.0023
    127  CG2       42.6540  -16.6420   10.8460 C.3   239  VAL239      0.0023
    128  N         42.8400  -20.5820   10.4880 N.am  240  TRP240     -0.1974
    129  CA        42.1900  -21.2130    9.3530 C.3   240  TRP240      0.1640
    130  C         40.9040  -21.9240    9.7940 C.2   240  TRP240      0.2290
    131  O         39.8160  -21.5610    9.3390 O.2   240  TRP240     -0.2864
    132  CB        43.1550  -22.1680    8.6540 C.3   240  TRP240      0.0576
    133  CG        44.5280  -21.5870    8.4050 C.ar  240  TRP240      0.0006
    134  CD1       45.7310  -22.0730    8.8800 C.ar  240  TRP240      0.0946
    135  CD2       44.8430  -20.4020    7.6670 C.ar  240  TRP240      0.0152
    136  NE1       46.7650  -21.2690    8.4540 N.ar  240  TRP240     -0.2442
    137  CE2       46.2540  -20.2390    7.7110 C.ar  240  TRP240      0.0810
    138  CE3       44.0770  -19.4710    6.9580 C.ar  240  TRP240      0.0012
    139  CZ2       46.9080  -19.1730    7.0790 C.ar  240  TRP240      0.0191
    140  CZ3       44.7270  -18.4080    6.3360 C.ar  240  TRP240      0.0001
    141  CH2       46.1260  -18.2700    6.3980 C.ar  240  TRP240      0.0015
    142  N         39.5160  -21.7920   12.8240 N.3   242  ASP242     -0.1225
    143  CA        38.6570  -20.9440   13.6310 C.3   242  ASP242      0.1805
    144  C         37.7700  -19.9970   12.8090 C.2   242  ASP242      0.2598
    145  O         36.5370  -20.1140   12.8570 O.2   242  ASP242     -0.2718
    146  CB        39.5080  -20.1940   14.6640 C.3   242  ASP242      0.1424
    147  CG        38.7060  -19.2610   15.5720 C.2   242  ASP242      0.3668
    148  OD1       37.4490  -19.1840   15.4830 O.co2 242  ASP242     -0.2456
    149  OD2       39.3640  -18.6320   16.4330 O.co2 242  ASP242     -0.2456
    150  N         38.3840  -19.0940   12.0480 N.am  243  ALA243     -0.1966
    151  CA        37.6360  -18.0300   11.3710 C.3   243  ALA243      0.1728
    152  C         36.7340  -18.5660   10.2540 C.2   243  ALA243      0.2616
    153  O         35.5530  -18.2410   10.2190 O.2   243  ALA243     -0.2715
    154  CB        38.5790  -16.9550   10.8250 C.3   243  ALA243      0.0334
    155  N         37.2740  -19.4050    9.3650 N.am  244  LEU244     -0.1977
    156  CA        36.4760  -19.9310    8.2350 C.3   244  LEU244      0.1596
    157  C         35.2650  -20.7300    8.7090 C.2   244  LEU244      0.2287
    158  O         34.1910  -20.6980    8.0960 O.2   244  LEU244     -0.2864
    159  CB        37.3350  -20.7800    7.3000 C.3   244  LEU244      0.0297
    160  CG        38.3890  -20.0000    6.5120 C.3   244  LEU244      0.0022
    161  CD1       39.4670  -20.9270    5.9540 C.3   244  LEU244      0.0001
    162  CD2       37.7410  -19.2120    5.3770 C.3   244  LEU244      0.0001
    163  N         33.2240  -20.0530   10.9800 N.3   246  ASN246     -0.1225
    164  CA        32.0780  -19.2150   11.3600 C.3   246  ASN246      0.1785
    165  C         30.8750  -19.4260   10.4470 C.2   246  ASN246      0.2597
    166  O         29.7360  -19.3850   10.9090 O.2   246  ASN246     -0.2718
    167  CB        32.4450  -17.7240   11.3990 C.3   246  ASN246      0.1169
    168  CG        32.1980  -17.0250   10.0720 C.2   246  ASN246      0.2627
    169  OD1       31.0970  -16.5170    9.8170 O.2   246  ASN246     -0.2716
    170  ND2       33.2060  -17.0100    9.2280 N.am  246  ASN246     -0.0877
    171  N         31.1430  -19.6530    9.1600 N.am  247  TYR247     -0.1976
    172  CA        30.0830  -19.9130    8.1860 C.3   247  TYR247      0.1639
    173  C         29.2840  -21.1820    8.5090 C.2   247  TYR247      0.2290
    174  O         28.0530  -21.1940    8.3960 O.2   247  TYR247     -0.2864
    175  CB        30.6620  -20.0260    6.7740 C.3   247  TYR247      0.0560
    176  CG        31.5070  -18.8510    6.3280 C.ar  247  TYR247     -0.0198
    177  CD1       31.0690  -17.5340    6.4920 C.ar  247  TYR247     -0.0009
    178  CD2       32.7450  -19.0550    5.7390 C.ar  247  TYR247     -0.0009
    179  CE1       31.8500  -16.4610    6.0870 C.ar  247  TYR247      0.0417
    180  CE2       33.5290  -17.9890    5.3190 C.ar  247  TYR247      0.0417
    181  CZ        33.0800  -16.6920    5.4970 C.ar  247  TYR247      0.1957
    182  OH        33.8850  -15.6640    5.0620 O.3   247  TYR247     -0.2866
    183  N         41.7110  -12.4390    0.5980 N.3   285  ILE285     -0.1245
    184  CA        41.4550  -13.6880    1.2990 C.3   285  ILE285      0.1561
    185  C         40.8460  -14.7580    0.3890 C.2   285  ILE285      0.2260
    186  O         40.2830  -15.7340    0.8680 O.2   285  ILE285     -0.2867
    187  CB        40.6470  -13.4580    2.5860 C.3   285  ILE285      0.0252
    188  CG1       39.2300  -12.9390    2.2940 C.3   285  ILE285      0.0019
    189  CG2       41.3970  -12.4610    3.4620 C.3   285  ILE285      0.0019
    190  CD1       38.4230  -12.6270    3.5420 C.3   285  ILE285      0.0001
    191  N         42.1830  -18.4210    0.9000 N.3   288  PHE288     -0.1227
    192  CA        41.6680  -19.0250    2.1280 C.3   288  PHE288      0.1736
    193  C         40.2720  -19.5940    1.8840 C.2   288  PHE288      0.2595
    194  O         39.9440  -20.6780    2.3830 O.2   288  PHE288     -0.2718
    195  CB        41.6840  -17.9820    3.2560 C.3   288  PHE288      0.0547
    196  CG        43.0170  -17.2510    3.3630 C.ar  288  PHE288     -0.0202
    197  CD1       44.2140  -17.8560    2.9700 C.ar  288  PHE288     -0.0042
    198  CD2       43.0770  -15.9570    3.8550 C.ar  288  PHE288     -0.0042
    199  CE1       45.4350  -17.1820    3.0640 C.ar  288  PHE288     -0.0003
    200  CE2       44.2930  -15.2760    3.9610 C.ar  288  PHE288     -0.0003
    201  CZ        45.4760  -15.8950    3.5670 C.ar  288  PHE288     -0.0000
    202  N         39.4660  -18.8450    1.1290 N.am  289  HIS289     -0.1975
    203  CA        38.0720  -19.2100    0.8320 C.3   289  HIS289      0.1656
    204  C         37.9030  -20.1700   -0.3450 C.2   289  HIS289      0.2291
    205  O         36.9730  -20.9580   -0.3540 O.2   289  HIS289     -0.2864
    206  CB        37.2230  -17.9440    0.6230 C.3   289  HIS289      0.0771
    207  CG        36.9380  -17.2060    1.8920 C.ar  289  HIS289      0.0820
    208  ND1       37.8790  -16.4220    2.5230 N.ar  289  HIS289     -0.2267
    209  CD2       35.8380  -17.1820    2.6840 C.ar  289  HIS289      0.1154
    210  CE1       37.3600  -15.9210    3.6350 C.ar  289  HIS289      0.1986
    211  NE2       36.1240  -16.3670    3.7560 N.ar  289  HIS289     -0.2212
@<TRIPOS>BOND
     1   205   204    2
     2   204   203    1
     3   185   186    2
     4   185   184    1
     5   183   184    1
     6   206   203    1
     7   206   207    1
     8   203   202    1
     9   191   192    1
    10   202   193   am
    11   184   187    1
    12   193   192    1
    13   193   194    2
    14   207   208   ar
    15   207   209   ar
    16   192   195    1
    17   188   187    1
    18   188   190    1
    19   208   210   ar
    20   187   189    1
    21   209   211   ar
    22   197   199   ar
    23   197   196   ar
    24   199   201   ar
    25   195   196    1
    26   196   198   ar
    27   201   200   ar
    28   210   211   ar
    29   198   200   ar
    30     6     7    1
    31     6     5    1
    32     7     1    1
    33   182   181    1
    34     1     2    1
    35   180   181   ar
    36   180   178   ar
    37   162   160    1
    38     5     2    1
    39   181   179   ar
    40   178   176   ar
    41   161   160    1
    42     2     3    1
    43    27    26    1
    44   179   177   ar
    45   176   177   ar
    46   176   175    1
    47   140   141   ar
    48   140   138   ar
    49   141   139   ar
    50   160   159    1
    51   175   172    1
    52    24    26   ar
    53    24    22   ar
    54   138   135   ar
    55   139   137   ar
    56    26    25   ar
    57   159   156    1
    58     3     4    2
    59     3     8   am
    60   135   137   ar
    61   135   133   ar
    62   137   136   ar
    63    22    21   ar
    64   158   157    2
    65   172   173    1
    66   172   171    1
    67   156   157    1
    68   156   155    1
    69   174   173    2
    70    25    23   ar
    71   133   132    1
    72   133   134   ar
    73     8     9    1
    74   136   134   ar
    75   132   129    1
    76   171   165   am
    77   170   168   am
    78    21    23   ar
    79    21    20    1
    80   131   130    2
    81   129   130    1
    82   129   128    1
    83   155   152   am
    84    11    10    2
    85     9    10    1
    86     9    12    1
    87   169   168    2
    88    10    16   am
    89   168   167    1
    90   153   152    2
    91   152   151    1
    92   126   125    1
    93    20    17    1
    94   165   166    2
    95   165   164    1
    96   128   123   am
    97    17    16    1
    98    17    18    1
    99    13    12    1
   100    13    15    1
   101    14    12    1
   102   154   151    1
   103   127   125    1
   104   163   164    1
   105   124   123    2
   106   123   122    1
   107   118   116   ar
   108   118   119   ar
   109   164   167    1
   110   151   150    1
   111   125   122    1
   112    83    82    2
   113   120   119    1
   114    28    18   am
   115    28    29    1
   116   116   114   ar
   117    18    19    2
   118    82    81    1
   119    47    45   ar
   120   150   144   am
   121   122   121    1
   122   119   117   ar
   123    32    29    1
   124    32    33    1
   125    80    81    1
   126   144   145    2
   127   144   143    1
   128   142   143    1
   129   121   111   am
   130    29    30    1
   131    45    44    1
   132    45    46   ar
   133    44    41    1
   134   114   113    1
   135   114   115   ar
   136    81    84    1
   137    31    30    2
   138    33    35   ar
   139    33    34   ar
   140    84    85    1
   141   117   115   ar
   142    35    37   ar
   143   111   112    2
   144   111   110    1
   145   113   110    1
   146   143   146    1
   147    85    86    1
   148    34    36   ar
   149    40    41    1
   150    37    38   ar
   151    41    42    1
   152   110   109    1
   153    79    78    1
   154    87    86   ar
   155    86    88   ar
   156   146   147    1
   157    36    38   ar
   158    78    77    2
   159   109   104   am
   160    38    39    1
   161    76    77    1
   162    76    75    1
   163   107   106    1
   164    43    42    2
   165   148   147   ar
   166   147   149   ar
   167    75    72    1
   168   104   105    2
   169   104   103    1
   170   106   103    1
   171   106   108    1
   172   103   102    1
   173    51    50    2
   174    70    68   am
   175    72    71    1
   176    72    73    1
   177    69    68    2
   178    71    64   am
   179    68    67    1
   180    59    58    1
   181    59    60    1
   182    96    94    1
   183    50    58   am
   184    50    49    1
   185    66    67    1
   186    66    63    1
   187    48    49    1
   188    62    60   am
   189    62    63    1
   190    73    74    2
   191    52    49    1
   192    52    53    1
   193    60    61    2
   194    64    63    1
   195    64    65    2
   196    95    94    1
   197    54    53   ar
   198    54    56   ar
   199    94    93    1
   200    53    55   ar
   201    56    57   ar
   202   101    98    1
   203    93    90    1
   204    55    57   ar
   205    90    89    1
   206    90    91    1
   207    98    99    1
   208    98    97    1
   209    99   100    2
   210    91    92    2
