@<TRIPOS>MOLECULE
tmp/5v4aB00.pdb
 221 209 0 0 0
SMALL
GASTEIGER

@<TRIPOS>ATOM
      1  N         14.3070   23.8520  102.3300 N.3    23  ARG23      -0.1245
      2  CA        13.4960   25.0590  102.2460 C.3    23  ARG23       0.1563
      3  C         12.9770   25.4350  103.6180 C.2    23  ARG23       0.2260
      4  O         12.6340   24.5640  104.4140 O.2    23  ARG23      -0.2867
      5  CB        12.2910   24.9210  101.2940 C.3    23  ARG23       0.0307
      6  CG        12.5430   24.1550   99.9970 C.3    23  ARG23       0.0489
      7  CD        11.2210   23.8330   99.2910 C.3    23  ARG23       0.2205
      8  NE        10.5070   22.8130  100.0600 N.pl3  23  ARG23      -0.0865
      9  CZ         9.5540   23.0660  100.9580 C.cat  23  ARG23       0.5346
     10  NH1        9.1220   24.3030  101.1550 N.pl3  23  ARG23       0.1354
     11  NH2        9.0130   22.0650  101.6290 N.pl3  23  ARG23       0.1354
     12  N         10.0840   27.8730  105.4390 N.3    25  GLY25      -0.1225
     13  CA         8.8840   28.6520  105.2140 C.3    25  GLY25       0.1811
     14  C          8.3990   29.3300  106.4770 C.2    25  GLY25       0.2280
     15  O          9.1590   29.4850  107.4330 O.2    25  GLY25      -0.2866
     16  N          8.7590   27.3020  109.7550 N.3    28  GLU28      -0.1245
     17  CA        10.1030   27.2110  110.3180 C.3    28  GLU28       0.1567
     18  C         10.4760   28.4900  111.0440 C.2    28  GLU28       0.2260
     19  O         11.1100   28.4430  112.1060 O.2    28  GLU28      -0.2867
     20  CB        11.1190   26.9080  109.2170 C.3    28  GLU28       0.0388
     21  CG        11.1030   25.4690  108.7510 C.3    28  GLU28       0.1160
     22  CD         9.7730   25.0730  108.1360 C.2    28  GLU28       0.3649
     23  OE1        9.3760   25.6770  107.1040 O.co2  28  GLU28      -0.2457
     24  OE2        9.1190   24.1740  108.7100 O.co2  28  GLU28      -0.2457
     25  N          1.7970   20.7500  113.1130 N.3    39  TYR39      -0.1227
     26  CA         2.3410   19.3940  113.1120 C.3    39  TYR39       0.1736
     27  C          3.7620   19.3230  113.6670 C.2    39  TYR39       0.2595
     28  O          4.4700   18.3480  113.4080 O.2    39  TYR39      -0.2718
     29  CB         2.2740   18.7220  111.7320 C.3    39  TYR39       0.0548
     30  CG         2.6380   19.5460  110.5170 C.ar   39  TYR39      -0.0200
     31  CD1        1.7630   19.6220  109.4390 C.ar   39  TYR39      -0.0009
     32  CD2        3.8730   20.1780  110.4120 C.ar   39  TYR39      -0.0009
     33  CE1        2.0860   20.3320  108.3050 C.ar   39  TYR39       0.0417
     34  CE2        4.2050   20.9090  109.2900 C.ar   39  TYR39       0.0417
     35  CZ         3.3080   20.9710  108.2300 C.ar   39  TYR39       0.1957
     36  OH         3.6080   21.6900  107.1020 O.3    39  TYR39      -0.2866
     37  N          4.1850   20.3230  114.4350 N.am   40  GLN40      -0.1979
     38  CA         5.4410   20.2010  115.1730 C.3    40  GLN40       0.1601
     39  C          5.4030   21.1010  116.4070 C.2    40  GLN40       0.2287
     40  O          5.3980   22.3290  116.2830 O.2    40  GLN40      -0.2864
     41  CB         6.6250   20.5370  114.2700 C.3    40  GLN40       0.0394
     42  CG         7.9680   20.3960  114.9730 C.3    40  GLN40       0.0908
     43  CD         8.2620   18.9850  115.4860 C.2    40  GLN40       0.2608
     44  OE1        8.4320   18.0450  114.7070 O.2    40  GLN40      -0.2717
     45  NE2        8.3810   18.8480  116.8020 N.am   40  GLN40      -0.0878
     46  N         11.4830   28.9250   98.4850 N.3   108  THR108     -0.1218
     47  CA        10.7640   27.8710   99.1890 C.3   108  THR108      0.1862
     48  C          9.5060   27.4550   98.4290 C.2   108  THR108      0.2287
     49  O          9.0590   26.3050   98.5460 O.2   108  THR108     -0.2866
     50  CB        10.4440   28.3850  100.5960 C.3   108  THR108      0.1770
     51  OG1       11.6670   28.4600  101.3440 O.3   108  THR108     -0.2211
     52  CG2        9.4260   27.5020  101.3330 C.3   108  THR108      0.0375
     53  N          8.1380   24.1140   96.1180 N.3   111  SER111     -0.1202
     54  CA         7.1250   23.1650   96.5770 C.3   111  SER111      0.2020
     55  C          5.6900   23.6580   96.3820 C.2   111  SER111      0.2618
     56  O          4.7650   22.8490   96.4560 O.2   111  SER111     -0.2717
     57  CB         7.3690   22.8010   98.0530 C.3   111  SER111      0.2103
     58  OG         6.8760   23.8030   98.9120 O.3   111  SER111     -0.2182
     59  N          5.4860   24.9690   96.2370 N.am  112  ARG112     -0.1979
     60  CA         4.1730   25.6180   96.2900 C.3   112  ARG112      0.1597
     61  C          3.9250   26.3690   94.9820 C.2   112  ARG112      0.2287
     62  O          3.8880   27.6090   94.9710 O.2   112  ARG112     -0.2864
     63  CB         4.1110   26.5780   97.4780 C.3   112  ARG112      0.0334
     64  CG         4.6370   26.0070   98.7850 C.3   112  ARG112      0.0492
     65  CD         3.8440   24.8000   99.2570 C.3   112  ARG112      0.2205
     66  NE         2.4100   25.0920   99.2310 N.pl3 112  ARG112     -0.0865
     67  CZ         1.6060   25.1120  100.2920 C.cat 112  ARG112      0.5346
     68  NH1        2.0630   24.8520  101.5080 N.pl3 112  ARG112      0.1354
     69  NH2        0.3260   25.3950  100.1240 N.pl3 112  ARG112      0.1354
     70  N          5.4490   11.4740  106.0940 N.3   144  GLY144     -0.1225
     71  CA         4.6020   11.0650  107.1920 C.3   144  GLY144      0.1811
     72  C          3.4590   10.1430  106.7940 C.2   144  GLY144      0.2280
     73  O          3.1690    9.9120  105.6190 O.2   144  GLY144     -0.2866
     74  N          0.2350   10.3570  106.8690 N.3   146  THR146     -0.1203
     75  CA        -0.8810   10.8610  106.0670 C.3   146  THR146      0.1994
     76  C         -0.4500   11.5450  104.7750 C.2   146  THR146      0.2618
     77  O         -1.3140   11.9000  103.9660 O.2   146  THR146     -0.2717
     78  CB        -1.7440   11.8510  106.8570 C.3   146  THR146      0.1784
     79  OG1       -0.9980   13.0460  107.1170 O.3   146  THR146     -0.2211
     80  CG2       -2.2500   11.2350  108.1750 C.3   146  THR146      0.0376
     81  N          0.8490   11.7500  104.5550 N.am  147  SER147     -0.1951
     82  CA         1.2970   12.4760  103.3670 C.3   147  SER147      0.1924
     83  C          0.8140   11.8280  102.0680 C.2   147  SER147      0.2314
     84  O          0.2490   12.5080  101.2110 O.2   147  SER147     -0.2863
     85  CB         2.8160   12.6040  103.3760 C.3   147  SER147      0.2116
     86  OG         3.2000   13.6780  104.2020 O.3   147  SER147     -0.2180
     87  N          2.2360   11.0380   99.3100 N.3   149  SER149     -0.1217
     88  CA         2.6440   11.7860   98.1200 C.3   149  SER149      0.1889
     89  C          2.5800   10.9090   96.8770 C.2   149  SER149      0.2288
     90  O          3.1480    9.8120   96.8410 O.2   149  SER149     -0.2866
     91  CB         4.0530   12.3420   98.2940 C.3   149  SER149      0.2089
     92  OG         4.1100   13.2380   99.3900 O.3   149  SER149     -0.2183
     93  N          6.2470    9.6980  111.5510 N.3   168  PRO168     -0.2102
     94  CA         5.0870   10.3310  112.1910 C.3   168  PRO168      0.1504
     95  C          4.5520   11.4830  111.3560 C.2   168  PRO168      0.2576
     96  O          5.3080   12.2370  110.7400 O.2   168  PRO168     -0.2718
     97  CB         5.6390   10.8200  113.5330 C.3   168  PRO168      0.0282
     98  CG         6.7830    9.9140  113.8150 C.3   168  PRO168      0.0208
     99  CD         7.3980    9.6200  112.4750 C.3   168  PRO168      0.0893
    100  N          3.2230   11.5850  111.3290 N.am  169  SER169     -0.1938
    101  CA         2.5170   12.6810  110.6790 C.3   169  SER169      0.2055
    102  C          2.7110   14.0180  111.3810 C.2   169  SER169      0.2643
    103  O          2.4640   15.0660  110.7720 O.2   169  SER169     -0.2714
    104  CB         1.0220   12.3580  110.6250 C.3   169  SER169      0.2130
    105  OG         0.7480   11.5530  109.4940 O.3   169  SER169     -0.2179
    106  N          3.0750   14.0020  112.6620 N.am  170  ARG170     -0.1963
    107  CA         3.3660   15.2050  113.4220 C.3   170  ARG170      0.1729
    108  C          4.4300   14.8620  114.4520 C.2   170  ARG170      0.2616
    109  O          4.6060   13.6970  114.8220 O.2   170  ARG170     -0.2715
    110  CB         2.1090   15.7690  114.1160 C.3   170  ARG170      0.0348
    111  CG         1.5070   14.8110  115.1150 C.3   170  ARG170      0.0492
    112  CD         0.1800   15.3090  115.6770 C.3   170  ARG170      0.2205
    113  NE        -0.1500   14.5750  116.8920 N.pl3 170  ARG170     -0.0865
    114  CZ         0.2800   14.9070  118.1080 C.cat 170  ARG170      0.5346
    115  NH1        1.0380   15.9830  118.2850 N.pl3 170  ARG170      0.1354
    116  NH2       -0.0520   14.1650  119.1560 N.pl3 170  ARG170      0.1354
    117  N          5.1370   15.8910  114.9140 N.am  171  ASN171     -0.1958
    118  CA         6.1800   15.7160  115.9200 C.3   171  ASN171      0.1819
    119  C          7.1700   14.6380  115.5010 C.2   171  ASN171      0.2621
    120  O          7.6380   13.8350  116.3080 O.2   171  ASN171     -0.2715
    121  CB         5.5730   15.4100  117.2900 C.3   171  ASN171      0.1195
    122  CG         4.9420   16.6150  117.9000 C.2   171  ASN171      0.2630
    123  OD1        5.0590   17.7170  117.3730 O.2   171  ASN171     -0.2716
    124  ND2        4.2870   16.4310  119.0440 N.am  171  ASN171     -0.0877
    125  N          7.4860   14.6200  114.2120 N.am  172  ALA172     -0.1977
    126  CA         8.4190   13.6200  113.7120 C.3   172  ALA172      0.1597
    127  C          9.8290   13.8590  114.2230 C.2   172  ALA172      0.2287
    128  O         10.6220   12.9180  114.2390 O.2   172  ALA172     -0.2864
    129  CB         8.4060   13.5990  112.1840 C.3   172  ALA172      0.0319
    130  N          9.1340   14.8150  102.6890 N.3   195  MET195     -0.1230
    131  CA         7.9250   15.6060  102.8840 C.3   195  MET195      0.1702
    132  C          7.6640   15.4320  104.3770 C.2   195  MET195      0.2592
    133  O          6.9850   14.4780  104.7520 O.2   195  MET195     -0.2718
    134  CB         6.7550   15.0770  102.0500 C.3   195  MET195      0.0401
    135  CG         6.9270   14.9970  100.5120 C.3   195  MET195      0.0596
    136  SD         8.1550   13.8220   99.8430 S.3   195  MET195     -0.1393
    137  CE         7.4820   13.5040   98.2240 C.3   195  MET195      0.0692
    138  N          8.2720   16.2840  105.2300 N.am  196  LEU196     -0.1966
    139  CA         8.2690   16.0120  106.6690 C.3   196  LEU196      0.1728
    140  C          8.3800   17.2800  107.5100 C.2   196  LEU196      0.2617
    141  O          9.0300   17.2680  108.5660 O.2   196  LEU196     -0.2715
    142  CB         9.4150   15.0540  107.0450 C.3   196  LEU196      0.0311
    143  CG         9.1780   14.1820  108.2800 C.3   196  LEU196      0.0022
    144  CD1        7.9860   13.2650  108.0680 C.3   196  LEU196      0.0001
    145  CD2       10.4290   13.3830  108.6560 C.3   196  LEU196      0.0001
    146  N          7.8000   18.3880  107.0390 N.am  197  GLY197     -0.1941
    147  CA         7.7420   19.6130  107.8020 C.3   197  GLY197      0.1998
    148  C          9.1130   20.0420  108.3040 C.2   197  GLY197      0.2481
    149  O         10.1180   19.9340  107.5970 O.2   197  GLY197     -0.2729
    150  N          9.1790   20.5150  109.5540 N.am  198  PRO198     -0.2715
    151  CA        10.4730   20.9950  110.0840 C.3   198  PRO198      0.1536
    152  C         11.5330   19.9150  110.1840 C.2   198  PRO198      0.2599
    153  O         12.7380   20.2090  110.0380 O.2   198  PRO198     -0.2715
    154  CB        10.1050   21.5380  111.4790 C.3   198  PRO198      0.0310
    155  CG         8.5900   21.7140  111.4480 C.3   198  PRO198      0.0237
    156  CD         8.0850   20.6420  110.5290 C.3   198  PRO198      0.0939
    157  N         11.1270   18.6680  110.4300 N.am  199  THR199     -0.1951
    158  CA        12.1100   17.5990  110.5570 C.3   199  THR199      0.1897
    159  C         12.8410   17.3430  109.2490 C.2   199  THR199      0.2313
    160  O         14.0410   17.0240  109.2590 O.2   199  THR199     -0.2863
    161  CB        11.4350   16.3210  111.0380 C.3   199  THR199      0.1794
    162  OG1       10.7060   16.5930  112.2500 O.3   199  THR199     -0.2208
    163  CG2       12.4590   15.2290  111.2760 C.3   199  THR199      0.0378
    164  N         13.9540   19.4180  107.1990 N.3   201  LYS201     -0.1245
    165  CA        15.0540   20.3310  106.9160 C.3   201  LYS201      0.1561
    166  C         16.3310   19.8970  107.6190 C.2   201  LYS201      0.2260
    167  O         17.4260   20.0140  107.0540 O.2   201  LYS201     -0.2867
    168  CB        14.6810   21.7580  107.2950 C.3   201  LYS201      0.0271
    169  CG        13.5650   22.3380  106.4250 C.3   201  LYS201      0.0035
    170  CD        12.2000   22.0980  107.0290 C.3   201  LYS201      0.0206
    171  CE        11.1170   22.7860  106.2330 C.3   201  LYS201      0.1093
    172  NZ        10.6660   21.9760  105.0470 N.3   201  LYS201     -0.1314
    173  N         14.0880   18.3880   99.7620 N.3   216  ASP216     -0.1239
    174  CA        12.9560   18.7670  100.6040 C.3   216  ASP216      0.1674
    175  C         11.8730   19.3240   99.6870 C.2   216  ASP216      0.2266
    176  O         12.0190   20.4310   99.1580 O.2   216  ASP216     -0.2867
    177  CB        13.4330   19.8010  101.6220 C.3   216  ASP216      0.1410
    178  CG        12.3070   20.4630  102.4140 C.2   216  ASP216      0.3668
    179  OD1       12.6240   21.4410  103.1340 O.co2 216  ASP216     -0.2456
    180  OD2       11.1330   20.0270  102.3550 O.co2 216  ASP216     -0.2456
    181  N          8.2910   18.9650  100.4860 N.3   218  GLY218     -0.1210
    182  CA         7.1200   19.4210  101.2260 C.3   218  GLY218      0.1956
    183  C          5.7380   19.0980  100.6680 C.2   218  GLY218      0.2611
    184  O          5.4240   17.9280  100.4280 O.2   218  GLY218     -0.2717
    185  N          4.9120   20.1350  100.4600 N.am  219  HIS219     -0.1975
    186  CA         3.4960   19.9980  100.1110 C.3   219  HIS219      0.1656
    187  C          3.2540   19.8740   98.6270 C.2   219  HIS219      0.2291
    188  O          2.1550   20.2130   98.1620 O.2   219  HIS219     -0.2864
    189  CB         2.7010   21.1900  100.6300 C.3   219  HIS219      0.0771
    190  CG         2.2490   21.0180  102.0390 C.ar  219  HIS219      0.0820
    191  ND1        2.5570   21.9240  103.0300 N.ar  219  HIS219     -0.2267
    192  CD2        1.5410   20.0280  102.6310 C.ar  219  HIS219      0.1154
    193  CE1        2.0310   21.5120  104.1710 C.ar  219  HIS219      0.1986
    194  NE2        1.4140   20.3620  103.9570 N.ar  219  HIS219     -0.2212
    195  N         -3.4710   13.6550  103.5710 N.3   241  HIS241     -0.1241
    196  CA        -3.1440   14.9790  104.0770 C.3   241  HIS241      0.1621
    197  C         -3.3750   16.0410  103.0080 C.2   241  HIS241      0.2264
    198  O         -3.1720   15.8040  101.8170 O.2   241  HIS241     -0.2867
    199  CB        -1.6720   15.0270  104.5140 C.3   241  HIS241      0.0745
    200  CG        -1.2080   16.3910  104.9090 C.ar  241  HIS241      0.0817
    201  ND1       -1.5080   16.9570  106.1300 N.ar  241  HIS241     -0.2268
    202  CD2       -0.4890   17.3170  104.2290 C.ar  241  HIS241      0.1154
    203  CE1       -0.9820   18.1660  106.1890 C.ar  241  HIS241      0.1986
    204  NE2       -0.3480   18.4040  105.0540 N.ar  241  HIS241     -0.2212
    205  N         -2.2920   23.0840  104.4960 N.3   244  GLU244     -0.1245
    206  CA        -3.0150   24.1040  105.2540 C.3   244  GLU244      0.1567
    207  C         -4.3000   23.5590  105.8710 C.2   244  GLU244      0.2260
    208  O         -5.1490   24.3210  106.3320 O.2   244  GLU244     -0.2867
    209  CB        -3.2770   25.3490  104.3900 C.3   244  GLU244      0.0388
    210  CG        -2.0380   26.2440  104.2580 C.3   244  GLU244      0.1160
    211  CD        -1.0410   25.7510  103.2100 C.2   244  GLU244      0.3649
    212  OE1       -1.3170   25.8830  102.0000 O.co2 244  GLU244     -0.2457
    213  OE2        0.0160   25.2070  103.5990 O.co2 244  GLU244     -0.2457
    214  N         -5.0930   17.1810  110.2570 N.3   248  ASP248     -0.1239
    215  CA        -5.3860   15.8350  109.7420 C.3   248  ASP248      0.1674
    216  C         -6.6720   15.2550  110.3180 C.2   248  ASP248      0.2266
    217  O         -6.8000   14.0360  110.4660 O.2   248  ASP248     -0.2867
    218  CB        -4.2430   14.8420  109.9920 C.3   248  ASP248      0.1410
    219  CG        -3.0400   15.1210  109.1300 C.2   248  ASP248      0.3668
    220  OD1       -1.9110   14.7850  109.5520 O.co2 248  ASP248     -0.2456
    221  OD2       -3.2310   15.6960  108.0410 O.co2 248  ASP248     -0.2456
@<TRIPOS>BOND
     1    62    61    2
     2    61    60    1
     3    53    54    1
     4    59    60    1
     5    59    55   am
     6    60    63    1
     7    55    56    2
     8    55    54    1
     9    54    57    1
    10    90    89    2
    11    89    88    1
    12    63    64    1
    13    57    58    1
    14    88    91    1
    15    88    87    1
    16   188   187    2
    17   137   136    1
    18    91    92    1
    19    48    49    2
    20    48    47    1
    21    46    47    1
    22   187   186    1
    23    64    65    1
    24   176   175    2
    25    47    50    1
    26    66    65    1
    27    66    67    2
    28     7     6    1
    29     7     8    1
    30   175   174    1
    31   173   174    1
    32   136   135    1
    33     6     5    1
    34     8     9    2
    35   186   185    1
    36   186   189    1
    37    69    67    1
    38    67    68    1
    39   184   183    2
    40   185   183   am
    41   181   182    1
    42   135   134    1
    43    50    52    1
    44    50    51    1
    45   174   177    1
    46   189   190    1
    47   183   182    1
    48     9    10    1
    49     9    11    1
    50    84    83    2
    51     5     2    1
    52   177   178    1
    53   198   197    2
    54   212   211   ar
    55   190   192   ar
    56   190   191   ar
    57   134   131    1
    58    83    82    1
    59     2     1    1
    60     2     3    1
    61   180   178   ar
    62   178   179   ar
    63   192   194   ar
    64   130   131    1
    65   131   132    1
    66   197   196    1
    67   191   193   ar
    68   211   213   ar
    69   211   210    1
    70    82    85    1
    71    82    81    1
    72    85    86    1
    73   195   196    1
    74     3     4    2
    75   194   193   ar
    76    77    76    2
    77   196   199    1
    78   202   200   ar
    79   202   204   ar
    80   210   209    1
    81   132   133    2
    82   132   138   am
    83   209   206    1
    84   205   206    1
    85   199   200    1
    86    81    76   am
    87    76    75    1
    88   200   201   ar
    89   172   171    1
    90   204   203   ar
    91    13    12    1
    92    13    14    1
    93   138   139    1
    94   206   207    1
    95    73    72    2
    96   207   208    2
    97    75    78    1
    98    75    74    1
    99    70    71    1
   100   201   203   ar
   101   171   170    1
   102   169   170    1
   103   169   168    1
   104    14    15    2
   105   139   142    1
   106   139   140    1
   107    72    71    1
   108    78    79    1
   109    78    80    1
   110   165   164    1
   111   165   168    1
   112   165   166    1
   113   146   140   am
   114   146   147    1
   115   142   143    1
   116   167   166    2
   117    36    35    1
   118    23    22   ar
   119   140   141    2
   120   149   148    2
   121   147   148    1
   122   221   219   ar
   123   144   143    1
   124    22    24   ar
   125    22    21    1
   126    35    33   ar
   127    35    34   ar
   128   143   145    1
   129   148   150   am
   130    33    31   ar
   131    21    20    1
   132   219   220   ar
   133   219   218    1
   134    20    17    1
   135   159   160    2
   136   159   158    1
   137    34    32   ar
   138    31    30   ar
   139   105   104    1
   140   150   151    1
   141   150   156    1
   142   215   218    1
   143   215   214    1
   144   215   216    1
   145    16    17    1
   146   153   152    2
   147   151   152    1
   148   151   154    1
   149   152   157   am
   150   216   217    2
   151    17    18    1
   152    32    30   ar
   153   157   158    1
   154    30    29    1
   155   156   155    1
   156   158   161    1
   157   104   101    1
   158   101   100    1
   159   101   102    1
   160    96    95    2
   161   103   102    2
   162   161   163    1
   163   161   162    1
   164    18    19    2
   165   100    95   am
   166    95    94    1
   167   102   106   am
   168   155   154    1
   169    93    94    1
   170    93    99    1
   171    29    26    1
   172   129   126    1
   173    94    97    1
   174    99    98    1
   175   106   107    1
   176    26    25    1
   177    26    27    1
   178    28    27    2
   179   107   110    1
   180   107   108    1
   181    97    98    1
   182    27    37   am
   183   126   125    1
   184   126   127    1
   185   110   111    1
   186   125   119   am
   187   127   128    2
   188    41    42    1
   189    41    38    1
   190    37    38    1
   191   108   109    2
   192   108   117   am
   193    44    43    2
   194   117   118    1
   195    42    43    1
   196   111   112    1
   197    38    39    1
   198    43    45   am
   199   119   118    1
   200   119   120    2
   201   112   113    1
   202   118   121    1
   203    40    39    2
   204   113   114    2
   205   121   122    1
   206   123   122    2
   207   122   124   am
   208   114   115    1
   209   114   116    1
