@<TRIPOS>MOLECULE
tmp/5v4pA01.pdb
 120 115 0 0 0
SMALL
GASTEIGER

@<TRIPOS>ATOM
      1  N         10.4850    5.6300   41.2550 N.3    35  PRO35      -0.2116
      2  CA        11.4060    4.7220   41.9530 C.3    35  PRO35       0.1372
      3  C         12.8500    5.0590   41.6320 C.2    35  PRO35       0.2244
      4  O         13.2220    5.2230   40.4670 O.2    35  PRO35      -0.2868
      5  CB        11.0190    3.3300   41.4290 C.3    35  PRO35       0.0268
      6  CG        10.1420    3.5910   40.1810 C.3    35  PRO35       0.0207
      7  CD         9.5080    4.9200   40.4140 C.3    35  PRO35       0.0892
      8  N         16.6720    3.6810   42.8680 N.3    37  THR37      -0.1218
      9  CA        17.5940    2.8030   43.5890 C.3    37  THR37       0.1862
     10  C         18.7500    3.6460   44.1260 C.2    37  THR37       0.2287
     11  O         19.4310    4.3300   43.3520 O.2    37  THR37      -0.2866
     12  CB        18.1350    1.6960   42.6560 C.3    37  THR37       0.1770
     13  OG1       17.0900    0.7720   42.3240 O.3    37  THR37      -0.2211
     14  CG2       19.3300    0.9080   43.3060 C.3    37  THR37       0.0375
     15  N         20.7550    2.2010   47.0710 N.3    39  MET39      -0.1245
     16  CA        21.7110    1.2520   47.6740 C.3    39  MET39       0.1570
     17  C         22.1450    1.6390   49.0920 C.2    39  MET39       0.2261
     18  O         23.2930    1.4110   49.4910 O.2    39  MET39      -0.2867
     19  CB        22.9430    1.0700   46.7840 C.3    39  MET39       0.0387
     20  CG        22.6360    0.5470   45.3740 C.3    39  MET39       0.0595
     21  SD        21.8730   -1.0650   45.4270 S.3    39  MET39      -0.1393
     22  CE        22.0790   -1.5310   43.7100 C.3    39  MET39       0.0692
     23  N         13.2800    0.3510   43.8360 N.3    72  GLY72      -0.1225
     24  CA        13.0320   -1.0650   43.6460 C.3    72  GLY72       0.1811
     25  C         13.3010   -1.8690   44.9080 C.2    72  GLY72       0.2280
     26  O         14.3710   -1.7540   45.5340 O.2    72  GLY72      -0.2866
     27  N          7.5700   -0.1670   44.9180 N.3   114  GLN114     -0.1245
     28  CA         7.8760   -0.8530   43.6690 C.3   114  GLN114      0.1566
     29  C          8.4770   -2.2330   43.9430 C.2   114  GLN114      0.2260
     30  O          9.5590   -2.3550   44.5410 O.2   114  GLN114     -0.2867
     31  CB         8.7990   -0.0150   42.7900 C.3   114  GLN114      0.0367
     32  CG         8.9070   -0.6190   41.3860 C.3   114  GLN114      0.0905
     33  CD        10.0310   -0.0260   40.5330 C.2   114  GLN114      0.2608
     34  OE1       11.2140   -0.0760   40.8900 O.2   114  GLN114     -0.2717
     35  NE2        9.6560    0.5190   39.3860 N.am  114  GLN114     -0.0878
     36  N         10.1880   -5.6550   42.8600 N.3   116  TRP116     -0.1241
     37  CA        11.3110   -5.8000   41.9370 C.3   116  TRP116      0.1605
     38  C         11.7780   -7.2400   41.8690 C.2   116  TRP116      0.2264
     39  O         11.9090   -7.9120   42.8940 O.2   116  TRP116     -0.2867
     40  CB        12.5010   -4.9290   42.3850 C.3   116  TRP116      0.0550
     41  CG        13.5220   -4.5160   41.3630 C.ar  116  TRP116      0.0003
     42  CD1       13.4530   -4.6380   39.9880 C.ar  116  TRP116      0.0946
     43  CD2       14.7720   -3.8660   41.6360 C.ar  116  TRP116      0.0152
     44  NE1       14.5780   -4.1020   39.4080 N.ar  116  TRP116     -0.2442
     45  CE2       15.3950   -3.6090   40.3980 C.ar  116  TRP116      0.0810
     46  CE3       15.4230   -3.4610   42.8200 C.ar  116  TRP116      0.0012
     47  CZ2       16.6560   -2.9870   40.3080 C.ar  116  TRP116      0.0191
     48  CZ3       16.6350   -2.8490   42.7280 C.ar  116  TRP116      0.0001
     49  CH2       17.2370   -2.5920   41.4800 C.ar  116  TRP116      0.0015
     50  N          7.1200   -3.5430   38.8420 N.3   191  HIS191     -0.1241
     51  CA         8.1780   -3.1570   37.9320 C.3   191  HIS191      0.1621
     52  C          8.2040   -4.1410   36.7750 C.2   191  HIS191      0.2264
     53  O          8.6250   -5.2980   36.9260 O.2   191  HIS191     -0.2867
     54  CB         9.5150   -3.1420   38.6650 C.3   191  HIS191      0.0745
     55  CG        10.5920   -2.4000   37.9530 C.ar  191  HIS191      0.0817
     56  ND1       10.4630   -1.9480   36.6520 N.ar  191  HIS191     -0.2268
     57  CD2       11.8340   -2.0350   38.3600 C.ar  191  HIS191      0.1154
     58  CE1       11.5890   -1.3450   36.2920 C.ar  191  HIS191      0.1986
     59  NE2       12.4320   -1.3840   37.3110 N.ar  191  HIS191     -0.2212
     60  N         12.4880   -1.3010   32.2690 N.3   194  ASN194     -0.1240
     61  CA        13.9440   -1.0820   32.3580 C.3   194  ASN194      0.1653
     62  C         14.7650   -2.3780   32.2790 C.2   194  ASN194      0.2266
     63  O         15.8840   -2.4540   32.8110 O.2   194  ASN194     -0.2867
     64  CB        14.2930   -0.3210   33.6320 C.3   194  ASN194      0.1155
     65  CG        13.5800    1.0190   33.7360 C.2   194  ASN194      0.2627
     66  OD1       13.3280    1.6860   32.7460 O.2   194  ASN194     -0.2716
     67  ND2       13.3120    1.4410   34.9610 N.am  194  ASN194     -0.0877
     68  N         14.3530   -5.4720   33.5100 N.3   196  TYR196     -0.1241
     69  CA        14.4060   -6.4370   34.6060 C.3   196  TYR196      0.1605
     70  C         13.5300   -7.6450   34.2440 C.2   196  TYR196      0.2264
     71  O         13.1740   -7.8350   33.0830 O.2   196  TYR196     -0.2867
     72  CB        14.0840   -5.7240   35.9080 C.3   196  TYR196      0.0534
     73  CG        15.1830   -4.7480   36.2100 C.ar  196  TYR196     -0.0201
     74  CD1       15.0370   -3.3910   35.9400 C.ar  196  TYR196     -0.0009
     75  CD2       16.4340   -5.2030   36.6780 C.ar  196  TYR196     -0.0009
     76  CE1       16.1180   -2.5010   36.1720 C.ar  196  TYR196      0.0417
     77  CE2       17.4620   -4.3400   36.9250 C.ar  196  TYR196      0.0417
     78  CZ        17.3020   -2.9880   36.6670 C.ar  196  TYR196      0.1957
     79  OH        18.3710   -2.1330   36.8950 O.3   196  TYR196     -0.2866
     80  N          4.6140   -0.4490   35.8520 N.3   243  ARG243     -0.1245
     81  CA         5.6100    0.3720   35.1720 C.3   243  ARG243      0.1563
     82  C          6.1250   -0.3450   33.9370 C.2   243  ARG243      0.2260
     83  O          6.4530   -1.5360   33.9950 O.2   243  ARG243     -0.2867
     84  CB         6.7790    0.7490   36.0810 C.3   243  ARG243      0.0307
     85  CG         7.5350    1.9260   35.4760 C.3   243  ARG243      0.0489
     86  CD         8.5670    2.5300   36.4130 C.3   243  ARG243      0.2205
     87  NE         8.7780    3.9560   36.1120 N.pl3 243  ARG243     -0.0865
     88  CZ         9.9440    4.6000   36.1910 C.cat 243  ARG243      0.5346
     89  NH1       11.0390    3.9610   36.5370 N.pl3 243  ARG243      0.1354
     90  NH2       10.0170    5.8930   35.9330 N.pl3 243  ARG243      0.1354
     91  N         17.9820    0.0540   28.0190 N.3   250  PHE250     -0.1241
     92  CA        18.7180   -0.3280   29.2250 C.3   250  PHE250      0.1605
     93  C         18.4780   -1.8040   29.5320 C.2   250  PHE250      0.2264
     94  O         17.3720   -2.3380   29.3440 O.2   250  PHE250     -0.2867
     95  CB        18.2940    0.5830   30.3930 C.3   250  PHE250      0.0534
     96  CG        19.0820    0.3840   31.6720 C.ar  250  PHE250     -0.0203
     97  CD1       20.4760    0.5130   31.6990 C.ar  250  PHE250     -0.0042
     98  CD2       18.4110    0.1000   32.8620 C.ar  250  PHE250     -0.0042
     99  CE1       21.1850    0.3450   32.8910 C.ar  250  PHE250     -0.0003
    100  CE2       19.1060   -0.0590   34.0540 C.ar  250  PHE250     -0.0003
    101  CZ        20.4890    0.0610   34.0670 C.ar  250  PHE250     -0.0000
    102  N         18.7730    5.3240   31.7070 N.3   295  PRO295     -0.2116
    103  CA        18.9720    6.3340   32.7580 C.3   295  PRO295      0.1372
    104  C         20.4170    6.4690   33.2350 C.2   295  PRO295      0.2244
    105  O         20.7000    7.3000   34.1100 O.2   295  PRO295     -0.2868
    106  CB        18.0420    5.8390   33.8830 C.3   295  PRO295      0.0268
    107  CG        17.9420    4.3680   33.6910 C.3   295  PRO295      0.0207
    108  CD        18.1750    4.0770   32.2230 C.3   295  PRO295      0.0892
    109  N         24.7750    6.0050   44.6810 N.3   375  TYR375     -0.1241
    110  CA        24.7580    4.6540   45.2320 C.3   375  TYR375      0.1605
    111  C         25.7240    4.4020   46.3860 C.2   375  TYR375      0.2264
    112  O         25.9600    3.2320   46.7190 O.2   375  TYR375     -0.2867
    113  CB        25.0830    3.6340   44.1440 C.3   375  TYR375      0.0534
    114  CG        24.3250    3.7890   42.8860 C.ar  375  TYR375     -0.0201
    115  CD1       22.9460    3.5390   42.8450 C.ar  375  TYR375     -0.0009
    116  CD2       24.9820    4.1540   41.7050 C.ar  375  TYR375     -0.0009
    117  CE1       22.2300    3.6530   41.6650 C.ar  375  TYR375      0.0417
    118  CE2       24.2830    4.2650   40.5110 C.ar  375  TYR375      0.0417
    119  CZ        22.8910    4.0060   40.4970 C.ar  375  TYR375      0.1957
    120  OH        22.1600    4.1130   39.3250 O.3   375  TYR375     -0.2866
@<TRIPOS>BOND
     1    91    92    1
     2    92    93    1
     3    92    95    1
     4    94    93    2
     5    95    96    1
     6    96    97   ar
     7    96    98   ar
     8    97    99   ar
     9   102   108    1
    10   102   103    1
    11   108   107    1
    12    60    61    1
    13    62    61    1
    14    62    63    2
    15    61    64    1
    16    66    65    2
    17   103   104    1
    18   103   106    1
    19    98   100   ar
    20    99   101   ar
    21    71    70    2
    22   104   105    2
    23    68    69    1
    24    64    65    1
    25   107   106    1
    26    65    67   am
    27    82    83    2
    28    82    81    1
    29   100   101   ar
    30    70    69    1
    31    69    72    1
    32    81    80    1
    33    81    84    1
    34    85    84    1
    35    85    86    1
    36    72    73    1
    37    90    88    1
    38    74    76   ar
    39    74    73   ar
    40    87    88    2
    41    87    86    1
    42    76    78   ar
    43    88    89    1
    44    73    75   ar
    45    58    56   ar
    46    58    59   ar
    47    56    55   ar
    48    78    79    1
    49    78    77   ar
    50    75    77   ar
    51    52    53    2
    52    52    51    1
    53    59    57   ar
    54    51    54    1
    55    51    50    1
    56    55    57   ar
    57    55    54    1
    58   120   119    1
    59    35    33   am
    60    44    42   ar
    61    44    45   ar
    62    42    41   ar
    63     6     7    1
    64     6     5    1
    65    47    45   ar
    66    47    49   ar
    67    45    43   ar
    68     7     1    1
    69     4     3    2
    70   119   118   ar
    71   119   117   ar
    72   118   116   ar
    73    33    34    2
    74    33    32    1
    75     1     2    1
    76    41    43   ar
    77    41    40    1
    78    32    31    1
    79     5     2    1
    80    49    48   ar
    81     3     2    1
    82    43    46   ar
    83   117   115   ar
    84   116   114   ar
    85    38    37    1
    86    38    39    2
    87    37    40    1
    88    37    36    1
    89    13    12    1
    90    12    14    1
    91    12     9    1
    92    48    46   ar
    93    31    28    1
    94   115   114   ar
    95     8     9    1
    96   114   113    1
    97    11    10    2
    98     9    10    1
    99    24    23    1
   100    24    25    1
   101    28    29    1
   102    28    27    1
   103    22    21    1
   104    29    30    2
   105   113   110    1
   106   109   110    1
   107    25    26    2
   108   110   111    1
   109    20    21    1
   110    20    19    1
   111   111   112    2
   112    19    16    1
   113    15    16    1
   114    16    17    1
   115    17    18    2
