@<TRIPOS>MOLECULE
tmp/5v4qA02.pdb
 86 82 0 0 0
SMALL
GASTEIGER

@<TRIPOS>ATOM
      1  N        -27.8180  -19.3900    6.2310 N.3   296  LEU296     -0.1245
      2  CA       -29.0230  -18.5620    6.4110 C.3   296  LEU296      0.1561
      3  C        -29.6920  -18.2230    5.0750 C.2   296  LEU296      0.2260
      4  O        -30.7900  -17.6860    5.0440 O.2   296  LEU296     -0.2867
      5  CB       -28.7120  -17.2570    7.1530 C.3   296  LEU296      0.0270
      6  CG       -28.4200  -17.3840    8.6420 C.3   296  LEU296      0.0019
      7  CD1      -28.1450  -16.0200    9.2470 C.3   296  LEU296      0.0001
      8  CD2      -29.6010  -18.0530    9.3350 C.3   296  LEU296      0.0001
      9  N        -31.4660   -8.7520    5.2420 N.3   307  GLU307     -0.1231
     10  CA       -30.4870   -8.3200    6.2570 C.3   307  GLU307      0.1699
     11  C        -29.2500   -9.2170    6.2720 C.2   307  GLU307      0.2592
     12  O        -28.1450   -8.7420    6.4510 O.2   307  GLU307     -0.2718
     13  CB       -31.1220   -8.2270    7.6570 C.3   307  GLU307      0.0402
     14  CG       -30.1380   -8.2050    8.8350 C.3   307  GLU307      0.1161
     15  CD       -29.5650   -6.8210    9.1890 C.2   307  GLU307      0.3649
     16  OE1      -29.7390   -5.8580    8.4000 O.co2 307  GLU307     -0.2457
     17  OE2      -28.9320   -6.6930   10.2750 O.co2 307  GLU307     -0.2457
     18  N        -29.4460  -10.5150    6.0740 N.am  308  VAL308     -0.1980
     19  CA       -28.3290  -11.4390    5.8970 C.3   308  VAL308      0.1595
     20  C        -27.4230  -10.9740    4.7370 C.2   308  VAL308      0.2287
     21  O        -26.1960  -10.8530    4.8890 O.2   308  VAL308     -0.2864
     22  CB       -28.8320  -12.8790    5.6520 C.3   308  VAL308      0.0276
     23  CG1      -27.6700  -13.8140    5.3700 C.3   308  VAL308      0.0022
     24  CG2      -29.6450  -13.3530    6.8530 C.3   308  VAL308      0.0022
     25  N        -25.5340   -7.7030    5.3210 N.3   311  ASN311     -0.1240
     26  CA       -24.2910   -7.9970    6.0320 C.3   311  ASN311      0.1653
     27  C        -23.1760   -8.5870    5.1710 C.2   311  ASN311      0.2266
     28  O        -22.0420   -8.1390    5.2390 O.2   311  ASN311     -0.2867
     29  CB       -24.5640   -8.8780    7.2390 C.3   311  ASN311      0.1155
     30  CG       -24.9490   -8.0610    8.4510 C.2   311  ASN311      0.2627
     31  OD1      -24.9700   -6.8230    8.3810 O.2   311  ASN311     -0.2716
     32  ND2      -25.2540   -8.7330    9.5630 N.am  311  ASN311     -0.0877
     33  N        -17.7390   -3.1290    6.1530 N.3   316  PHE316     -0.1227
     34  CA       -17.5250   -3.0070    7.5840 C.3   316  PHE316      0.1736
     35  C        -17.7200   -4.3660    8.2840 C.2   316  PHE316      0.2595
     36  O        -16.8890   -4.7890    9.1020 O.2   316  PHE316     -0.2718
     37  CB       -18.4800   -1.9490    8.1420 C.3   316  PHE316      0.0547
     38  CG       -18.3290   -1.7160    9.6190 C.ar  316  PHE316     -0.0202
     39  CD1      -17.1600   -1.1400   10.1370 C.ar  316  PHE316     -0.0042
     40  CD2      -19.3500   -2.0590   10.4980 C.ar  316  PHE316     -0.0042
     41  CE1      -17.0260   -0.8990   11.4970 C.ar  316  PHE316     -0.0003
     42  CE2      -19.2280   -1.8200   11.8810 C.ar  316  PHE316     -0.0003
     43  CZ       -18.0640   -1.2410   12.3740 C.ar  316  PHE316     -0.0000
     44  N        -18.7940   -5.0630    7.9380 N.am  317  PHE317     -0.1976
     45  CA       -19.0230   -6.4010    8.4390 C.3   317  PHE317      0.1639
     46  C        -17.8230   -7.2900    8.0770 C.2   317  PHE317      0.2290
     47  O        -17.3160   -8.0420    8.9160 O.2   317  PHE317     -0.2864
     48  CB       -20.3250   -6.9790    7.8650 C.3   317  PHE317      0.0560
     49  CG       -20.6670   -8.3490    8.4060 C.ar  317  PHE317     -0.0200
     50  CD1      -21.0950   -8.5090    9.7230 C.ar  317  PHE317     -0.0042
     51  CD2      -20.5380   -9.4900    7.6030 C.ar  317  PHE317     -0.0042
     52  CE1      -21.4110   -9.7790   10.2200 C.ar  317  PHE317     -0.0003
     53  CE2      -20.8650  -10.7500    8.0930 C.ar  317  PHE317     -0.0003
     54  CZ       -21.2940  -10.9030    9.3960 C.ar  317  PHE317     -0.0000
     55  N        -14.8890   -6.6930   10.3450 N.3   320  GLN320     -0.1245
     56  CA       -15.1390   -7.3900   11.5970 C.3   320  GLN320      0.1566
     57  C        -14.6980   -8.8530   11.6150 C.2   320  GLN320      0.2260
     58  O        -14.1560   -9.3210   12.6040 O.2   320  GLN320     -0.2867
     59  CB       -16.6070   -7.2640   11.9780 C.3   320  GLN320      0.0367
     60  CG       -16.9660   -5.8490   12.3820 C.3   320  GLN320      0.0905
     61  CD       -18.4210   -5.7140   12.7600 C.2   320  GLN320      0.2608
     62  OE1      -19.2810   -6.4170   12.2280 O.2   320  GLN320     -0.2717
     63  NE2      -18.7040   -4.8260   13.7020 N.am  320  GLN320     -0.0878
     64  N        -24.7180  -20.0980   11.4780 N.3   339  GLU339     -0.1245
     65  CA       -26.0900  -19.8500   11.9410 C.3   339  GLU339      0.1567
     66  C        -27.0980  -20.5610   11.0430 C.2   339  GLU339      0.2260
     67  O        -26.9960  -20.4840    9.8000 O.2   339  GLU339     -0.2867
     68  CB       -26.4140  -18.3630   11.9010 C.3   339  GLU339      0.0388
     69  CG       -25.9000  -17.5440   13.0610 C.3   339  GLU339      0.1160
     70  CD       -26.0130  -16.0530   12.7820 C.2   339  GLU339      0.3649
     71  OE1      -26.8660  -15.4020   13.4290 O.co2 339  GLU339     -0.2457
     72  OE2      -25.2720  -15.5390   11.9010 O.co2 339  GLU339     -0.2457
     73  N        -32.1470  -16.8070   12.0340 N.3   342  THR342     -0.1204
     74  CA       -31.9130  -15.3750   12.3020 C.3   342  THR342      0.1979
     75  C        -32.0160  -15.0890   13.8370 C.2   342  THR342      0.2459
     76  O        -32.7480  -15.8010   14.5390 O.2   342  THR342     -0.2732
     77  CB       -32.9100  -14.5360   11.4430 C.3   342  THR342      0.1783
     78  OG1      -32.7970  -14.9340   10.0640 O.3   342  THR342     -0.2211
     79  CG2      -32.6650  -13.0140   11.5330 C.3   342  THR342      0.0376
     80  N        -31.2670  -14.1070   14.3340 N.am  343  PRO343     -0.2728
     81  CA       -31.2490  -13.8130   15.7630 C.3   343  PRO343      0.1401
     82  C        -32.6680  -13.6430   16.2880 C.2   343  PRO343      0.2269
     83  O        -33.2760  -12.6010   16.0460 O.2   343  PRO343     -0.2865
     84  CB       -30.4850  -12.4910   15.8310 C.3   343  PRO343      0.0296
     85  CG       -30.6950  -11.8410   14.5030 C.3   343  PRO343      0.0237
     86  CD       -31.0880  -12.9020   13.5070 C.3   343  PRO343      0.0939
@<TRIPOS>BOND
     1    20    21    2
     2    20    19    1
     3     4     3    2
     4     3     2    1
     5    27    28    2
     6    27    26    1
     7     9    10    1
     8    25    26    1
     9    23    22    1
    10    22    19    1
    11    22    24    1
    12    19    18    1
    13    26    29    1
    14    18    11   am
    15    33    34    1
    16     1     2    1
    17    10    11    1
    18    10    13    1
    19    11    12    2
    20     2     5    1
    21     5     6    1
    22    29    30    1
    23    34    37    1
    24    34    35    1
    25    51    53   ar
    26    51    49   ar
    27    13    14    1
    28    48    49    1
    29    48    45    1
    30    44    35   am
    31    44    45    1
    32    46    45    1
    33    46    47    2
    34    53    54   ar
    35    37    38    1
    36    35    36    2
    37    31    30    2
    38    16    15   ar
    39    49    50   ar
    40    30    32   am
    41     6     7    1
    42     6     8    1
    43    14    15    1
    44    15    17   ar
    45    54    52   ar
    46    38    39   ar
    47    38    40   ar
    48    50    52   ar
    49    67    66    2
    50    78    77    1
    51    39    41   ar
    52    55    56    1
    53    40    42   ar
    54    66    65    1
    55    77    79    1
    56    77    74    1
    57    64    65    1
    58    41    43   ar
    59    56    57    1
    60    56    59    1
    61    57    58    2
    62    42    43   ar
    63    68    65    1
    64    68    69    1
    65    72    70   ar
    66    59    60    1
    67    73    74    1
    68    62    61    2
    69    74    75    1
    70    60    61    1
    71    61    63   am
    72    70    69    1
    73    70    71   ar
    74    86    80    1
    75    86    85    1
    76    75    80   am
    77    75    76    2
    78    80    81    1
    79    85    84    1
    80    81    84    1
    81    81    82    1
    82    83    82    2
