@<TRIPOS>MOLECULE
tmp/5v4qB00.pdb
 103 96 0 0 0
SMALL
GASTEIGER

@<TRIPOS>ATOM
      1  N        -22.7840  -29.2160  -13.3760 N.3     1  THR1       -0.1218
      2  CA       -22.7050  -27.7610  -13.7490 C.3     1  THR1        0.1862
      3  C        -21.7780  -27.5520  -14.9440 C.2     1  THR1        0.2287
      4  O        -20.8150  -28.2820  -15.1400 O.2     1  THR1       -0.2866
      5  CB       -22.2770  -26.8810  -12.5330 C.3     1  THR1        0.1770
      6  OG1      -23.1750  -27.0930  -11.4530 O.3     1  THR1       -0.2211
      7  CG2      -22.2460  -25.3700  -12.8230 C.3     1  THR1        0.0375
      8  N        -26.9070  -26.1200  -15.0750 N.3    19  THR19      -0.1203
      9  CA       -26.7370  -27.3570  -14.2820 C.3    19  THR19       0.1994
     10  C        -27.9180  -28.3240  -14.2830 C.2    19  THR19       0.2618
     11  O        -29.0530  -27.8810  -14.2570 O.2    19  THR19      -0.2717
     12  CB       -26.4580  -27.0440  -12.7960 C.3    19  THR19       0.1784
     13  OG1      -26.5240  -28.2490  -12.0410 O.3    19  THR19      -0.2211
     14  CG2      -27.4760  -26.1340  -12.2110 C.3    19  THR19       0.0376
     15  N        -27.6240  -29.6330  -14.2720 N.am   20  ILE20      -0.1965
     16  CA       -28.6130  -30.6860  -13.9810 C.3    20  ILE20       0.1727
     17  C        -28.3030  -31.3490  -12.6520 C.2    20  ILE20       0.2616
     18  O        -28.8420  -32.4040  -12.3150 O.2    20  ILE20      -0.2715
     19  CB       -28.7550  -31.7810  -15.0900 C.3    20  ILE20       0.0290
     20  CG1      -27.4240  -32.4560  -15.4390 C.3    20  ILE20       0.0022
     21  CG2      -29.4150  -31.2200  -16.3260 C.3    20  ILE20       0.0023
     22  CD1      -27.5430  -33.6650  -16.3790 C.3    20  ILE20       0.0001
     23  N        -27.4380  -30.6780  -11.8980 N.am   21  ASN21      -0.1972
     24  CA       -26.9570  -31.0990  -10.6140 C.3    21  ASN21       0.1688
     25  C        -25.9150  -32.2520  -10.6720 C.2    21  ASN21       0.2292
     26  O        -24.7950  -32.0110  -11.1290 O.2    21  ASN21      -0.2864
     27  CB       -28.0830  -31.2930   -9.6050 C.3    21  ASN21       0.1181
     28  CG       -27.5510  -31.3630   -8.1760 C.2    21  ASN21       0.2629
     29  OD1      -26.4810  -30.8250   -7.8860 O.2    21  ASN21      -0.2716
     30  ND2      -28.2750  -32.0360   -7.2930 N.am   21  ASN21      -0.0877
     31  N        -23.8540  -35.8430  -11.7510 N.3    23  TYR23      -0.1241
     32  CA       -23.5050  -36.3450  -13.0870 C.3    23  TYR23       0.1605
     33  C        -24.6960  -37.0800  -13.6190 C.2    23  TYR23       0.2264
     34  O        -25.1880  -38.0020  -12.9620 O.2    23  TYR23      -0.2867
     35  CB       -22.3280  -37.3240  -13.0340 C.3    23  TYR23       0.0534
     36  CG       -20.9730  -36.6880  -12.8170 C.ar   23  TYR23      -0.0201
     37  CD1      -20.7860  -35.3120  -12.9910 C.ar   23  TYR23      -0.0009
     38  CD2      -19.8700  -37.4720  -12.4680 C.ar   23  TYR23      -0.0009
     39  CE1      -19.5420  -34.7330  -12.8130 C.ar   23  TYR23       0.0417
     40  CE2      -18.6130  -36.9070  -12.3070 C.ar   23  TYR23       0.0417
     41  CZ       -18.4530  -35.5390  -12.4770 C.ar   23  TYR23       0.1957
     42  OH       -17.2110  -34.9540  -12.2890 O.3    23  TYR23      -0.2866
     43  N        -32.1530  -31.6230   -9.2770 N.3    40  GLU40      -0.1245
     44  CA       -31.9390  -30.4240   -8.4820 C.3    40  GLU40       0.1567
     45  C        -32.7310  -30.4290   -7.1770 C.2    40  GLU40       0.2260
     46  O        -32.4160  -29.6440   -6.2610 O.2    40  GLU40      -0.2867
     47  CB       -32.3210  -29.1790   -9.2930 C.3    40  GLU40       0.0388
     48  CG       -31.4170  -27.9840   -9.0310 C.3    40  GLU40       0.1160
     49  CD       -30.0990  -28.0660   -9.8020 C.2    40  GLU40       0.3649
     50  OE1      -29.0600  -27.5920   -9.2810 O.co2  40  GLU40      -0.2457
     51  OE2      -30.1010  -28.6010  -10.9440 O.co2  40  GLU40      -0.2457
     52  N        -30.7140  -30.3910   -4.0560 N.3    43  ASP43      -0.1239
     53  CA       -30.0110  -29.2010   -3.5730 C.3    43  ASP43       0.1674
     54  C        -30.7710  -28.6060   -2.3930 C.2    43  ASP43       0.2266
     55  O        -30.2640  -27.7280   -1.6870 O.2    43  ASP43      -0.2867
     56  CB       -29.8870  -28.1420   -4.6750 C.3    43  ASP43       0.1410
     57  CG       -28.5850  -28.2400   -5.4540 C.2    43  ASP43       0.3668
     58  OD1      -27.7440  -29.1300   -5.1430 O.co2  43  ASP43      -0.2456
     59  OD2      -28.3980  -27.4050   -6.3840 O.co2  43  ASP43      -0.2456
     60  N        -31.1550  -23.4040   -2.8760 N.3    70  LEU70      -0.1231
     61  CA       -29.8800  -22.7120   -2.7970 C.3    70  LEU70       0.1693
     62  C        -28.8340  -23.3410   -3.7570 C.2    70  LEU70       0.2593
     63  O        -28.7830  -24.5610   -3.9330 O.2    70  LEU70      -0.2718
     64  CB       -29.3700  -22.7740   -1.3600 C.3    70  LEU70       0.0284
     65  CG       -28.1070  -21.9640   -1.0550 C.3    70  LEU70       0.0019
     66  CD1      -28.3420  -20.4610   -1.1870 C.3    70  LEU70       0.0001
     67  CD2      -27.5940  -22.3270    0.3200 C.3    70  LEU70       0.0001
     68  N        -28.0210  -22.4980   -4.3820 N.am   71  SER71      -0.1938
     69  CA       -26.9970  -22.9560   -5.3140 C.3    71  SER71       0.2055
     70  C        -25.6370  -22.3290   -4.9900 C.2    71  SER71       0.2644
     71  O        -25.5720  -21.1940   -4.4660 O.2    71  SER71      -0.2714
     72  CB       -27.4160  -22.5520   -6.7250 C.3    71  SER71       0.2130
     73  OG       -26.3900  -22.8020   -7.6630 O.3    71  SER71      -0.2179
     74  N        -24.5700  -23.0600   -5.3200 N.am   72  SER72      -0.1935
     75  CA       -23.1970  -22.5560   -5.2530 C.3    72  SER72       0.2055
     76  C        -22.7710  -21.7160   -6.4530 C.2    72  SER72       0.2642
     77  O        -21.7440  -21.0620   -6.4100 O.2    72  SER72      -0.2714
     78  CB       -22.2320  -23.7210   -5.0970 C.3    72  SER72       0.2130
     79  OG       -22.5330  -24.4320   -3.8960 O.3    72  SER72      -0.2179
     80  N        -23.5480  -21.7610   -7.5260 N.am   73  MET73      -0.1976
     81  CA       -23.2060  -21.1130   -8.7880 C.3    73  MET73       0.1605
     82  C        -23.0100  -19.6180   -8.6050 C.2    73  MET73       0.2287
     83  O        -23.6790  -19.0060   -7.7830 O.2    73  MET73      -0.2864
     84  CB       -24.3100  -21.3540   -9.8110 C.3    73  MET73       0.0413
     85  CG       -24.4640  -22.8190  -10.1990 C.3    73  MET73       0.0598
     86  SD       -25.5570  -22.9630  -11.6410 S.3    73  MET73      -0.1393
     87  CE       -27.1000  -22.2500  -11.0310 C.3    73  MET73       0.0692
     88  N        -18.6760  -27.4900  -10.7110 N.3    93  GLY93      -0.1210
     89  CA       -18.1030  -28.4700   -9.7720 C.3    93  GLY93       0.1956
     90  C        -18.7230  -28.5030   -8.3850 C.2    93  GLY93       0.2612
     91  O        -18.0340  -28.6970   -7.3900 O.2    93  GLY93      -0.2717
     92  N        -20.0330  -28.3070   -8.3160 N.am   94  GLY94      -0.1956
     93  CA       -20.7600  -28.4280   -7.0580 C.3    94  GLY94       0.1869
     94  C        -20.3960  -27.3520   -6.0520 C.2    94  GLY94       0.2309
     95  O        -20.4300  -26.1520   -6.3540 O.2    94  GLY94      -0.2863
     96  N        -17.6210  -24.4180   -6.4000 N.3    97  ILE97      -0.1245
     97  CA       -17.7550  -23.3430   -7.3890 C.3    97  ILE97       0.1561
     98  C        -17.3840  -21.9600   -6.8380 C.2    97  ILE97       0.2260
     99  O        -16.7000  -21.2130   -7.5120 O.2    97  ILE97      -0.2867
    100  CB       -19.1780  -23.3040   -7.9810 C.3    97  ILE97       0.0252
    101  CG1      -19.3970  -24.5480   -8.8660 C.3    97  ILE97       0.0019
    102  CG2      -19.3870  -22.0080   -8.7430 C.3    97  ILE97       0.0019
    103  CD1      -20.8550  -24.7500   -9.2430 C.3    97  ILE97       0.0001
@<TRIPOS>BOND
     1    22    20    1
     2    21    19    1
     3    20    19    1
     4     4     3    2
     5    19    16    1
     6     8     9    1
     7     3     2    1
     8    10     9    1
     9    10    15   am
    10    10    11    2
    11     9    12    1
    12    15    16    1
    13    16    17    1
    14     2     1    1
    15     2     5    1
    16    33    32    1
    17    33    34    2
    18    32    35    1
    19    32    31    1
    20    35    36    1
    21    37    36   ar
    22    37    39   ar
    23     7     5    1
    24    36    38   ar
    25    39    41   ar
    26    12    14    1
    27    12    13    1
    28    17    18    2
    29    17    23   am
    30     5     6    1
    31    41    40   ar
    32    41    42    1
    33    38    40   ar
    34    23    24    1
    35    86    87    1
    36    86    85    1
    37    26    25    2
    38    51    49   ar
    39    88    89    1
    40    25    24    1
    41    24    27    1
    42    85    84    1
    43    84    81    1
    44    49    50   ar
    45    49    48    1
    46    89    90    1
    47    27    28    1
    48    47    48    1
    49    47    44    1
    50    43    44    1
    51   103   101    1
    52   101   100    1
    53    81    82    1
    54    81    80    1
    55   102   100    1
    56    82    83    2
    57    44    45    1
    58    90    92   am
    59    90    91    2
    60    92    93    1
    61    28    29    2
    62    28    30   am
    63   100    97    1
    64    73    72    1
    65    80    76   am
    66    99    98    2
    67    97    98    1
    68    97    96    1
    69    45    46    2
    70    93    94    1
    71    72    69    1
    72    76    77    2
    73    76    75    1
    74    59    57   ar
    75    95    94    2
    76    57    58   ar
    77    57    56    1
    78    74    75    1
    79    74    70   am
    80    69    70    1
    81    69    68    1
    82    75    78    1
    83    78    79    1
    84    70    71    2
    85    56    53    1
    86    68    62   am
    87    52    53    1
    88    63    62    2
    89    62    61    1
    90    53    54    1
    91    60    61    1
    92    61    64    1
    93    54    55    2
    94    64    65    1
    95    66    65    1
    96    65    67    1
