@<TRIPOS>MOLECULE
tmp/5v4rB00.pdb
 105 102 0 0 0
SMALL
GASTEIGER

@<TRIPOS>ATOM
      1  N         -2.1710   21.0910  -22.8550 N.3    85  ARG85      -0.1245
      2  CA        -2.5540   20.0310  -23.7820 C.3    85  ARG85       0.1563
      3  C         -2.6740   20.5670  -25.2010 C.2    85  ARG85       0.2260
      4  O         -2.2870   19.8920  -26.1630 O.2    85  ARG85      -0.2867
      5  CB        -3.8670   19.3890  -23.3430 C.3    85  ARG85       0.0307
      6  CG        -3.7190   18.5130  -22.1210 C.3    85  ARG85       0.0489
      7  CD        -4.9440   17.6600  -21.9020 C.3    85  ARG85       0.2205
      8  NE        -6.0740   18.4130  -21.3710 N.pl3  85  ARG85      -0.0865
      9  CZ        -6.2860   18.6450  -20.0790 C.cat  85  ARG85       0.5346
     10  NH1       -5.4360   18.1950  -19.1660 N.pl3  85  ARG85       0.1354
     11  NH2       -7.3520   19.3330  -19.6980 N.pl3  85  ARG85       0.1354
     12  N          0.9970   20.8420  -26.4690 N.3    88  SER88      -0.1202
     13  CA         1.6900   19.5850  -26.7380 C.3    88  SER88       0.2020
     14  C          1.1030   18.8760  -27.9510 C.2    88  SER88       0.2618
     15  O          1.8390   18.4280  -28.8380 O.2    88  SER88      -0.2717
     16  CB         1.6250   18.6860  -25.5040 C.3    88  SER88       0.2103
     17  OG         2.3570   17.4910  -25.7040 O.3    88  SER88      -0.2182
     18  N         -0.2240   18.7620  -28.0070 N.am   89  TYR89      -0.1975
     19  CA        -0.8650   18.0490  -29.1060 C.3    89  TYR89       0.1639
     20  C         -0.9990   18.9270  -30.3450 C.2    89  TYR89       0.2290
     21  O         -0.8450   18.4400  -31.4710 O.2    89  TYR89      -0.2864
     22  CB        -2.2370   17.5330  -28.6640 C.3    89  TYR89       0.0560
     23  CG        -2.1770   16.4260  -27.6280 C.ar   89  TYR89      -0.0198
     24  CD1       -1.8720   15.1220  -27.9940 C.ar   89  TYR89      -0.0009
     25  CD2       -2.4330   16.6850  -26.2870 C.ar   89  TYR89      -0.0009
     26  CE1       -1.8180   14.1060  -27.0560 C.ar   89  TYR89       0.0417
     27  CE2       -2.3800   15.6760  -25.3390 C.ar   89  TYR89       0.0417
     28  CZ        -2.0720   14.3880  -25.7310 C.ar   89  TYR89       0.1957
     29  OH        -2.0180   13.3760  -24.7990 O.3    89  TYR89      -0.2866
     30  N          2.4210   19.5970  -32.1570 N.3    92  GLU92      -0.1231
     31  CA         2.8850   18.3760  -32.7820 C.3    92  GLU92       0.1699
     32  C          2.2450   18.1890  -34.1540 C.2    92  GLU92       0.2592
     33  O          2.9350   17.8660  -35.1160 O.2    92  GLU92      -0.2718
     34  CB         2.5540   17.1820  -31.8830 C.3    92  GLU92       0.0402
     35  CG         2.8970   15.8270  -32.4740 C.3    92  GLU92       0.1161
     36  CD         2.0930   14.6990  -31.8600 C.2    92  GLU92       0.3649
     37  OE1        1.3950   14.9370  -30.8570 O.co2  92  GLU92      -0.2457
     38  OE2        2.1580   13.5700  -32.3800 O.co2  92  GLU92      -0.2457
     39  N          0.9340   18.3880  -34.2560 N.am   93  LYS93      -0.1980
     40  CA         0.2710   18.2430  -35.5470 C.3    93  LYS93       0.1596
     41  C          0.6750   19.3440  -36.5250 C.2    93  LYS93       0.2287
     42  O          0.9980   19.0760  -37.6780 O.2    93  LYS93      -0.2864
     43  CB        -1.2450   18.2350  -35.3680 C.3    93  LYS93       0.0298
     44  CG        -1.7880   16.9750  -34.7090 C.3    93  LYS93       0.0038
     45  CD        -1.0660   15.7200  -35.1760 C.3    93  LYS93       0.0206
     46  CE        -1.3750   14.5400  -34.2680 C.3    93  LYS93       0.1093
     47  NZ        -2.7240   13.9620  -34.5250 N.3    93  LYS93      -0.1314
     48  N          3.0950   19.6750  -14.4170 N.3   117  TYR117     -0.1241
     49  CA         2.2190   19.3080  -15.5250 C.3   117  TYR117      0.1605
     50  C          2.7270   19.8960  -16.8350 C.2   117  TYR117      0.2264
     51  O          2.8060   19.1990  -17.8530 O.2   117  TYR117     -0.2867
     52  CB         0.7810   19.7560  -15.2550 C.3   117  TYR117      0.0534
     53  CG        -0.1930   19.1500  -16.2410 C.ar  117  TYR117     -0.0201
     54  CD1       -0.6480   17.8490  -16.0800 C.ar  117  TYR117     -0.0009
     55  CD2       -0.6300   19.8660  -17.3500 C.ar  117  TYR117     -0.0009
     56  CE1       -1.5230   17.2790  -16.9890 C.ar  117  TYR117      0.0417
     57  CE2       -1.5050   19.3070  -18.2610 C.ar  117  TYR117      0.0417
     58  CZ        -1.9500   18.0160  -18.0750 C.ar  117  TYR117      0.1957
     59  OH        -2.8190   17.4510  -18.9800 O.3   117  TYR117     -0.2866
     60  N          6.0000   18.1670  -18.1040 N.3   120  GLU120     -0.1231
     61  CA         5.7720   16.8450  -18.6810 C.3   120  GLU120      0.1699
     62  C          5.1200   16.9490  -20.0540 C.2   120  GLU120      0.2592
     63  O          5.4240   16.1560  -20.9530 O.2   120  GLU120     -0.2718
     64  CB         4.9190   15.9990  -17.7370 C.3   120  GLU120      0.0402
     65  CG         5.5650   15.7770  -16.3790 C.3   120  GLU120      0.1161
     66  CD         5.2540   14.4140  -15.7950 C.2   120  GLU120      0.3649
     67  OE1        4.2030   13.8380  -16.1460 O.co2 120  GLU120     -0.2457
     68  OE2        6.0680   13.9160  -14.9890 O.co2 120  GLU120     -0.2457
     69  N          4.2290   17.9220  -20.2380 N.am  121  LYS121     -0.1980
     70  CA         3.6320   18.1290  -21.5520 C.3   121  LYS121      0.1596
     71  C          4.6690   18.6070  -22.5590 C.2   121  LYS121      0.2287
     72  O          4.6220   18.2220  -23.7330 O.2   121  LYS121     -0.2864
     73  CB         2.4780   19.1250  -21.4530 C.3   121  LYS121      0.0298
     74  CG         1.2190   18.5390  -20.8570 C.3   121  LYS121      0.0038
     75  CD         0.5720   17.5390  -21.7950 C.3   121  LYS121      0.0206
     76  CE        -0.5790   16.8420  -21.1230 C.3   121  LYS121      0.1093
     77  NZ        -0.0760   15.8180  -20.1670 N.3   121  LYS121     -0.1314
     78  N          6.6920   15.6350  -23.4160 N.3   124  ALA124     -0.1231
     79  CA         5.9120   14.7830  -24.3070 C.3   124  ALA124      0.1694
     80  C          5.9530   15.3010  -25.7390 C.2   124  ALA124      0.2592
     81  O          6.0820   14.5170  -26.6860 O.2   124  ALA124     -0.2718
     82  CB         4.4700   14.6910  -23.8130 C.3   124  ALA124      0.0304
     83  N          5.8420   16.6180  -25.9180 N.am  125  PHE125     -0.1976
     84  CA         5.9340   17.1880  -27.2590 C.3   125  PHE125      0.1639
     85  C          7.2550   16.8140  -27.9200 C.2   125  PHE125      0.2290
     86  O          7.2820   16.3810  -29.0780 O.2   125  PHE125     -0.2864
     87  CB         5.7700   18.7080  -27.1990 C.3   125  PHE125      0.0560
     88  CG         6.1460   19.4030  -28.4770 C.ar  125  PHE125     -0.0200
     89  CD1        5.2900   19.3920  -29.5650 C.ar  125  PHE125     -0.0042
     90  CD2        7.3610   20.0570  -28.5920 C.ar  125  PHE125     -0.0042
     91  CE1        5.6370   20.0260  -30.7440 C.ar  125  PHE125     -0.0003
     92  CE2        7.7140   20.6930  -29.7670 C.ar  125  PHE125     -0.0003
     93  CZ         6.8500   20.6770  -30.8450 C.ar  125  PHE125     -0.0000
     94  N          7.1630   13.0850  -29.1740 N.3   128  TYR128     -0.1241
     95  CA         6.3060   12.7360  -30.2980 C.3   128  TYR128      0.1605
     96  C          6.4390   13.6850  -31.4810 C.2   128  TYR128      0.2264
     97  O          5.9510   13.3610  -32.5700 O.2   128  TYR128     -0.2867
     98  CB         4.8410   12.7020  -29.8480 C.3   128  TYR128      0.0534
     99  CG         4.5350   11.6150  -28.8430 C.ar  128  TYR128     -0.0201
    100  CD1        4.1480   10.3480  -29.2590 C.ar  128  TYR128     -0.0009
    101  CD2        4.6300   11.8570  -27.4780 C.ar  128  TYR128     -0.0009
    102  CE1        3.8660    9.3510  -28.3440 C.ar  128  TYR128      0.0417
    103  CE2        4.3500   10.8670  -26.5570 C.ar  128  TYR128      0.0417
    104  CZ         3.9680    9.6160  -26.9960 C.ar  128  TYR128      0.1957
    105  OH         3.6900    8.6260  -26.0810 O.3   128  TYR128     -0.2866
@<TRIPOS>BOND
     1    42    41    2
     2    41    40    1
     3    40    43    1
     4    40    39    1
     5    43    44    1
     6    45    44    1
     7    45    46    1
     8    33    32    2
     9    47    46    1
    10    39    32   am
    11    32    31    1
    12    31    30    1
    13    31    34    1
    14    97    96    2
    15    35    34    1
    16    35    36    1
    17    38    36   ar
    18    36    37   ar
    19    96    95    1
    20    21    20    2
    21    93    91   ar
    22    93    92   ar
    23    91    89   ar
    24    20    19    1
    25    95    98    1
    26    95    94    1
    27    98    99    1
    28    92    90   ar
    29    89    88   ar
    30   100    99   ar
    31   100   102   ar
    32    19    22    1
    33    19    18    1
    34    86    85    2
    35    99   101   ar
    36    15    14    2
    37    22    23    1
    38    90    88   ar
    39    88    87    1
    40   102   104   ar
    41    18    14   am
    42    24    23   ar
    43    24    26   ar
    44    14    13    1
    45    85    84    1
    46    23    25   ar
    47   101   103   ar
    48    84    87    1
    49    84    83    1
    50    26    28   ar
    51   104   103   ar
    52   104   105    1
    53    13    12    1
    54    13    16    1
    55    81    80    2
    56    25    27   ar
    57     4     3    2
    58    83    80   am
    59    80    79    1
    60    28    27   ar
    61    28    29    1
    62    17    16    1
    63     3     2    1
    64    79    82    1
    65    79    78    1
    66     2     5    1
    67     2     1    1
    68    72    71    2
    69     5     6    1
    70    71    70    1
    71     6     7    1
    72     7     8    1
    73    75    76    1
    74    75    74    1
    75    70    73    1
    76    70    69    1
    77    73    74    1
    78     8     9    2
    79    76    77    1
    80    63    62    2
    81    69    62   am
    82     9    11    1
    83     9    10    1
    84    62    61    1
    85    59    58    1
    86    61    60    1
    87    61    64    1
    88    57    58   ar
    89    57    55   ar
    90    58    56   ar
    91    51    50    2
    92    64    65    1
    93    55    53   ar
    94    56    54   ar
    95    50    49    1
    96    65    66    1
    97    53    54   ar
    98    53    52    1
    99    67    66   ar
   100    66    68   ar
   101    49    52    1
   102    49    48    1
