@<TRIPOS>MOLECULE
tmp/5v4vA01.pdb
 128 124 0 0 0
SMALL
GASTEIGER

@<TRIPOS>ATOM
      1  N        -10.4110  -48.2720   29.1860 N.3    35  PRO35      -0.2116
      2  CA       -11.3290  -49.2010   28.5360 C.3    35  PRO35       0.1372
      3  C        -12.7800  -48.8530   28.8400 C.2    35  PRO35       0.2244
      4  O        -13.1530  -48.6730   30.0070 O.2    35  PRO35      -0.2868
      5  CB       -10.9300  -50.5570   29.1170 C.3    35  PRO35       0.0268
      6  CG       -10.1700  -50.2380   30.3940 C.3    35  PRO35       0.0207
      7  CD        -9.5030  -48.9400   30.1260 C.3    35  PRO35       0.0892
      8  N        -16.4760  -50.2690   27.4920 N.3    37  THR37      -0.1218
      9  CA       -17.4590  -51.1080   26.8060 C.3    37  THR37       0.1862
     10  C        -18.5970  -50.2380   26.2440 C.2    37  THR37       0.2287
     11  O        -19.2240  -49.4800   26.9760 O.2    37  THR37      -0.2866
     12  CB       -18.0100  -52.1920   27.7790 C.3    37  THR37       0.1770
     13  OG1      -16.9850  -53.1580   28.0640 O.3    37  THR37      -0.2211
     14  CG2      -19.1760  -52.9370   27.1770 C.3    37  THR37       0.0375
     15  N        -20.6440  -51.6480   23.3310 N.3    39  MET39      -0.1245
     16  CA       -21.5940  -52.6070   22.7740 C.3    39  MET39       0.1570
     17  C        -22.0290  -52.2760   21.3290 C.2    39  MET39       0.2261
     18  O        -23.1970  -52.4780   20.9630 O.2    39  MET39      -0.2867
     19  CB       -22.8390  -52.7310   23.6770 C.3    39  MET39       0.0387
     20  CG       -22.5500  -53.2640   25.0790 C.3    39  MET39       0.0595
     21  SD       -21.7150  -54.8640   25.0260 S.3    39  MET39      -0.1393
     22  CE       -21.8220  -55.3100   26.7460 C.3    39  MET39       0.0692
     23  N        -21.3060  -61.7030   25.8310 N.3    82  TYR82      -0.1241
     24  CA       -21.9770  -60.4630   25.4610 C.3    82  TYR82       0.1605
     25  C        -21.9310  -60.3010   23.9440 C.2    82  TYR82       0.2264
     26  O        -20.8590  -60.0780   23.3670 O.2    82  TYR82      -0.2867
     27  CB       -21.3250  -59.2480   26.1030 C.3    82  TYR82       0.0534
     28  CG       -21.2610  -59.2330   27.6040 C.ar   82  TYR82      -0.0201
     29  CD1      -22.1340  -59.9780   28.3820 C.ar   82  TYR82      -0.0009
     30  CD2      -20.3190  -58.4510   28.2420 C.ar   82  TYR82      -0.0009
     31  CE1      -22.0630  -59.9450   29.7800 C.ar   82  TYR82       0.0417
     32  CE2      -20.2360  -58.4070   29.6300 C.ar   82  TYR82       0.0417
     33  CZ       -21.1030  -59.1420   30.3930 C.ar   82  TYR82       0.1957
     34  OH       -20.9620  -59.0660   31.7790 O.3    82  TYR82      -0.2866
     35  N         -7.5700  -54.0150   25.5300 N.3   114  GLN114     -0.1245
     36  CA        -7.8670  -54.6830   26.7880 C.3   114  GLN114      0.1566
     37  C         -8.4250  -56.0820   26.5500 C.2   114  GLN114      0.2260
     38  O         -9.4870  -56.2640   25.9260 O.2   114  GLN114     -0.2867
     39  CB        -8.8410  -53.9000   27.6280 C.3   114  GLN114      0.0367
     40  CG        -9.0060  -54.5540   29.0090 C.3   114  GLN114      0.0905
     41  CD       -10.0650  -53.9310   29.8660 C.2   114  GLN114      0.2608
     42  OE1      -11.2540  -54.0250   29.5810 O.2   114  GLN114     -0.2717
     43  NE2       -9.6320  -53.3430   30.9840 N.am  114  GLN114     -0.0878
     44  N        -10.1030  -59.3910   27.6930 N.3   116  TRP116     -0.1241
     45  CA       -11.2190  -59.5790   28.6200 C.3   116  TRP116      0.1605
     46  C        -11.6970  -61.0300   28.6950 C.2   116  TRP116      0.2264
     47  O        -11.8420  -61.7130   27.6730 O.2   116  TRP116     -0.2867
     48  CB       -12.3750  -58.6940   28.1580 C.3   116  TRP116      0.0550
     49  CG       -13.3710  -58.2580   29.1670 C.ar  116  TRP116      0.0003
     50  CD1      -13.2780  -58.3010   30.5310 C.ar  116  TRP116      0.0946
     51  CD2      -14.6400  -57.6610   28.8690 C.ar  116  TRP116      0.0152
     52  NE1      -14.4150  -57.7670   31.1000 N.ar  116  TRP116     -0.2442
     53  CE2      -15.2700  -57.3730   30.0960 C.ar  116  TRP116      0.0810
     54  CE3      -15.3120  -57.3590   27.6720 C.ar  116  TRP116      0.0012
     55  CZ2      -16.5310  -56.7770   30.1640 C.ar  116  TRP116      0.0191
     56  CZ3      -16.5680  -56.7860   27.7470 C.ar  116  TRP116      0.0001
     57  CH2      -17.1640  -56.5050   28.9750 C.ar  116  TRP116      0.0015
     58  N         -7.1200  -57.3260   31.6710 N.3   191  HIS191     -0.1241
     59  CA        -8.1730  -56.9520   32.5950 C.3   191  HIS191      0.1621
     60  C         -8.1910  -57.9300   33.7660 C.2   191  HIS191      0.2264
     61  O         -8.5580  -59.0850   33.6050 O.2   191  HIS191     -0.2867
     62  CB        -9.5360  -56.9500   31.8820 C.3   191  HIS191      0.0745
     63  CG       -10.5890  -56.1720   32.5970 C.ar  191  HIS191      0.0817
     64  ND1      -10.4570  -55.7250   33.8900 N.ar  191  HIS191     -0.2268
     65  CD2      -11.8290  -55.7870   32.1840 C.ar  191  HIS191      0.1154
     66  CE1      -11.5580  -55.0680   34.2410 C.ar  191  HIS191      0.1986
     67  NE2      -12.3920  -55.0990   33.2240 N.ar  191  HIS191     -0.2212
     68  N        -12.4420  -55.2020   38.3050 N.3   194  ASN194     -0.1240
     69  CA       -13.8820  -54.9550   38.1790 C.3   194  ASN194      0.1653
     70  C        -14.7420  -56.2230   38.2000 C.2   194  ASN194      0.2266
     71  O        -15.8350  -56.2530   37.6400 O.2   194  ASN194     -0.2867
     72  CB       -14.1520  -54.1400   36.9170 C.3   194  ASN194      0.1155
     73  CG       -13.4050  -52.8250   36.9230 C.2   194  ASN194      0.2627
     74  OD1      -13.1210  -52.2760   37.9840 O.2   194  ASN194     -0.2716
     75  ND2      -13.0340  -52.3360   35.7420 N.am  194  ASN194     -0.0877
     76  N        -14.3500  -59.2680   36.9700 N.3   196  TYR196     -0.1241
     77  CA       -14.3770  -60.2240   35.8740 C.3   196  TYR196      0.1605
     78  C        -13.4650  -61.3940   36.2450 C.2   196  TYR196      0.2264
     79  O        -13.1050  -61.5480   37.4240 O.2   196  TYR196     -0.2867
     80  CB       -14.0330  -59.5170   34.5580 C.3   196  TYR196      0.0534
     81  CG       -15.1380  -58.5240   34.2700 C.ar  196  TYR196     -0.0201
     82  CD1      -16.4010  -58.9610   33.8790 C.ar  196  TYR196     -0.0009
     83  CD2      -14.9510  -57.1670   34.4680 C.ar  196  TYR196     -0.0009
     84  CE1      -17.4330  -58.0680   33.6630 C.ar  196  TYR196      0.0417
     85  CE2      -15.9860  -56.2530   34.2410 C.ar  196  TYR196      0.0417
     86  CZ       -17.2270  -56.7140   33.8580 C.ar  196  TYR196      0.1957
     87  OH       -18.2610  -55.8190   33.6430 O.3   196  TYR196     -0.2866
     88  N         -4.5720  -54.2590   34.6940 N.3   243  ARG243     -0.1245
     89  CA        -5.5680  -53.4580   35.3990 C.3   243  ARG243      0.1563
     90  C         -6.1010  -54.1830   36.6230 C.2   243  ARG243      0.2260
     91  O         -6.4370  -55.3740   36.5790 O.2   243  ARG243     -0.2867
     92  CB        -6.7280  -53.0490   34.4780 C.3   243  ARG243      0.0307
     93  CG        -7.5360  -51.8970   35.0710 C.3   243  ARG243      0.0489
     94  CD        -8.6150  -51.3420   34.1520 C.3   243  ARG243      0.2205
     95  NE        -8.8340  -49.9150   34.4090 N.pl3 243  ARG243     -0.0865
     96  CZ        -9.9900  -49.2760   34.3150 C.cat 243  ARG243      0.5346
     97  NH1      -11.1040  -49.9200   33.9690 N.pl3 243  ARG243      0.1354
     98  NH2      -10.0310  -47.9710   34.5520 N.pl3 243  ARG243      0.1354
     99  N        -17.9800  -53.7110   42.4840 N.3   250  PHE250     -0.1241
    100  CA       -18.6800  -54.0910   41.2560 C.3   250  PHE250      0.1605
    101  C        -18.5160  -55.5870   40.9840 C.2   250  PHE250      0.2264
    102  O        -17.4280  -56.1530   41.1430 O.2   250  PHE250     -0.2867
    103  CB       -18.1450  -53.2470   40.0930 C.3   250  PHE250      0.0534
    104  CG       -18.8810  -53.4290   38.7790 C.ar  250  PHE250     -0.0203
    105  CD1      -20.2600  -53.2780   38.6890 C.ar  250  PHE250     -0.0042
    106  CD2      -18.1670  -53.7070   37.6260 C.ar  250  PHE250     -0.0042
    107  CE1      -20.9150  -53.4310   37.4560 C.ar  250  PHE250     -0.0003
    108  CE2      -18.8100  -53.8560   36.4050 C.ar  250  PHE250     -0.0003
    109  CZ       -20.1800  -53.7160   36.3250 C.ar  250  PHE250     -0.0000
    110  N        -18.8510  -48.5330   38.7460 N.3   295  PRO295     -0.2116
    111  CA       -19.0210  -47.4730   37.7450 C.3   295  PRO295      0.1372
    112  C        -20.4670  -47.3390   37.2660 C.2   295  PRO295      0.2244
    113  O        -20.7690  -46.4780   36.4280 O.2   295  PRO295     -0.2868
    114  CB       -18.0910  -47.9260   36.6050 C.3   295  PRO295      0.0268
    115  CG       -18.0670  -49.4420   36.7200 C.3   295  PRO295      0.0207
    116  CD       -18.2300  -49.7520   38.1860 C.3   295  PRO295      0.0892
    117  N        -24.6210  -48.0270   25.6810 N.3   375  TYR375     -0.1241
    118  CA       -24.5730  -49.3760   25.1300 C.3   375  TYR375      0.1605
    119  C        -25.5190  -49.6530   23.9580 C.2   375  TYR375      0.2264
    120  O        -25.7690  -50.8220   23.6330 O.2   375  TYR375     -0.2867
    121  CB       -24.9140  -50.3990   26.2120 C.3   375  TYR375      0.0534
    122  CG       -24.0930  -50.2760   27.4640 C.ar  375  TYR375     -0.0201
    123  CD1      -22.7120  -50.3280   27.4130 C.ar  375  TYR375     -0.0009
    124  CD2      -24.7060  -50.1210   28.7090 C.ar  375  TYR375     -0.0009
    125  CE1      -21.9470  -50.2230   28.5720 C.ar  375  TYR375      0.0417
    126  CE2      -23.9580  -50.0180   29.8680 C.ar  375  TYR375      0.0417
    127  CZ       -22.5720  -50.0720   29.7980 C.ar  375  TYR375      0.1957
    128  OH       -21.7850  -49.9750   30.9360 O.3   375  TYR375     -0.2866
@<TRIPOS>BOND
     1    18    17    2
     2    17    16    1
     3    16    15    1
     4    16    19    1
     5    26    25    2
     6   120   119    2
     7    19    20    1
     8    25    24    1
     9   119   118    1
    10    21    20    1
    11    21    22    1
    12   118   117    1
    13   118   121    1
    14    24    23    1
    15    24    27    1
    16    35    36    1
    17    38    37    2
    18    27    28    1
    19   121   122    1
    20    10     9    1
    21    10    11    2
    22    37    36    1
    23    36    39    1
    24     9     8    1
    25     9    12    1
    26    14    12    1
    27   123   122   ar
    28   123   125   ar
    29   122   124   ar
    30    28    30   ar
    31    28    29   ar
    32    39    40    1
    33    54    56   ar
    34    54    51   ar
    35    47    46    2
    36    44    45    1
    37    56    57   ar
    38    12    13    1
    39    48    45    1
    40    48    49    1
    41    30    32   ar
    42    29    31   ar
    43     2     3    1
    44     2     5    1
    45     2     1    1
    46   125   127   ar
    47    45    46    1
    48   124   126   ar
    49     3     4    2
    50    51    49   ar
    51    51    53   ar
    52    57    55   ar
    53    40    41    1
    54     5     6    1
    55    49    50   ar
    56     1     7    1
    57    42    41    2
    58    32    33   ar
    59    31    33   ar
    60   127   126   ar
    61   127   128    1
    62    41    43   am
    63    53    55   ar
    64    53    52   ar
    65     7     6    1
    66    33    34    1
    67    50    52   ar
    68    58    59    1
    69    62    59    1
    70    62    63    1
    71    65    63   ar
    72    65    67   ar
    73    59    60    1
    74    63    64   ar
    75    67    66   ar
    76    61    60    2
    77    87    86    1
    78    84    86   ar
    79    84    82   ar
    80    86    85   ar
    81    82    81   ar
    82    64    66   ar
    83    97    96    1
    84    94    95    1
    85    94    93    1
    86    85    83   ar
    87    81    83   ar
    88    81    80    1
    89    96    95    2
    90    96    98    1
    91    92    93    1
    92    92    89    1
    93    80    77    1
    94    88    89    1
    95    89    90    1
    96    75    73   am
    97    77    78    1
    98    77    76    1
    99    78    79    2
   100   109   108   ar
   101   109   107   ar
   102   108   106   ar
   103   113   112    2
   104    91    90    2
   105   114   115    1
   106   114   111    1
   107   115   116    1
   108    72    73    1
   109    72    69    1
   110    73    74    2
   111   112   111    1
   112   107   105   ar
   113   106   104   ar
   114    71    70    2
   115   111   110    1
   116    69    70    1
   117    69    68    1
   118   116   110    1
   119   105   104   ar
   120   104   103    1
   121   103   100    1
   122   101   102    2
   123   101   100    1
   124   100    99    1
