@<TRIPOS>MOLECULE
tmp/5v4wA01.pdb
 187 183 0 0 0
SMALL
GASTEIGER

@<TRIPOS>ATOM
      1  N         23.2110   -1.6250   -3.7240 N.3    53  TYR53      -0.1227
      2  CA        24.2540   -1.3170   -2.7260 C.3    53  TYR53       0.1736
      3  C         25.6130   -1.0190   -3.3430 C.2    53  TYR53       0.2595
      4  O         26.6250   -0.9970   -2.6360 O.2    53  TYR53      -0.2718
      5  CB        24.3430   -2.4100   -1.6500 C.3    53  TYR53       0.0548
      6  CG        23.0220   -2.5850   -0.9540 C.ar   53  TYR53      -0.0200
      7  CD1       22.6280   -1.6970    0.0440 C.ar   53  TYR53      -0.0009
      8  CD2       22.1400   -3.6080   -1.3260 C.ar   53  TYR53      -0.0009
      9  CE1       21.4100   -1.8180    0.6630 C.ar   53  TYR53       0.0417
     10  CE2       20.9060   -3.7400   -0.7010 C.ar   53  TYR53       0.0417
     11  CZ        20.5560   -2.8380    0.2960 C.ar   53  TYR53       0.1957
     12  OH        19.3480   -2.9490    0.9390 O.3    53  TYR53      -0.2866
     13  N         25.6170   -0.7980   -4.6590 N.am   54  VAL54      -0.1966
     14  CA        26.8050   -0.3880   -5.4040 C.3    54  VAL54       0.1727
     15  C         26.8050    1.1440   -5.4500 C.2    54  VAL54       0.2616
     16  O         26.0600    1.7740   -6.2160 O.2    54  VAL54      -0.2715
     17  CB        26.8560   -1.0240   -6.8350 C.3    54  VAL54       0.0290
     18  CG1       28.0980   -0.5650   -7.6110 C.3    54  VAL54       0.0023
     19  CG2       26.8310   -2.5580   -6.7610 C.3    54  VAL54       0.0023
     20  N         27.6560    1.7290   -4.6200 N.am   55  ARG55      -0.1963
     21  CA        27.6890    3.1720   -4.3960 C.3    55  ARG55       0.1729
     22  C         28.6690    3.9240   -5.2870 C.2    55  ARG55       0.2617
     23  O         29.5810    3.3350   -5.8490 O.2    55  ARG55      -0.2715
     24  CB        28.0050    3.4390   -2.9340 C.3    55  ARG55       0.0348
     25  CG        26.9280    2.9130   -2.0320 C.3    55  ARG55       0.0492
     26  CD        27.3430    3.0090   -0.5960 C.3    55  ARG55       0.2205
     27  NE        26.3750    2.3830    0.3050 N.pl3  55  ARG55      -0.0865
     28  CZ        25.5250    3.0470    1.0840 C.cat  55  ARG55       0.5346
     29  NH1       24.7130    2.3630    1.8770 N.pl3  55  ARG55       0.1354
     30  NH2       25.4870    4.3820    1.0770 N.pl3  55  ARG55       0.1354
     31  N         28.4710    5.2340   -5.3970 N.am   56  SER56      -0.1936
     32  CA        29.3130    6.0950   -6.2300 C.3    56  SER56       0.2055
     33  C         30.7410    6.2180   -5.6940 C.2    56  SER56       0.2644
     34  O         31.6660    6.5650   -6.4290 O.2    56  SER56      -0.2714
     35  CB        28.6740    7.4840   -6.3790 C.3    56  SER56       0.2130
     36  OG        28.5210    8.1300   -5.1240 O.3    56  SER56      -0.2179
     37  N         30.9030    5.9050   -4.4170 N.am   57  THR57      -0.1937
     38  CA        32.1570    6.0770   -3.7100 C.3    57  THR57       0.2013
     39  C         32.7630    4.7040   -3.3480 C.2    57  THR57       0.2484
     40  O         32.0300    3.7190   -3.2240 O.2    57  THR57      -0.2729
     41  CB        31.9170    6.9670   -2.4430 C.3    57  THR57       0.1807
     42  OG1       33.1030    7.7090   -2.1190 O.3    57  THR57      -0.2208
     43  CG2       31.4450    6.1420   -1.2360 C.3    57  THR57       0.0379
     44  N         34.1030    4.6240   -3.2050 N.am   58  PRO58      -0.2715
     45  CA        34.7240    3.3640   -2.7660 C.3    58  PRO58       0.1536
     46  C         34.3740    2.9200   -1.3270 C.2    58  PRO58       0.2598
     47  O         34.4530    3.7170   -0.3770 O.2    58  PRO58      -0.2715
     48  CB        36.2300    3.6530   -2.8900 C.3    58  PRO58       0.0310
     49  CG        36.3420    5.1380   -2.7820 C.3    58  PRO58       0.0237
     50  CD        35.1190    5.6610   -3.4790 C.3    58  PRO58       0.0939
     51  N         33.9780    1.6510   -1.2020 N.am   59  GLU59      -0.1978
     52  CA        33.7520    0.9770    0.0810 C.3    59  GLU59       0.1602
     53  C         34.4530   -0.3880    0.1120 C.2    59  GLU59       0.2287
     54  O         34.9900   -0.8430   -0.9020 O.2    59  GLU59      -0.2864
     55  CB        32.2560    0.7940    0.3640 C.3    59  GLU59       0.0415
     56  CG        31.6270    1.8580    1.2720 C.3    59  GLU59       0.1163
     57  CD        30.9560    2.9930    0.5120 C.2    59  GLU59       0.3649
     58  OE1       30.7910    2.8800   -0.7220 O.co2  59  GLU59      -0.2457
     59  OE2       30.5790    3.9960    1.1580 O.co2  59  GLU59      -0.2457
     60  N         41.9480    3.6130   -8.7380 N.3    86  TRP86      -0.1241
     61  CA        42.3910    2.2750   -8.3450 C.3    86  TRP86       0.1605
     62  C         43.4070    1.7020   -9.3320 C.2    86  TRP86       0.2264
     63  O         43.3240    1.9300  -10.5400 O.2    86  TRP86      -0.2867
     64  CB        41.2110    1.2860   -8.2000 C.3    86  TRP86       0.0550
     65  CG        40.2380    1.5330   -7.0380 C.ar   86  TRP86       0.0003
     66  CD1       40.3930    2.4090   -5.9940 C.ar   86  TRP86       0.0946
     67  CD2       38.9920    0.8460   -6.7960 C.ar   86  TRP86       0.0152
     68  NE1       39.3150    2.3330   -5.1430 N.ar   86  TRP86      -0.2442
     69  CE2       38.4420    1.3830   -5.6070 C.ar   86  TRP86       0.0810
     70  CE3       38.2850   -0.1630   -7.4740 C.ar   86  TRP86       0.0012
     71  CZ2       37.2130    0.9450   -5.0800 C.ar   86  TRP86       0.0191
     72  CZ3       37.0630   -0.5970   -6.9500 C.ar   86  TRP86       0.0001
     73  CH2       36.5420   -0.0390   -5.7650 C.ar   86  TRP86       0.0015
     74  N         27.2040   -2.3380  -16.6620 N.3   168  MET168     -0.1230
     75  CA        27.5100   -0.9470  -16.3480 C.3   168  MET168      0.1702
     76  C         28.9370   -0.7940  -15.8050 C.2   168  MET168      0.2592
     77  O         29.6600    0.1160  -16.2030 O.2   168  MET168     -0.2718
     78  CB        26.4930   -0.3710  -15.3560 C.3   168  MET168      0.0401
     79  CG        26.6760    1.1230  -15.0970 C.3   168  MET168      0.0596
     80  SD        25.8550    1.7350  -13.6130 S.3   168  MET168     -0.1393
     81  CE        26.7240    0.7540  -12.3730 C.3   168  MET168      0.0692
     82  N         29.3350   -1.6920  -14.9080 N.am  169  ILE169     -0.1980
     83  CA        30.6540   -1.6370  -14.2720 C.3   169  ILE169      0.1595
     84  C         31.8200   -1.9090  -15.2290 C.2   169  ILE169      0.2287
     85  O         32.8280   -1.1880  -15.2070 O.2   169  ILE169     -0.2864
     86  CB        30.7250   -2.6110  -13.0810 C.3   169  ILE169      0.0276
     87  CG1       29.7180   -2.1920  -12.0070 C.3   169  ILE169      0.0022
     88  CG2       32.1520   -2.7080  -12.5150 C.3   169  ILE169      0.0022
     89  CD1       29.6080   -3.1970  -10.8920 C.3   169  ILE169      0.0001
     90  N         31.9930    1.0020  -17.3580 N.3   172  TYR172     -0.1227
     91  CA        32.5200    2.0790  -16.5500 C.3   172  TYR172      0.1736
     92  C         34.0460    2.0520  -16.5450 C.2   172  TYR172      0.2595
     93  O         34.6950    3.1120  -16.5880 O.2   172  TYR172     -0.2718
     94  CB        31.9440    2.0250  -15.1180 C.3   172  TYR172      0.0548
     95  CG        32.5860    2.9990  -14.1820 C.ar  172  TYR172     -0.0200
     96  CD1       32.1600    4.3200  -14.1270 C.ar  172  TYR172     -0.0009
     97  CD2       33.6390    2.6070  -13.3620 C.ar  172  TYR172     -0.0009
     98  CE1       32.7590    5.2230  -13.2770 C.ar  172  TYR172      0.0417
     99  CE2       34.2620    3.5140  -12.5070 C.ar  172  TYR172      0.0417
    100  CZ        33.8180    4.8120  -12.4710 C.ar  172  TYR172      0.1957
    101  OH        34.4190    5.7030  -11.6220 O.3   172  TYR172     -0.2866
    102  N         34.6230    0.8520  -16.5090 N.am  173  TYR173     -0.1976
    103  CA        36.0780    0.7220  -16.5140 C.3   173  TYR173      0.1639
    104  C         36.7320    1.4810  -17.6930 C.2   173  TYR173      0.2290
    105  O         37.7920    2.1100  -17.5370 O.2   173  TYR173     -0.2864
    106  CB        36.5130   -0.7440  -16.5160 C.3   173  TYR173      0.0560
    107  CG        38.0090   -0.8810  -16.6260 C.ar  173  TYR173     -0.0198
    108  CD1       38.6220   -1.1700  -17.8470 C.ar  173  TYR173     -0.0009
    109  CD2       38.8190   -0.6650  -15.5120 C.ar  173  TYR173     -0.0009
    110  CE1       40.0240   -1.2650  -17.9440 C.ar  173  TYR173      0.0417
    111  CE2       40.2020   -0.7560  -15.5920 C.ar  173  TYR173      0.0417
    112  CZ        40.8050   -1.0450  -16.8060 C.ar  173  TYR173      0.1957
    113  OH        42.1860   -1.1160  -16.8550 O.3   173  TYR173     -0.2866
    114  N         34.3830    6.5240  -17.6570 N.3   176  HIS176     -0.1241
    115  CA        33.8690    6.9480  -16.3520 C.3   176  HIS176      0.1621
    116  C         32.5770    7.7700  -16.3790 C.2   176  HIS176      0.2264
    117  O         32.0480    8.1120  -15.3270 O.2   176  HIS176     -0.2867
    118  CB        34.9600    7.6350  -15.5120 C.3   176  HIS176      0.0745
    119  CG        36.1580    6.7670  -15.2630 C.ar  176  HIS176      0.0817
    120  ND1       37.4490    7.2450  -15.3140 N.ar  176  HIS176     -0.2268
    121  CD2       36.2590    5.4400  -15.0100 C.ar  176  HIS176      0.1154
    122  CE1       38.2940    6.2530  -15.0930 C.ar  176  HIS176      0.1986
    123  NE2       37.5960    5.1480  -14.9050 N.ar  176  HIS176     -0.2212
    124  N         30.0020    6.3980  -17.7930 N.3   178  CYS178     -0.1221
    125  CA        29.0060    5.3480  -17.8400 C.3   178  CYS178      0.1808
    126  C         28.2940    5.2320  -16.5040 C.2   178  CYS178      0.2601
    127  O         28.9040    4.8650  -15.4910 O.2   178  CYS178     -0.2717
    128  CB        29.5950    4.0000  -18.2740 C.3   178  CYS178      0.0970
    129  SG        28.3360    2.7130  -18.3450 S.3   178  CYS178     -0.0800
    130  N         27.0020    5.5530  -16.5310 N.am  179  GLU179     -0.1979
    131  CA        26.1540    5.5490  -15.3400 C.3   179  GLU179      0.1602
    132  C         24.8570    4.7730  -15.5260 C.2   179  GLU179      0.2287
    133  O         23.9380    4.8640  -14.7030 O.2   179  GLU179     -0.2864
    134  CB        25.8550    6.9780  -14.9120 C.3   179  GLU179      0.0415
    135  CG        26.9970    7.6100  -14.1510 C.3   179  GLU179      0.1163
    136  CD        26.6610    9.0030  -13.6760 C.2   179  GLU179      0.3649
    137  OE1       26.4680    9.1790  -12.4450 O.co2 179  GLU179     -0.2457
    138  OE2       26.5680    9.9100  -14.5400 O.co2 179  GLU179     -0.2457
    139  N         22.5970    4.9130  -12.0540 N.3   193  MET193     -0.1245
    140  CA        23.0150    5.5720  -10.8090 C.3   193  MET193      0.1570
    141  C         21.9800    6.6030  -10.3710 C.2   193  MET193      0.2261
    142  O         21.7720    7.6150  -11.0370 O.2   193  MET193     -0.2867
    143  CB        24.4070    6.2080  -10.9480 C.3   193  MET193      0.0387
    144  CG        25.5610    5.2240  -11.2150 C.3   193  MET193      0.0595
    145  SD        25.7820    3.8820  -10.0020 S.3   193  MET193     -0.1393
    146  CE        26.3510    4.7520   -8.5420 C.3   193  MET193      0.0692
    147  N         37.1940   -5.7100  -12.4180 N.3   406  LEU406     -0.1245
    148  CA        36.5010   -4.6670  -11.6620 C.3   406  LEU406      0.1561
    149  C         35.1020   -5.1340  -11.2420 C.2   406  LEU406      0.2260
    150  O         34.6540   -4.8050  -10.1650 O.2   406  LEU406     -0.2867
    151  CB        36.4130   -3.3390  -12.4490 C.3   406  LEU406      0.0270
    152  CG        35.7640   -2.1360  -11.7250 C.3   406  LEU406      0.0019
    153  CD1       36.5550   -1.7370  -10.4730 C.3   406  LEU406      0.0001
    154  CD2       35.5470   -0.9120  -12.6300 C.3   406  LEU406      0.0001
    155  N         34.0710   -5.1740   -7.1580 N.3   410  VAL410     -0.1245
    156  CA        32.8580   -4.5640   -6.6230 C.3   410  VAL410      0.1561
    157  C         31.9560   -5.5940   -5.9070 C.2   410  VAL410      0.2260
    158  O         31.4770   -5.3430   -4.7960 O.2   410  VAL410     -0.2867
    159  CB        32.1190   -3.8040   -7.7650 C.3   410  VAL410      0.0252
    160  CG1       30.7690   -3.3100   -7.3180 C.3   410  VAL410      0.0019
    161  CG2       32.9740   -2.6360   -8.2610 C.3   410  VAL410      0.0019
    162  N         33.6650   -6.5770   -2.6050 N.3   413  LYS413     -0.1231
    163  CA        33.6290   -5.4710   -1.6530 C.3   413  LYS413      0.1693
    164  C         32.2440   -5.3310   -1.0280 C.2   413  LYS413      0.2591
    165  O         32.1210   -5.0930    0.1660 O.2   413  LYS413     -0.2718
    166  CB        34.0180   -4.1620   -2.3420 C.3   413  LYS413      0.0285
    167  CG        35.5110   -3.9650   -2.5000 C.3   413  LYS413      0.0035
    168  CD        35.8270   -2.7350   -3.3500 C.3   413  LYS413      0.0206
    169  CE        37.3380   -2.6030   -3.5840 C.3   413  LYS413      0.1093
    170  NZ        38.0680   -1.9910   -2.4340 N.3   413  LYS413     -0.1314
    171  N         31.2150   -5.4670   -1.8610 N.am  414  LYS414     -0.1980
    172  CA        29.8230   -5.4090   -1.4350 C.3   414  LYS414      0.1596
    173  C         29.4630   -6.5760   -0.5040 C.2   414  LYS414      0.2287
    174  O         28.7340   -6.3880    0.4620 O.2   414  LYS414     -0.2864
    175  CB        28.9030   -5.3850   -2.6650 C.3   414  LYS414      0.0298
    176  CG        27.4170   -5.3660   -2.3550 C.3   414  LYS414      0.0038
    177  CD        26.5930   -5.9070   -3.5080 C.3   414  LYS414      0.0206
    178  CE        25.2380   -6.3810   -2.9910 C.3   414  LYS414      0.1093
    179  NZ        24.2440   -6.5870   -4.0910 N.3   414  LYS414     -0.1314
    180  N         31.1150   -5.6670    2.7870 N.3   417  MET417     -0.1245
    181  CA        30.3830   -4.5660    3.3920 C.3   417  MET417      0.1570
    182  C         29.0580   -5.0280    4.0030 C.2   417  MET417      0.2261
    183  O         28.6410   -4.5150    5.0380 O.2   417  MET417     -0.2867
    184  CB        30.1350   -3.4940    2.3330 C.3   417  MET417      0.0387
    185  CG        29.5980   -2.1670    2.8380 C.3   417  MET417      0.0595
    186  SD        29.2510   -1.0240    1.4650 S.3   417  MET417     -0.1393
    187  CE        27.6400   -1.6250    0.8760 C.3   417  MET417      0.0692
@<TRIPOS>BOND
     1   129   128    1
     2   128   125    1
     3   110   108   ar
     4   110   112   ar
     5   108   107   ar
     6   125   124    1
     7   125   126    1
     8   104   105    2
     9   104   103    1
    10   114   115    1
    11    90    91    1
    12   113   112    1
    13   112   111   ar
    14    74    75    1
    15   107   106    1
    16   107   109   ar
    17    93    92    2
    18    91    92    1
    19    91    94    1
    20    92   102   am
    21   130   126   am
    22   130   131    1
    23   106   103    1
    24   103   102    1
    25   126   127    2
    26   116   115    1
    27   116   117    2
    28   115   118    1
    29    75    76    1
    30    75    78    1
    31    77    76    2
    32    76    82   am
    33   111   109   ar
    34   132   131    1
    35   132   133    2
    36   118   119    1
    37    78    79    1
    38   131   134    1
    39   120   119   ar
    40   120   122   ar
    41   119   121   ar
    42    84    85    2
    43    84    83    1
    44    94    95    1
    45    79    80    1
    46   122   123   ar
    47   121   123   ar
    48   134   135    1
    49    82    83    1
    50   138   136   ar
    51    83    86    1
    52    95    96   ar
    53    95    97   ar
    54   135   136    1
    55    96    98   ar
    56   136   137   ar
    57    80    81    1
    58    97    99   ar
    59    98   100   ar
    60    86    88    1
    61    86    87    1
    62   154   152    1
    63    99   100   ar
    64   100   101    1
    65   151   152    1
    66   151   148    1
    67   147   148    1
    68   139   140    1
    69    87    89    1
    70   152   153    1
    71   148   149    1
    72   149   150    2
    73   144   143    1
    74   144   145    1
    75   142   141    2
    76   143   140    1
    77   140   141    1
    78    63    62    2
    79   145   146    1
    80    62    61    1
    81    60    61    1
    82    61    64    1
    83   161   159    1
    84    64    65    1
    85   159   160    1
    86   159   156    1
    87    18    17    1
    88    70    72   ar
    89    70    67   ar
    90   155   156    1
    91    65    67   ar
    92    65    66   ar
    93    72    73   ar
    94    17    19    1
    95    17    14    1
    96    67    69   ar
    97   156   157    1
    98    34    33    2
    99    35    32    1
   100    35    36    1
   101    32    33    1
   102    32    31    1
   103    16    15    2
   104    66    68   ar
   105   157   158    2
   106    23    22    2
   107    73    71   ar
   108    33    37   am
   109    69    68   ar
   110    69    71   ar
   111    15    14    1
   112    15    20   am
   113    14    13    1
   114    31    22   am
   115    22    21    1
   116    13     3   am
   117    20    21    1
   118    37    38    1
   119    21    24    1
   120   179   178    1
   121     1     2    1
   122    38    39    1
   123    38    41    1
   124   169   168    1
   125   169   170    1
   126   177   178    1
   127   177   176    1
   128    50    44    1
   129    50    49    1
   130   168   167    1
   131    39    40    2
   132    39    44   am
   133     3     2    1
   134     3     4    2
   135    44    45    1
   136    24    25    1
   137    48    49    1
   138    48    45    1
   139    45    46    1
   140     2     5    1
   141   175   176    1
   142   175   172    1
   143   162   163    1
   144   167   166    1
   145    41    42    1
   146    41    43    1
   147   166   163    1
   148    25    26    1
   149   171   172    1
   150   171   164   am
   151   163   164    1
   152     5     6    1
   153   172   173    1
   154    46    51   am
   155    46    47    2
   156     8     6   ar
   157     8    10   ar
   158    51    52    1
   159   164   165    2
   160     6     7   ar
   161    54    53    2
   162    58    57   ar
   163    10    11   ar
   164    26    27    1
   165   173   174    2
   166     7     9   ar
   167    52    53    1
   168    52    55    1
   169    11     9   ar
   170    11    12    1
   171    27    28    2
   172    55    56    1
   173    57    59   ar
   174    57    56    1
   175   187   186    1
   176    30    28    1
   177    28    29    1
   178   186   185    1
   179   184   185    1
   180   184   181    1
   181   180   181    1
   182   181   182    1
   183   182   183    2
