@<TRIPOS>MOLECULE
tmp/5v4xA01.pdb
 175 170 0 0 0
SMALL
GASTEIGER

@<TRIPOS>ATOM
      1  N         22.4420   -1.4280   -3.6260 N.3    53  TYR53      -0.1227
      2  CA        23.5180   -1.1050   -2.7070 C.3    53  TYR53       0.1736
      3  C         24.8610   -0.8230   -3.3830 C.2    53  TYR53       0.2595
      4  O         25.9120   -0.7710   -2.7270 O.2    53  TYR53      -0.2718
      5  CB        23.6010   -2.1470   -1.5680 C.3    53  TYR53       0.0548
      6  CG        22.3550   -2.1370   -0.7250 C.ar   53  TYR53      -0.0200
      7  CD1       22.2450   -1.2830    0.3750 C.ar   53  TYR53      -0.0009
      8  CD2       21.2560   -2.9650   -1.0430 C.ar   53  TYR53      -0.0009
      9  CE1       21.0850   -1.2650    1.1480 C.ar   53  TYR53       0.0417
     10  CE2       20.0880   -2.9460   -0.2780 C.ar   53  TYR53       0.0417
     11  CZ        20.0100   -2.0970    0.8090 C.ar   53  TYR53       0.1957
     12  OH        18.8710   -2.0830    1.5800 O.3    53  TYR53      -0.2866
     13  N         24.8280   -0.5880   -4.6940 N.am   54  VAL54      -0.1966
     14  CA        26.0190   -0.1390   -5.4030 C.3    54  VAL54       0.1727
     15  C         25.9870    1.3810   -5.3180 C.2    54  VAL54       0.2616
     16  O         25.1720    2.0280   -5.9700 O.2    54  VAL54      -0.2715
     17  CB        26.0770   -0.6970   -6.8470 C.3    54  VAL54       0.0290
     18  CG1       27.2740   -0.1160   -7.6000 C.3    54  VAL54       0.0023
     19  CG2       26.1440   -2.2270   -6.8020 C.3    54  VAL54       0.0023
     20  N         26.8430    1.9380   -4.4690 N.am   55  ARG55      -0.1963
     21  CA        26.8490    3.3650   -4.2060 C.3    55  ARG55       0.1729
     22  C         27.7970    4.1220   -5.1360 C.2    55  ARG55       0.2617
     23  O         28.7300    3.5300   -5.7020 O.2    55  ARG55      -0.2715
     24  CB        27.2120    3.6380   -2.7420 C.3    55  ARG55       0.0348
     25  CG        26.1320    3.1900   -1.7640 C.3    55  ARG55       0.0492
     26  CD        26.5980    3.3070   -0.3220 C.3    55  ARG55       0.2205
     27  NE        25.7030    2.5770    0.5840 N.pl3  55  ARG55      -0.0865
     28  CZ        24.7010    3.1190    1.2750 C.cat  55  ARG55       0.5346
     29  NH1       23.9650    2.3420    2.0570 N.pl3  55  ARG55       0.1354
     30  NH2       24.4180    4.4150    1.1750 N.pl3  55  ARG55       0.1354
     31  N         27.5500    5.4220   -5.2920 N.am   56  SER56      -0.1936
     32  CA        28.4400    6.2980   -6.0620 C.3    56  SER56       0.2055
     33  C         29.8070    6.5410   -5.4100 C.2    56  SER56       0.2644
     34  O         30.6670    7.1600   -6.0200 O.2    56  SER56      -0.2714
     35  CB        27.7650    7.6350   -6.3480 C.3    56  SER56       0.2130
     36  OG        27.2920    8.2130   -5.1430 O.3    56  SER56      -0.2179
     37  N         30.0120    6.0880   -4.1820 N.am   57  THR57      -0.1937
     38  CA        31.3470    6.1950   -3.5720 C.3    57  THR57       0.2013
     39  C         32.0380    4.8400   -3.4180 C.2    57  THR57       0.2484
     40  O         31.3640    3.8250   -3.1940 O.2    57  THR57      -0.2729
     41  CB        31.3360    6.9560   -2.2270 C.3    57  THR57       0.1807
     42  OG1       30.1160    6.6700   -1.5170 O.3    57  THR57      -0.2208
     43  CG2       31.4450    8.4630   -2.4830 C.3    57  THR57       0.0379
     44  N         33.3850    4.8180   -3.5580 N.am   58  PRO58      -0.2715
     45  CA        34.1700    3.6170   -3.2590 C.3    58  PRO58       0.1536
     46  C         33.9600    3.1410   -1.8110 C.2    58  PRO58       0.2598
     47  O         34.4960    3.7280   -0.8660 O.2    58  PRO58      -0.2715
     48  CB        35.6220    4.0790   -3.4960 C.3    58  PRO58       0.0310
     49  CG        35.5780    5.5740   -3.4540 C.3    58  PRO58       0.0237
     50  CD        34.2520    5.9000   -4.0710 C.3    58  PRO58       0.0939
     51  N         33.1440    2.1040   -1.6600 N.am   59  GLU59      -0.1978
     52  CA        32.8810    1.4820   -0.3660 C.3    59  GLU59       0.1602
     53  C         33.5560    0.1020   -0.2580 C.2    59  GLU59       0.2287
     54  O         34.1430   -0.3920   -1.2320 O.2    59  GLU59      -0.2864
     55  CB        31.3700    1.3730   -0.1390 C.3    59  GLU59       0.0415
     56  CG        30.9270    1.8550    1.2350 C.3    59  GLU59       0.1163
     57  CD        30.9060    3.3680    1.3580 C.2    59  GLU59       0.3649
     58  OE1       31.5250    3.8840    2.3080 O.co2  59  GLU59      -0.2457
     59  OE2       30.2760    4.0370    0.5110 O.co2  59  GLU59      -0.2457
     60  N         40.7680    3.9570   -9.1520 N.3    86  TRP86      -0.1241
     61  CA        41.3000    2.6530   -8.6520 C.3    86  TRP86       0.1605
     62  C         42.3680    2.0610   -9.5540 C.2    86  TRP86       0.2264
     63  O         42.3110    2.1980  -10.7830 O.2    86  TRP86      -0.2867
     64  CB        40.1870    1.6090   -8.4730 C.3    86  TRP86       0.0550
     65  CG        39.4260    1.6820   -7.1700 C.ar   86  TRP86       0.0003
     66  CD1       39.7920    2.3420   -6.0150 C.ar   86  TRP86       0.0946
     67  CD2       38.1760    1.0430   -6.8810 C.ar   86  TRP86       0.0152
     68  NE1       38.8330    2.1620   -5.0400 N.ar   86  TRP86      -0.2442
     69  CE2       37.8320    1.3710   -5.5430 C.ar   86  TRP86       0.0810
     70  CE3       37.3050    0.2330   -7.6260 C.ar   86  TRP86       0.0012
     71  CZ2       36.6510    0.9140   -4.9390 C.ar   86  TRP86       0.0191
     72  CZ3       36.1330   -0.2260   -7.0220 C.ar   86  TRP86       0.0001
     73  CH2       35.8140    0.1240   -5.6970 C.ar   86  TRP86       0.0015
     74  N         26.4460   -1.8370  -16.4200 N.3   169  MET169     -0.1230
     75  CA        26.7880   -0.4850  -16.0320 C.3   169  MET169      0.1702
     76  C         28.2310   -0.3860  -15.5050 C.2   169  MET169      0.2592
     77  O         28.9830    0.4740  -15.9400 O.2   169  MET169     -0.2718
     78  CB        25.8340    0.0270  -14.9590 C.3   169  MET169      0.0401
     79  CG        26.0820    1.5110  -14.6440 C.3   169  MET169      0.0596
     80  SD        25.0550    2.0770  -13.2720 S.3   169  MET169     -0.1393
     81  CE        25.8050    1.1060  -11.9420 C.3   169  MET169      0.0692
     82  N         28.5850   -1.2800  -14.5780 N.am  170  ILE170     -0.1980
     83  CA        29.8850   -1.2930  -13.9390 C.3   170  ILE170      0.1595
     84  C         30.9900   -1.5120  -14.9700 C.2   170  ILE170      0.2287
     85  O         31.9280   -0.7170  -15.0110 O.2   170  ILE170     -0.2864
     86  CB        29.9700   -2.3330  -12.8010 C.3   170  ILE170      0.0276
     87  CG1       29.0350   -1.9400  -11.6450 C.3   170  ILE170      0.0022
     88  CG2       31.3960   -2.4000  -12.2580 C.3   170  ILE170      0.0022
     89  CD1       28.7430   -3.0830  -10.6930 C.3   170  ILE170      0.0001
     90  N         31.3080    1.4830  -17.0820 N.3   173  TYR173     -0.1241
     91  CA        31.8720    2.5790  -16.2950 C.3   173  TYR173      0.1605
     92  C         33.3880    2.4860  -16.2860 C.2   173  TYR173      0.2264
     93  O         34.0610    3.5080  -16.3460 O.2   173  TYR173     -0.2867
     94  CB        31.3450    2.5500  -14.8670 C.3   173  TYR173      0.0534
     95  CG        32.0730    3.4740  -13.8980 C.ar  173  TYR173     -0.0201
     96  CD1       31.6630    4.7960  -13.7080 C.ar  173  TYR173     -0.0009
     97  CD2       33.1510    3.0020  -13.1530 C.ar  173  TYR173     -0.0009
     98  CE1       32.3260    5.6360  -12.7980 C.ar  173  TYR173      0.0417
     99  CE2       33.8330    3.8200  -12.2610 C.ar  173  TYR173      0.0417
    100  CZ        33.4170    5.1290  -12.0790 C.ar  173  TYR173      0.1957
    101  OH        34.1140    5.8850  -11.1710 O.3   173  TYR173     -0.2866
    102  N         33.7100    6.8500  -17.3740 N.3   177  HIS177     -0.1241
    103  CA        33.2960    7.1890  -16.0040 C.3   177  HIS177      0.1621
    104  C         32.0220    8.0140  -15.9200 C.2   177  HIS177      0.2264
    105  O         31.5300    8.2690  -14.8310 O.2   177  HIS177     -0.2867
    106  CB        34.4230    7.8600  -15.1940 C.3   177  HIS177      0.0745
    107  CG        35.6250    6.9930  -14.9880 C.ar  177  HIS177      0.0817
    108  ND1       36.8680    7.5060  -14.6770 N.ar  177  HIS177     -0.2268
    109  CD2       35.7850    5.6510  -15.0780 C.ar  177  HIS177      0.1154
    110  CE1       37.7370    6.5150  -14.5790 C.ar  177  HIS177      0.1986
    111  NE2       37.1050    5.3790  -14.8220 N.ar  177  HIS177     -0.2212
    112  N         29.3680    6.6860  -17.2470 N.3   179  CYS179     -0.1221
    113  CA        28.3410    5.6680  -17.3750 C.3   179  CYS179      0.1808
    114  C         27.6160    5.5850  -16.0380 C.2   179  CYS179      0.2601
    115  O         28.2430    5.3600  -15.0030 O.2   179  CYS179     -0.2717
    116  CB        28.9290    4.3220  -17.7620 C.3   179  CYS179      0.0970
    117  SG        27.6580    3.0930  -18.0640 S.3   179  CYS179     -0.0800
    118  N         26.3110    5.8190  -16.0780 N.am  180  GLU180     -0.1979
    119  CA        25.4750    5.7780  -14.8840 C.3   180  GLU180      0.1602
    120  C         24.1650    5.0370  -15.1310 C.2   180  GLU180      0.2287
    121  O         23.2630    5.0840  -14.3000 O.2   180  GLU180     -0.2864
    122  CB        25.1950    7.1920  -14.3760 C.3   180  GLU180      0.0415
    123  CG        26.3530    7.7720  -13.5890 C.3   180  GLU180      0.1163
    124  CD        26.0220    9.1130  -12.9790 C.2   180  GLU180      0.3649
    125  OE1       25.8700    9.1760  -11.7390 O.co2 180  GLU180     -0.2457
    126  OE2       25.8990   10.0930  -13.7400 O.co2 180  GLU180     -0.2457
    127  N         21.8300    5.1500  -11.7510 N.3   194  MET194     -0.1245
    128  CA        22.2770    5.7840  -10.5130 C.3   194  MET194      0.1570
    129  C         21.2590    6.8190  -10.0340 C.2   194  MET194      0.2261
    130  O         21.1320    7.8980  -10.6170 O.2   194  MET194     -0.2867
    131  CB        23.6800    6.4020  -10.7140 C.3   194  MET194      0.0387
    132  CG        24.7690    5.3570  -11.0140 C.3   194  MET194      0.0595
    133  SD        24.9560    4.0220   -9.7910 S.3   194  MET194     -0.1393
    134  CE        25.4380    4.9720   -8.3280 C.3   194  MET194      0.0692
    135  N         36.2800   -5.2670  -12.4160 N.3   407  LEU407     -0.1245
    136  CA        35.5880   -4.1870  -11.6890 C.3   407  LEU407      0.1561
    137  C         34.2170   -4.6410  -11.1580 C.2   407  LEU407      0.2260
    138  O         33.8830   -4.3760  -10.0090 O.2   407  LEU407     -0.2867
    139  CB        35.4540   -2.9120  -12.5380 C.3   407  LEU407      0.0270
    140  CG        34.9840   -1.6860  -11.7410 C.3   407  LEU407      0.0019
    141  CD1       35.9440   -1.3460  -10.6030 C.3   407  LEU407      0.0001
    142  CD2       34.7690   -0.4590  -12.6260 C.3   407  LEU407      0.0001
    143  N         33.2320   -4.6720   -7.2000 N.3   411  VAL411     -0.1245
    144  CA        32.0890   -3.9740   -6.6420 C.3   411  VAL411      0.1561
    145  C         31.1990   -4.9720   -5.9120 C.2   411  VAL411      0.2260
    146  O         30.7690   -4.6990   -4.7900 O.2   411  VAL411     -0.2867
    147  CB        31.3290   -3.1590   -7.7250 C.3   411  VAL411      0.0252
    148  CG1       30.0570   -2.5380   -7.1600 C.3   411  VAL411      0.0019
    149  CG2       32.2260   -2.0520   -8.2640 C.3   411  VAL411      0.0019
    150  N         32.9180   -5.9800   -2.6340 N.3   414  LYS414     -0.1231
    151  CA        32.8750   -4.8320   -1.7340 C.3   414  LYS414      0.1693
    152  C         31.4690   -4.6120   -1.1550 C.2   414  LYS414      0.2591
    153  O         31.3410   -4.3930    0.0520 O.2   414  LYS414     -0.2718
    154  CB        33.4150   -3.5710   -2.4160 C.3   414  LYS414      0.0285
    155  CG        34.9370   -3.5320   -2.4880 C.3   414  LYS414      0.0035
    156  CD        35.4640   -2.4700   -3.4490 C.3   414  LYS414      0.0206
    157  CE        36.9810   -2.2970   -3.3230 C.3   414  LYS414      0.1093
    158  NZ        37.4000   -1.1080   -2.5180 N.3   414  LYS414     -0.1314
    159  N         30.4360   -4.7040   -2.0030 N.am  415  LYS415     -0.1980
    160  CA        29.0360   -4.6720   -1.5630 C.3   415  LYS415      0.1596
    161  C         28.7270   -5.7810   -0.5430 C.2   415  LYS415      0.2287
    162  O         28.1360   -5.5000    0.4980 O.2   415  LYS415     -0.2864
    163  CB        28.0830   -4.7840   -2.7620 C.3   415  LYS415      0.0298
    164  CG        26.6420   -5.1720   -2.4340 C.3   415  LYS415      0.0038
    165  CD        25.8310   -5.4180   -3.7050 C.3   415  LYS415      0.0206
    166  CE        24.5010   -6.1050   -3.3780 C.3   415  LYS415      0.1093
    167  NZ        23.5600   -6.1120   -4.5600 N.3   415  LYS415     -0.1314
    168  N         30.5500   -4.8400    2.8010 N.3   418  MET418     -0.1245
    169  CA        29.6980   -3.7600    3.3260 C.3   418  MET418      0.1570
    170  C         28.3870   -4.2830    3.9460 C.2   418  MET418      0.2261
    171  O         27.9490   -3.7700    4.9700 O.2   418  MET418     -0.2867
    172  CB        29.4110   -2.7370    2.2040 C.3   418  MET418      0.0387
    173  CG        28.6620   -1.4620    2.5830 C.3   418  MET418      0.0595
    174  SD        28.3020   -0.3610    1.1810 S.3   418  MET418     -0.1393
    175  CE        26.6800   -0.9080    0.6290 C.3   418  MET418      0.0692
@<TRIPOS>BOND
     1   117   116    1
     2   116   113    1
     3   113   112    1
     4   113   114    1
     5   102   103    1
     6    90    91    1
     7    74    75    1
     8    93    92    2
     9    91    92    1
    10    91    94    1
    11   118   114   am
    12   118   119    1
    13   114   115    2
    14    75    76    1
    15    75    78    1
    16   103   104    1
    17   103   106    1
    18    77    76    2
    19   104   105    2
    20    76    82   am
    21   106   107    1
    22   120   119    1
    23   120   121    2
    24   109   107   ar
    25   109   111   ar
    26    85    84    2
    27   107   108   ar
    28    84    83    1
    29    78    79    1
    30   119   122    1
    31    94    95    1
    32   111   110   ar
    33   108   110   ar
    34    79    80    1
    35    82    83    1
    36   122   123    1
    37    83    86    1
    38    95    96   ar
    39    95    97   ar
    40   126   124   ar
    41    96    98   ar
    42   123   124    1
    43    80    81    1
    44    97    99   ar
    45   124   125   ar
    46    86    88    1
    47    86    87    1
    48    98   100   ar
    49   142   140    1
    50   139   140    1
    51   139   136    1
    52   135   136    1
    53    99   100   ar
    54   100   101    1
    55   127   128    1
    56   140   141    1
    57   136   137    1
    58    87    89    1
    59   137   138    2
    60   132   131    1
    61   132   133    1
    62    63    62    2
    63   131   128    1
    64   130   129    2
    65   128   129    1
    66   133   134    1
    67    62    61    1
    68    60    61    1
    69    61    64    1
    70    64    65    1
    71   149   147    1
    72   147   148    1
    73   147   144    1
    74    70    72   ar
    75    70    67   ar
    76    18    17    1
    77   143   144    1
    78    65    67   ar
    79    65    66   ar
    80    72    73   ar
    81    67    69   ar
    82    17    19    1
    83    17    14    1
    84   144   145    1
    85    35    32    1
    86    35    36    1
    87    32    33    1
    88    32    31    1
    89    34    33    2
    90    66    68   ar
    91    16    15    2
    92   145   146    2
    93    23    22    2
    94    73    71   ar
    95    69    68   ar
    96    69    71   ar
    97    33    37   am
    98    14    15    1
    99    14    13    1
   100    15    20   am
   101    31    22   am
   102    22    21    1
   103    13     3   am
   104   167   166    1
   105    20    21    1
   106    21    24    1
   107    37    38    1
   108    50    44    1
   109    50    49    1
   110   165   166    1
   111   165   164    1
   112     1     2    1
   113    38    39    1
   114    38    41    1
   115    44    39   am
   116    44    45    1
   117    48    49    1
   118    48    45    1
   119   156   157    1
   120   156   155    1
   121    39    40    2
   122     3     4    2
   123     3     2    1
   124   157   158    1
   125    45    46    1
   126   163   164    1
   127   163   160    1
   128    24    25    1
   129     2     5    1
   130   150   151    1
   131   155   154    1
   132    43    41    1
   133   154   151    1
   134    41    42    1
   135   159   160    1
   136   159   152   am
   137    46    51   am
   138    46    47    2
   139    25    26    1
   140   151   152    1
   141    51    52    1
   142     5     6    1
   143   160   161    1
   144    54    53    2
   145   152   153    2
   146     8     6   ar
   147     8    10   ar
   148     6     7   ar
   149   161   162    2
   150    52    53    1
   151    52    55    1
   152    26    27    1
   153    10    11   ar
   154    55    56    1
   155     7     9   ar
   156    59    57   ar
   157    27    28    2
   158   175   174    1
   159    11     9   ar
   160    11    12    1
   161    30    28    1
   162   174   173    1
   163    56    57    1
   164    28    29    1
   165    57    58   ar
   166   172   173    1
   167   172   169    1
   168   168   169    1
   169   169   170    1
   170   170   171    2
