@<TRIPOS>MOLECULE
tmp/5v54B00.pdb
 175 168 0 0 0
SMALL
GASTEIGER

@<TRIPOS>ATOM
      1  N         -0.0600    8.5640   18.3580 N.3    89  TRP89      -0.1227
      2  CA        -0.3720    7.2230   17.8660 C.3    89  TRP89       0.1737
      3  C         -1.5210    6.6050   18.6510 C.2    89  TRP89       0.2595
      4  O         -2.4500    6.0600   18.0650 O.2    89  TRP89      -0.2718
      5  CB         0.8560    6.3120   17.9490 C.3    89  TRP89       0.0564
      6  CG         0.6150    4.9100   17.4530 C.ar   89  TRP89       0.0003
      7  CD1        0.5040    4.5070   16.1550 C.ar   89  TRP89       0.0946
      8  CD2        0.4720    3.7260   18.2530 C.ar   89  TRP89       0.0152
      9  NE1        0.2950    3.1500   16.0950 N.ar   89  TRP89      -0.2442
     10  CE2        0.2720    2.6470   17.3690 C.ar   89  TRP89       0.0810
     11  CE3        0.4910    3.4740   19.6280 C.ar   89  TRP89       0.0012
     12  CZ2        0.0940    1.3380   17.8160 C.ar   89  TRP89       0.0191
     13  CZ3        0.3130    2.1720   20.0690 C.ar   89  TRP89       0.0001
     14  CH2        0.1160    1.1230   19.1660 C.ar   89  TRP89       0.0015
     15  N         -1.4530    6.6950   19.9750 N.am   90  LEU90      -0.1980
     16  CA        -2.5380    6.2360   20.8370 C.3    90  LEU90       0.1596
     17  C         -3.7820    7.1080   20.7100 C.2    90  LEU90       0.2287
     18  O         -4.8990    6.5950   20.6200 O.2    90  LEU90      -0.2864
     19  CB        -2.0830    6.1970   22.2970 C.3    90  LEU90       0.0297
     20  CG        -1.1000    5.0890   22.6740 C.3    90  LEU90       0.0022
     21  CD1       -0.6280    5.2680   24.1060 C.3    90  LEU90       0.0001
     22  CD2       -1.7420    3.7230   22.4830 C.3    90  LEU90       0.0001
     23  N         -5.3520    6.3500   17.5580 N.3    93  ASP93      -0.1225
     24  CA        -5.8060    4.9630   17.6010 C.3    93  ASP93       0.1805
     25  C         -7.0900    4.8020   18.4060 C.2    93  ASP93       0.2597
     26  O         -8.0410    4.1840   17.9330 O.2    93  ASP93      -0.2718
     27  CB        -4.7080    4.0670   18.1780 C.3    93  ASP93       0.1424
     28  CG        -5.0460    2.5930   18.0910 C.2    93  ASP93       0.3668
     29  OD1       -5.9930    2.2290   17.3640 O.co2  93  ASP93      -0.2456
     30  OD2       -4.3440    1.7920   18.7370 O.co2  93  ASP93      -0.2456
     31  N         -7.1200    5.3380   19.6210 N.am   94  ILE94      -0.1980
     32  CA        -8.3510    5.3130   20.4010 C.3    94  ILE94       0.1595
     33  C         -9.4490    6.1000   19.6750 C.2    94  ILE94       0.2287
     34  O        -10.5370    5.5760   19.4560 O.2    94  ILE94      -0.2864
     35  CB        -8.1430    5.8300   21.8400 C.3    94  ILE94       0.0276
     36  CG1       -7.5690    4.6990   22.7000 C.3    94  ILE94       0.0022
     37  CG2       -9.4560    6.2810   22.4430 C.3    94  ILE94       0.0022
     38  CD1       -7.3590    5.0480   24.1580 C.3    94  ILE94       0.0001
     39  N        -10.6790    4.3960   16.2410 N.3    97  CYS97      -0.1221
     40  CA       -11.3900    3.1780   16.5950 C.3    97  CYS97       0.1808
     41  C        -12.6620    3.4590   17.4050 C.2    97  CYS97       0.2601
     42  O        -13.6640    2.7620   17.2420 O.2    97  CYS97      -0.2717
     43  CB       -10.4610    2.2340   17.3570 C.3    97  CYS97       0.0970
     44  SG        -9.0620    1.6240   16.3880 S.3    97  CYS97      -0.0800
     45  N        -12.6250    4.4720   18.2690 N.am   98  THR98      -0.1953
     46  CA       -13.8350    4.9290   18.9590 C.3    98  THR98       0.1897
     47  C        -14.8840    5.4520   17.9800 C.2    98  THR98       0.2313
     48  O        -16.0480    5.0570   18.0360 O.2    98  THR98      -0.2863
     49  CB       -13.5280    6.0410   19.9940 C.3    98  THR98       0.1794
     50  OG1      -12.5690    5.5640   20.9460 O.3    98  THR98      -0.2208
     51  CG2      -14.7930    6.4580   20.7300 C.3    98  THR98       0.0378
     52  N        -16.8960    2.8300   16.0620 N.3   101  ILE101     -0.1245
     53  CA       -17.9740    2.2110   16.8210 C.3   101  ILE101      0.1561
     54  C        -19.1740    3.1410   16.8990 C.2   101  ILE101      0.2260
     55  O        -20.3180    2.7200   16.7300 O.2   101  ILE101     -0.2867
     56  CB       -17.5440    1.8550   18.2590 C.3   101  ILE101      0.0252
     57  CG1      -16.2300    1.0720   18.2580 C.3   101  ILE101      0.0019
     58  CG2      -18.6650    1.1110   18.9870 C.3   101  ILE101      0.0019
     59  CD1      -15.8440    0.5360   19.6180 C.3   101  ILE101      0.0001
     60  N        -12.3910   11.1970   24.6220 N.3   144  ILE144     -0.1245
     61  CA       -11.9810    9.9390   25.2460 C.3   144  ILE144      0.1561
     62  C        -10.4560    9.8450   25.3140 C.2   144  ILE144      0.2260
     63  O         -9.8940    9.4080   26.3200 O.2   144  ILE144     -0.2867
     64  CB       -12.5380    8.7090   24.4830 C.3   144  ILE144      0.0252
     65  CG1      -14.0260    8.5160   24.7760 C.3   144  ILE144      0.0019
     66  CG2      -11.8110    7.4400   24.8960 C.3   144  ILE144      0.0019
     67  CD1      -14.3260    8.1530   26.2180 C.3   144  ILE144      0.0001
     68  N          2.2020    1.9550   25.0830 N.3   164  VAL164     -0.1231
     69  CA         0.9020    1.3730   25.4340 C.3   164  VAL164      0.1692
     70  C          0.1140    2.3990   26.2650 C.2   164  VAL164      0.2591
     71  O          0.7000    3.3430   26.7980 O.2   164  VAL164     -0.2718
     72  CB         1.0560    0.0370   26.2400 C.3   164  VAL164      0.0266
     73  CG1       -0.2940   -0.6380   26.4810 C.3   164  VAL164      0.0020
     74  CG2        1.9800   -0.9380   25.5260 C.3   164  VAL164      0.0020
     75  N         -1.2050    2.2310   26.3530 N.am  165  VAL165     -0.1980
     76  CA        -2.0720    3.1330   27.1140 C.3   165  VAL165      0.1595
     77  C         -1.7230    3.2410   28.6050 C.2   165  VAL165      0.2287
     78  O         -1.1760    2.3120   29.2020 O.2   165  VAL165     -0.2864
     79  CB        -3.5520    2.7010   27.0070 C.3   165  VAL165      0.0276
     80  CG1       -4.0760    2.9430   25.6020 C.3   165  VAL165      0.0022
     81  CG2       -3.7110    1.2380   27.3980 C.3   165  VAL165      0.0022
     82  N         -9.1450    4.3280   33.0510 N.3   173  THR173     -0.1218
     83  CA        -8.9930    2.9950   32.4670 C.3   173  THR173      0.1862
     84  C        -10.3600    2.3850   32.1630 C.2   173  THR173      0.2287
     85  O        -10.6060    1.8860   31.0630 O.2   173  THR173     -0.2866
     86  CB        -8.2240    2.0400   33.4030 C.3   173  THR173      0.1770
     87  OG1       -7.0170    2.6680   33.8520 O.3   173  THR173     -0.2211
     88  CG2       -7.8810    0.7420   32.6800 C.3   173  THR173      0.0375
     89  N        -12.7480    4.8630   29.8080 N.3   176  SER176     -0.1202
     90  CA       -12.4200    4.7350   28.4030 C.3   176  SER176      0.2020
     91  C        -12.9410    3.4170   27.8580 C.2   176  SER176      0.2619
     92  O        -13.6380    3.3870   26.8490 O.2   176  SER176     -0.2717
     93  CB       -10.9120    4.8440   28.1960 C.3   176  SER176      0.2103
     94  OG       -10.2340    3.8210   28.9030 O.3   176  SER176     -0.2182
     95  N        -12.6060    2.3310   28.5510 N.am  177  THR177     -0.1952
     96  CA       -13.0000    0.9880   28.1400 C.3   177  THR177      0.1897
     97  C        -14.5030    0.8790   27.9130 C.2   177  THR177      0.2313
     98  O        -14.9590    0.3140   26.9190 O.2   177  THR177     -0.2863
     99  CB       -12.5930   -0.0570   29.2000 C.3   177  THR177      0.1794
    100  OG1      -11.2290    0.1410   29.5870 O.3   177  THR177     -0.2208
    101  CG2      -12.7640   -1.4530   28.6570 C.3   177  THR177      0.0378
    102  N        -15.9420    4.1230   25.4820 N.3   180  ALA180     -0.1245
    103  CA       -15.5530    3.9340   24.0830 C.3   180  ALA180      0.1562
    104  C        -16.0230    2.6030   23.4840 C.2   180  ALA180      0.2260
    105  O        -16.4530    2.5610   22.3320 O.2   180  ALA180     -0.2867
    106  CB       -14.0490    4.0690   23.9280 C.3   180  ALA180      0.0290
    107  N        -13.1850   -6.7550   18.2650 N.3   327  TRP327     -0.1241
    108  CA       -12.7200   -5.9470   19.3900 C.3   327  TRP327      0.1605
    109  C        -12.8660   -6.5590   20.7850 C.2   327  TRP327      0.2264
    110  O        -11.9800   -6.3890   21.6180 O.2   327  TRP327     -0.2867
    111  CB       -13.4160   -4.5860   19.3650 C.3   327  TRP327      0.0550
    112  CG       -12.7370   -3.6270   18.4390 C.ar  327  TRP327      0.0003
    113  CD1      -13.2760   -3.0330   17.3360 C.ar  327  TRP327      0.0946
    114  CD2      -11.3720   -3.1940   18.5010 C.ar  327  TRP327      0.0152
    115  NE1      -12.3410   -2.2350   16.7230 N.ar  327  TRP327     -0.2442
    116  CE2      -11.1630   -2.3180   17.4170 C.ar  327  TRP327      0.0810
    117  CE3      -10.3090   -3.4520   19.3740 C.ar  327  TRP327      0.0012
    118  CZ2       -9.9360   -1.6980   17.1820 C.ar  327  TRP327      0.0191
    119  CZ3       -9.0920   -2.8380   19.1380 C.ar  327  TRP327      0.0001
    120  CH2       -8.9160   -1.9710   18.0510 C.ar  327  TRP327      0.0015
    121  N        -10.0300   -8.3430   22.6480 N.3   330  PHE330     -0.1227
    122  CA        -9.0930   -7.3580   23.1660 C.3   330  PHE330      0.1736
    123  C         -9.5320   -6.8320   24.5290 C.2   330  PHE330      0.2595
    124  O         -8.7480   -6.8160   25.4760 O.2   330  PHE330     -0.2718
    125  CB        -8.9340   -6.2010   22.1670 C.3   330  PHE330      0.0547
    126  CG        -8.1440   -5.0360   22.6980 C.ar  330  PHE330     -0.0202
    127  CD1       -6.7860   -4.9300   22.4760 C.ar  330  PHE330     -0.0042
    128  CD2       -8.7700   -4.0530   23.4490 C.ar  330  PHE330     -0.0042
    129  CE1       -6.0760   -3.8590   22.9860 C.ar  330  PHE330     -0.0003
    130  CE2       -8.0660   -2.9920   23.9510 C.ar  330  PHE330     -0.0003
    131  CZ        -6.7160   -2.8910   23.7170 C.ar  330  PHE330     -0.0000
    132  N        -10.7920   -6.4220   24.6220 N.am  331  PHE331     -0.1976
    133  CA       -11.3350   -5.8610   25.8540 C.3   331  PHE331      0.1639
    134  C        -11.6170   -6.8860   26.9490 C.2   331  PHE331      0.2290
    135  O        -11.6890   -6.5320   28.1270 O.2   331  PHE331     -0.2864
    136  CB       -12.6190   -5.1060   25.5320 C.3   331  PHE331      0.0560
    137  CG       -12.3990   -3.8840   24.7010 C.ar  331  PHE331     -0.0200
    138  CD1      -12.0070   -2.6920   25.2820 C.ar  331  PHE331     -0.0042
    139  CD2      -12.5700   -3.9340   23.3270 C.ar  331  PHE331     -0.0042
    140  CE1      -11.8010   -1.5710   24.5070 C.ar  331  PHE331     -0.0003
    141  CE2      -12.3610   -2.8190   22.5470 C.ar  331  PHE331     -0.0003
    142  CZ       -11.9840   -1.6370   23.1400 C.ar  331  PHE331     -0.0000
    143  N         -7.6620   -7.4730   27.8450 N.3   334  SER334     -0.1202
    144  CA        -7.0130   -6.2640   28.3940 C.3   334  SER334      0.2020
    145  C         -7.1660   -6.0770   29.9140 C.2   334  SER334      0.2618
    146  O         -6.2710   -5.5440   30.5760 O.2   334  SER334     -0.2717
    147  CB        -7.5380   -5.0080   27.6860 C.3   334  SER334      0.2103
    148  OG        -8.8940   -4.7530   28.0080 O.3   334  SER334     -0.2182
    149  N         -8.3050   -6.4980   30.4560 N.am  335  LEU335     -0.1979
    150  CA        -8.5790   -6.3690   31.8870 C.3   335  LEU335      0.1596
    151  C         -7.8910   -7.4670   32.7020 C.2   335  LEU335      0.2287
    152  O         -7.4930   -7.2480   33.8460 O.2   335  LEU335     -0.2864
    153  CB       -10.0890   -6.4110   32.1350 C.3   335  LEU335      0.0297
    154  CG       -10.9760   -5.4320   31.3600 C.3   335  LEU335      0.0022
    155  CD1      -12.4370   -5.7680   31.5840 C.3   335  LEU335      0.0001
    156  CD2      -10.7000   -3.9960   31.7780 C.3   335  LEU335      0.0001
    157  N         -5.3080   -6.7410   19.2160 N.3   350  THR350     -0.1218
    158  CA        -5.2520   -5.3680   18.7110 C.3   350  THR350      0.1862
    159  C         -5.3790   -5.3430   17.1940 C.2   350  THR350      0.2287
    160  O         -6.1020   -4.5210   16.6330 O.2   350  THR350     -0.2866
    161  CB        -3.9390   -4.6410   19.0820 C.3   350  THR350      0.1770
    162  OG1       -2.8320   -5.5330   18.9260 O.3   350  THR350     -0.2211
    163  CG2       -3.9660   -4.1510   20.4980 C.3   350  THR350      0.0375
    164  N         -8.2700   -4.1750   14.8310 N.3   354  TYR354     -0.1241
    165  CA        -8.0520   -3.3210   13.6640 C.3   354  TYR354      0.1605
    166  C         -8.6480   -3.9540   12.4140 C.2   354  TYR354      0.2264
    167  O         -9.0580   -3.2570   11.4860 O.2   354  TYR354     -0.2867
    168  CB        -6.5590   -3.0650   13.4330 C.3   354  TYR354      0.0534
    169  CG        -5.8220   -2.3920   14.5690 C.ar  354  TYR354     -0.0201
    170  CD1       -6.4770   -1.5410   15.4500 C.ar  354  TYR354     -0.0009
    171  CD2       -4.4590   -2.6070   14.7540 C.ar  354  TYR354     -0.0009
    172  CE1       -5.7950   -0.9260   16.4840 C.ar  354  TYR354      0.0417
    173  CE2       -3.7730   -1.9980   15.7820 C.ar  354  TYR354      0.0417
    174  CZ        -4.4450   -1.1600   16.6430 C.ar  354  TYR354      0.1957
    175  OH        -3.7670   -0.5510   17.6670 O.3   354  TYR354     -0.2866
@<TRIPOS>BOND
     1   167   166    2
     2   166   165    1
     3   168   165    1
     4   168   169    1
     5   165   164    1
     6   169   171   ar
     7   169   170   ar
     8   171   173   ar
     9   170   172   ar
    10   173   174   ar
    11    52    53    1
    12     9     7   ar
    13     9    10   ar
    14     7     6   ar
    15    39    40    1
    16    44    43    1
    17   172   174   ar
    18    40    43    1
    19    40    41    1
    20   160   159    2
    21   174   175    1
    22   115   113   ar
    23   115   116   ar
    24    55    54    2
    25    53    54    1
    26    53    56    1
    27   118   116   ar
    28   118   120   ar
    29   159   158    1
    30    42    41    2
    31   113   112   ar
    32    29    28   ar
    33    10    12   ar
    34    10     8   ar
    35    41    45   am
    36   116   114   ar
    37     6     5    1
    38     6     8   ar
    39    23    24    1
    40    24    27    1
    41    24    25    1
    42    12    14   ar
    43     2     5    1
    44     2     1    1
    45     2     3    1
    46    26    25    2
    47    47    48    2
    48    47    46    1
    49   120   119   ar
    50     4     3    2
    51    28    27    1
    52    28    30   ar
    53     8    11   ar
    54    57    56    1
    55    57    59    1
    56    56    58    1
    57   107   108    1
    58    45    46    1
    59    25    31   am
    60   112   114   ar
    61   112   111    1
    62   114   117   ar
    63     3    15   am
    64   158   161    1
    65   158   157    1
    66   162   161    1
    67    46    49    1
    68   161   163    1
    69   119   117   ar
    70    14    13   ar
    71   111   108    1
    72   108   109    1
    73    34    33    2
    74    31    32    1
    75    11    13   ar
    76    33    32    1
    77    15    16    1
    78    49    51    1
    79    49    50    1
    80    32    35    1
    81    18    17    2
    82    17    16    1
    83   109   110    2
    84    16    19    1
    85    35    37    1
    86    35    36    1
    87   125   126    1
    88   125   122    1
    89    19    20    1
    90   105   104    2
    91   127   126   ar
    92   127   129   ar
    93    22    20    1
    94   141   142   ar
    95   141   139   ar
    96   121   122    1
    97    20    21    1
    98   126   128   ar
    99    36    38    1
   100   129   131   ar
   101   142   140   ar
   102   122   123    1
   103   139   137   ar
   104   128   130   ar
   105   104   103    1
   106   131   130   ar
   107   106   103    1
   108   103   102    1
   109    64    65    1
   110    64    66    1
   111    64    61    1
   112   140   138   ar
   113   123   132   am
   114   123   124    2
   115    60    61    1
   116   132   133    1
   117   137   138   ar
   118   137   136    1
   119    65    67    1
   120    68    69    1
   121    61    62    1
   122    62    63    2
   123    69    72    1
   124    69    70    1
   125    74    72    1
   126   136   133    1
   127    80    79    1
   128   133   134    1
   129    72    73    1
   130    70    75   am
   131    70    71    2
   132    75    76    1
   133    92    91    2
   134    98    97    2
   135   134   135    2
   136    79    76    1
   137    79    81    1
   138    76    77    1
   139   147   148    1
   140   147   144    1
   141   143   144    1
   142    91    90    1
   143    91    95   am
   144    97    96    1
   145    96    95    1
   146    96    99    1
   147    93    90    1
   148    93    94    1
   149   144   145    1
   150    90    89    1
   151    77    78    2
   152   101    99    1
   153    99   100    1
   154   145   149   am
   155   145   146    2
   156   149   150    1
   157    85    84    2
   158   154   155    1
   159   154   156    1
   160   154   153    1
   161   150   153    1
   162   150   151    1
   163    84    83    1
   164    83    82    1
   165    83    86    1
   166    88    86    1
   167   151   152    2
   168    86    87    1
