@<TRIPOS>MOLECULE
tmp/5v56A02.pdb
 90 85 0 0 0
SMALL
GASTEIGER

@<TRIPOS>ATOM
      1  N         62.2730  136.2040   63.0070 N.3    55  ARG55      -0.1231
      2  CA        61.7550  136.0420   64.3790 C.3    55  ARG55       0.1694
      3  C         61.5280  134.5640   64.6180 C.2    55  ARG55       0.2592
      4  O         61.8350  134.0330   65.6920 O.2    55  ARG55      -0.2718
      5  CB        60.4490  136.8240   64.5730 C.3    55  ARG55       0.0321
      6  CG        60.6380  138.1360   65.3170 C.3    55  ARG55       0.0489
      7  CD        59.2280  138.7210   65.5660 C.3    55  ARG55       0.2205
      8  NE        58.9030  139.5570   64.4250 N.pl3  55  ARG55      -0.0865
      9  CZ        57.9830  139.4750   63.4950 C.cat  55  ARG55       0.5346
     10  NH1       57.0940  138.4850   63.4600 N.pl3  55  ARG55       0.1354
     11  NH2       57.9600  140.4340   62.5690 N.pl3  55  ARG55       0.1354
     12  N         61.0100  133.8940   63.5770 N.am   56  ASN56      -0.1974
     13  CA        60.8790  132.4530   63.5420 C.3    56  ASN56       0.1688
     14  C         62.3130  131.9190   63.4660 C.2    56  ASN56       0.2292
     15  O         63.1930  132.5980   62.9550 O.2    56  ASN56      -0.2864
     16  CB        60.0220  132.0620   62.3720 C.3    56  ASN56       0.1181
     17  CG        58.7120  132.8110   62.3070 C.2    56  ASN56       0.2629
     18  OD1       58.0780  133.1030   63.3270 O.2    56  ASN56      -0.2716
     19  ND2       58.2860  133.1690   61.1140 N.am   56  ASN56      -0.0877
     20  N         59.2740  133.3390   68.0970 N.3   134  GLN134     -0.1245
     21  CA        58.4660  132.1630   68.4150 C.3   134  GLN134      0.1566
     22  C         58.4530  131.1760   67.2530 C.2   134  GLN134      0.2260
     23  O         58.8310  131.5470   66.1420 O.2   134  GLN134     -0.2867
     24  CB        57.0320  132.5970   68.7700 C.3   134  GLN134      0.0367
     25  CG        56.4360  133.4470   67.6660 C.3   134  GLN134      0.0905
     26  CD        55.0750  133.9490   68.0300 C.2   134  GLN134      0.2608
     27  OE1       54.8820  134.5650   69.0880 O.2   134  GLN134     -0.2717
     28  NE2       54.1130  133.6940   67.1510 N.am  134  GLN134     -0.0878
     29  N         56.4040  128.6880   64.5520 N.3   136  MET136     -0.1245
     30  CA        55.1260  128.6140   63.8440 C.3   136  MET136      0.1570
     31  C         54.4020  127.2960   64.1460 C.2   136  MET136      0.2261
     32  O         55.0410  126.3490   64.5860 O.2   136  MET136     -0.2867
     33  CB        55.3460  128.7870   62.3430 C.3   136  MET136      0.0387
     34  CG        54.4170  129.8210   61.7070 C.3   136  MET136      0.0595
     35  SD        54.6530  131.5460   62.2560 S.3   136  MET136     -0.1393
     36  CE        53.0640  132.2480   61.8260 C.3   136  MET136      0.0692
     37  N         55.8130  126.4860   56.1470 N.3   570  GLN570     -0.1245
     38  CA        54.9420  126.8610   57.2610 C.3   570  GLN570      0.1566
     39  C         55.7030  127.5330   58.3920 C.2   570  GLN570      0.2260
     40  O         55.0910  128.2280   59.1990 O.2   570  GLN570     -0.2867
     41  CB        54.2060  125.6410   57.8070 C.3   570  GLN570      0.0367
     42  CG        52.9210  125.3040   57.0610 C.3   570  GLN570      0.0905
     43  CD        51.7340  126.1590   57.4520 C.2   570  GLN570      0.2608
     44  OE1       51.2000  126.9300   56.6360 O.2   570  GLN570     -0.2717
     45  NE2       51.2690  126.0120   58.6920 N.am  570  GLN570     -0.0878
     46  N         57.3440  130.0500   58.3050 N.3   572  ASN572     -0.1240
     47  CA        57.1820  131.4750   58.0010 C.3   572  ASN572      0.1653
     48  C         58.4640  132.3000   58.1510 C.2   572  ASN572      0.2266
     49  O         58.3930  133.5040   58.4150 O.2   572  ASN572     -0.2867
     50  CB        56.0540  132.0420   58.8550 C.3   572  ASN572      0.1155
     51  CG        55.5770  133.4040   58.5030 C.2   572  ASN572      0.2627
     52  OD1       55.7240  133.8790   57.3680 O.2   572  ASN572     -0.2716
     53  ND2       54.9610  134.0110   59.5100 N.am  572  ASN572     -0.0877
     54  N         54.4680  138.7140   51.3000 N.3   579  THR579     -0.1218
     55  CA        53.5490  138.1340   50.3230 C.3   579  THR579      0.1862
     56  C         52.4580  139.0980   49.8630 C.2   579  THR579      0.2287
     57  O         52.0630  140.0120   50.5960 O.2   579  THR579     -0.2866
     58  CB        52.9210  136.8690   50.8840 C.3   579  THR579      0.1770
     59  OG1       52.3260  137.1500   52.1450 O.3   579  THR579     -0.2211
     60  CG2       53.9460  135.7610   51.0360 C.3   579  THR579      0.0375
     61  N         47.9050  138.0930   52.6960 N.3   582  PRO582     -0.2102
     62  CA        48.2310  137.5310   54.0130 C.3   582  PRO582      0.1504
     63  C         48.2080  136.0270   53.9580 C.2   582  PRO582      0.2576
     64  O         48.7500  135.3510   54.8300 O.2   582  PRO582     -0.2718
     65  CB        47.0670  138.0160   54.8710 C.3   582  PRO582      0.0282
     66  CG        45.9480  138.2430   53.8930 C.3   582  PRO582      0.0208
     67  CD        46.6650  138.8900   52.7750 C.3   582  PRO582      0.0893
     68  N         47.5280  135.5200   52.9220 N.am  583  ILE583     -0.1967
     69  CA        47.3210  134.1150   52.6330 C.3   583  ILE583      0.1712
     70  C         48.5200  133.2490   53.1100 C.2   583  ILE583      0.2458
     71  O         49.6790  133.6490   52.9350 O.2   583  ILE583     -0.2730
     72  CB        46.9940  133.8970   51.1360 C.3   583  ILE583      0.0289
     73  CG1       48.0710  134.4710   50.1930 C.3   583  ILE583      0.0022
     74  CG2       45.6080  134.4410   50.8050 C.3   583  ILE583      0.0023
     75  CD1       48.8580  133.4590   49.5090 C.3   583  ILE583      0.0001
     76  N         48.2540  132.0760   53.7460 N.am  584  PRO584     -0.2716
     77  CA        49.3680  131.2330   54.2500 C.3   584  PRO584      0.1536
     78  C         50.2940  130.6530   53.1650 C.2   584  PRO584      0.2598
     79  O         51.4970  130.5050   53.4170 O.2   584  PRO584     -0.2715
     80  CB        48.6530  130.1030   55.0000 C.3   584  PRO584      0.0310
     81  CG        47.2600  130.0720   54.4280 C.3   584  PRO584      0.0237
     82  CD        46.9340  131.4820   54.0590 C.3   584  PRO584      0.0939
     83  N         49.7250  130.3350   51.9700 N.am  585  ASP585     -0.1972
     84  CA        50.3480  129.7560   50.7680 C.3   585  ASP585      0.1709
     85  C         51.1330  128.4590   51.0790 C.2   585  ASP585      0.2293
     86  O         52.2180  128.2470   50.5280 O.2   585  ASP585     -0.2864
     87  CB        51.2120  130.7730   49.9660 C.3   585  ASP585      0.1436
     88  CG        52.3240  131.4980   50.7040 C.2   585  ASP585      0.3671
     89  OD1       53.3770  130.8750   50.9520 O.co2 585  ASP585     -0.2456
     90  OD2       52.1700  132.7110   50.9660 O.co2 585  ASP585     -0.2456
@<TRIPOS>BOND
     1    75    73    1
     2    56    55    1
     3    56    57    2
     4    87    88    1
     5    87    84    1
     6    73    72    1
     7    55    58    1
     8    55    54    1
     9    86    85    2
    10    88    89   ar
    11    88    90   ar
    12    84    85    1
    13    84    83    1
    14    74    72    1
    15    58    60    1
    16    58    59    1
    17    72    69    1
    18    83    78   am
    19    69    68    1
    20    69    70    1
    21    61    67    1
    22    61    62    1
    23    67    66    1
    24    68    63   am
    25    71    70    2
    26    70    76   am
    27    78    79    2
    28    78    77    1
    29    76    82    1
    30    76    77    1
    31    66    65    1
    32    63    62    1
    33    63    64    2
    34    62    65    1
    35    82    81    1
    36    77    80    1
    37    81    80    1
    38    37    38    1
    39    44    43    2
    40    42    43    1
    41    42    41    1
    42    38    41    1
    43    38    39    1
    44    52    51    2
    45    43    45   am
    46    47    48    1
    47    47    46    1
    48    47    50    1
    49    48    49    2
    50    39    40    2
    51    51    50    1
    52    51    53   am
    53    19    17   am
    54    34    35    1
    55    34    33    1
    56    36    35    1
    57    17    16    1
    58    17    18    2
    59    33    30    1
    60    16    13    1
    61    11     9    1
    62    15    14    2
    63     1     2    1
    64    10     9    1
    65    14    13    1
    66     9     8    2
    67    13    12    1
    68    12     3   am
    69    30    31    1
    70    30    29    1
    71    31    32    2
    72     2     5    1
    73     2     3    1
    74     8     7    1
    75     5     6    1
    76     3     4    2
    77     6     7    1
    78    23    22    2
    79    28    26   am
    80    22    21    1
    81    25    26    1
    82    25    24    1
    83    26    27    2
    84    20    21    1
    85    21    24    1
