@<TRIPOS>MOLECULE
tmp/5v57A01.pdb
 158 158 0 0 0
SMALL
GASTEIGER

@<TRIPOS>ATOM
      1  N        -71.4330  -59.6730    6.0900 N.3   385  SER385     -0.1202
      2  CA       -72.6510  -59.0500    5.5820 C.3   385  SER385      0.2020
      3  C        -73.3660  -59.9450    4.5570 C.2   385  SER385      0.2619
      4  O        -72.7500  -60.3950    3.5820 O.2   385  SER385     -0.2717
      5  CB       -72.3030  -57.7090    4.9410 C.3   385  SER385      0.2103
      6  OG       -73.4540  -56.9590    4.6060 O.3   385  SER385     -0.2182
      7  N        -74.6790  -60.1830    4.7790 N.am  386  THR386     -0.1938
      8  CA       -75.5140  -60.9920    3.8910 C.3   386  THR386      0.2028
      9  C        -76.1910  -60.0900    2.8450 C.2   386  THR386      0.2643
     10  O        -76.1020  -60.4010    1.6600 O.2   386  THR386     -0.2714
     11  CB       -76.5590  -61.8010    4.6910 C.3   386  THR386      0.1808
     12  OG1      -75.8910  -62.7180    5.5510 O.3   386  THR386     -0.2208
     13  CG2      -77.5060  -62.5840    3.7970 C.3   386  THR386      0.0379
     14  N        -76.8610  -58.9910    3.2700 N.am  387  THR387     -0.1936
     15  CA       -77.6060  -58.1340    2.3380 C.3   387  THR387      0.2028
     16  C        -76.7680  -56.8710    1.9420 C.2   387  THR387      0.2643
     17  O        -77.2690  -56.0090    1.2170 O.2   387  THR387     -0.2714
     18  CB       -78.9680  -57.7290    2.9350 C.3   387  THR387      0.1808
     19  OG1      -78.7900  -56.9130    4.0910 O.3   387  THR387     -0.2208
     20  CG2      -79.8390  -58.9360    3.2680 C.3   387  THR387      0.0379
     21  N        -75.5070  -56.8170    2.3720 N.am  388  GLY388     -0.1939
     22  CA       -74.5690  -55.7550    2.0000 C.3   388  GLY388      0.2014
     23  C        -74.5560  -54.4740    2.8140 C.2   388  GLY388      0.2639
     24  O        -73.8240  -53.5430    2.4570 O.2   388  GLY388     -0.2714
     25  N        -75.3420  -54.4000    3.9040 N.am  389  ASN389     -0.1958
     26  CA       -75.4090  -53.1910    4.7320 C.3   389  ASN389      0.1819
     27  C        -74.1250  -53.0080    5.5400 C.2   389  ASN389      0.2621
     28  O        -73.6220  -51.8810    5.5870 O.2   389  ASN389     -0.2715
     29  CB       -76.6170  -53.2190    5.6660 C.3   389  ASN389      0.1195
     30  CG       -77.9330  -53.0920    4.9430 C.2   389  ASN389      0.2630
     31  OD1      -78.1030  -52.2770    4.0240 O.2   389  ASN389     -0.2716
     32  ND2      -78.9230  -53.8280    5.4030 N.am  389  ASN389     -0.0877
     33  N        -73.5780  -54.1010    6.1550 N.am  390  THR390     -0.1951
     34  CA       -72.3260  -54.0260    6.9290 C.3   390  THR390      0.1897
     35  C        -71.1590  -53.8470    5.9330 C.2   390  THR390      0.2313
     36  O        -70.2040  -53.1310    6.2460 O.2   390  THR390     -0.2863
     37  CB       -72.1540  -55.2490    7.8450 C.3   390  THR390      0.1794
     38  OG1      -73.2520  -55.2800    8.7490 O.3   390  THR390     -0.2208
     39  CG2      -70.8710  -55.2100    8.6590 C.3   390  THR390      0.0378
     40  N        -73.3060  -58.1600   11.0940 N.3   433  SER433     -0.1202
     41  CA       -74.7300  -57.9310   11.2960 C.3   433  SER433      0.2020
     42  C        -75.2990  -59.0070   12.2150 C.2   433  SER433      0.2619
     43  O        -74.6540  -60.0360   12.4160 O.2   433  SER433     -0.2717
     44  CB       -75.4620  -57.9020    9.9610 C.3   433  SER433      0.2103
     45  OG       -75.2070  -59.0620    9.1890 O.3   433  SER433     -0.2182
     46  N        -76.4780  -58.7580   12.8050 N.am  434  THR434     -0.1938
     47  CA       -77.0870  -59.7210   13.7230 C.3   434  THR434      0.2028
     48  C        -78.2700  -60.4140   13.0230 C.2   434  THR434      0.2642
     49  O        -79.0590  -59.7690   12.3270 O.2   434  THR434     -0.2714
     50  CB       -77.5130  -59.0210   15.0240 C.3   434  THR434      0.1808
     51  OG1      -76.4320  -58.2080   15.4930 O.3   434  THR434     -0.2208
     52  CG2      -77.9380  -60.0080   16.1080 C.3   434  THR434      0.0379
     53  N        -78.3540  -61.7360   13.1890 N.am  435  TRP435     -0.1959
     54  CA       -79.3930  -62.5920   12.6200 C.3   435  TRP435      0.1771
     55  C        -79.9500  -63.5080   13.7120 C.2   435  TRP435      0.2620
     56  O        -79.6910  -63.2840   14.8910 O.2   435  TRP435     -0.2715
     57  CB       -78.8430  -63.3920   11.4330 C.3   435  TRP435      0.0590
     58  CG       -78.3950  -62.5130   10.3060 C.ar  435  TRP435      0.0006
     59  CD1      -77.1520  -61.9830   10.1260 C.ar  435  TRP435      0.0946
     60  CD2      -79.2150  -61.9780    9.2610 C.ar  435  TRP435      0.0152
     61  NE1      -77.1320  -61.1930    9.0010 N.ar  435  TRP435     -0.2442
     62  CE2      -78.3860  -61.1740    8.4480 C.ar  435  TRP435      0.0810
     63  CE3      -80.5580  -62.1500    8.8930 C.ar  435  TRP435      0.0012
     64  CZ2      -78.8650  -60.5160    7.3080 C.ar  435  TRP435      0.0191
     65  CZ3      -81.0250  -61.5130    7.7530 C.ar  435  TRP435      0.0001
     66  CH2      -80.1920  -60.6890    6.9890 C.ar  435  TRP435      0.0015
     67  N        -80.7540  -64.4890   13.3220 N.am  436  GLY436     -0.1940
     68  CA       -81.3900  -65.3930   14.2700 C.3   436  GLY436      0.2014
     69  C        -82.6590  -64.7750   14.7940 C.2   436  GLY436      0.2638
     70  O        -82.6330  -63.6660   15.3400 O.2   436  GLY436     -0.2714
     71  N        -83.7790  -65.4760   14.5910 N.am  437  ASP437     -0.1971
     72  CA       -85.1130  -65.0070   14.9530 C.3   437  ASP437      0.1709
     73  C        -85.3240  -65.0710   16.4940 C.2   437  ASP437      0.2293
     74  O        -85.5450  -64.0120   17.0800 O.2   437  ASP437     -0.2864
     75  CB       -86.2070  -65.8050   14.2050 C.3   437  ASP437      0.1436
     76  CG       -85.9560  -67.2980   14.0350 C.2   437  ASP437      0.3671
     77  OD1      -85.2260  -67.8820   14.8720 O.co2 437  ASP437     -0.2456
     78  OD2      -86.4880  -67.8800   13.0640 O.co2 437  ASP437     -0.2456
     79  N        -83.0280  -65.9160   18.8630 N.3   439  SER439     -0.1217
     80  CA       -81.8160  -65.5720   19.6000 C.3   439  SER439      0.1889
     81  C        -80.8610  -64.6730   18.8070 C.2   439  SER439      0.2288
     82  O        -81.2160  -64.1570   17.7460 O.2   439  SER439     -0.2866
     83  CB       -81.0740  -66.8560   19.9740 C.3   439  SER439      0.2089
     84  OG       -80.7050  -67.5870   18.8170 O.3   439  SER439     -0.2183
     85  N        -74.6870  -53.6940   11.4630 N.3   468  CYS468     -0.1221
     86  CA       -76.0200  -53.2570   11.1150 C.3   468  CYS468      0.1808
     87  C        -77.0330  -54.1790   11.7270 C.2   468  CYS468      0.2602
     88  O        -76.8790  -55.3990   11.7040 O.2   468  CYS468     -0.2717
     89  CB       -76.1830  -53.1870    9.6010 C.3   468  CYS468      0.0970
     90  SG       -75.0540  -52.0230    8.7930 S.3   468  CYS468     -0.0800
     91  N        -78.0690  -53.5820   12.2740 N.am  469  GLY469     -0.1942
     92  CA       -79.1720  -54.3030   12.8830 C.3   469  GLY469      0.2014
     93  C        -80.4630  -53.5770   12.6200 C.2   469  GLY469      0.2638
     94  O        -80.5100  -52.6860   11.7620 O.2   469  GLY469     -0.2714
     95  N        -81.5050  -53.9350   13.3750 N.am  470  ASP470     -0.1971
     96  CA       -82.8290  -53.3380   13.2600 C.3   470  ASP470      0.1709
     97  C        -83.4800  -53.3050   14.6320 C.2   470  ASP470      0.2293
     98  O        -83.5760  -54.3530   15.2760 O.2   470  ASP470     -0.2864
     99  CB       -83.6690  -54.1480   12.2450 C.3   470  ASP470      0.1436
    100  CG       -84.9690  -53.5240   11.7790 C.2   470  ASP470      0.3671
    101  OD1      -85.3620  -52.4740   12.3350 O.co2 470  ASP470     -0.2456
    102  OD2      -85.5730  -54.0610   10.8310 O.co2 470  ASP470     -0.2456
    103  N        -86.2780  -55.6660   15.8670 N.3   473  TRP473     -0.1227
    104  CA       -85.9220  -56.9790   16.3930 C.3   473  TRP473      0.1737
    105  C        -85.4510  -56.8920   17.8320 C.2   473  TRP473      0.2595
    106  O        -84.9300  -55.8590   18.2790 O.2   473  TRP473     -0.2718
    107  CB       -84.8250  -57.6520   15.5460 C.3   473  TRP473      0.0564
    108  CG       -85.3320  -58.7030   14.6110 C.ar  473  TRP473      0.0003
    109  CD1      -85.5150  -60.0290   14.8880 C.ar  473  TRP473      0.0946
    110  CD2      -85.6850  -58.5260   13.2360 C.ar  473  TRP473      0.0152
    111  NE1      -85.9880  -60.6840   13.7740 N.ar  473  TRP473     -0.2442
    112  CE2      -86.1010  -59.7840   12.7430 C.ar  473  TRP473      0.0810
    113  CE3      -85.7140  -57.4170   12.3740 C.ar  473  TRP473      0.0012
    114  CZ2      -86.5530  -59.9610   11.4270 C.ar  473  TRP473      0.0191
    115  CZ3      -86.1330  -57.5990   11.0660 C.ar  473  TRP473      0.0001
    116  CH2      -86.5690  -58.8520   10.6100 C.ar  473  TRP473      0.0015
    117  N        -85.6200  -58.0070   18.5480 N.am  474  GLU474     -0.1965
    118  CA       -85.1300  -58.2010   19.9030 C.3   474  GLU474      0.1733
    119  C        -83.6320  -58.5000   19.8040 C.2   474  GLU474      0.2616
    120  O        -83.2080  -59.2440   18.9160 O.2   474  GLU474     -0.2715
    121  CB       -85.9200  -59.3020   20.6700 C.3   474  GLU474      0.0429
    122  CG       -86.0120  -60.6910   20.0260 C.3   474  GLU474      0.1163
    123  CD       -86.9140  -60.9390   18.8190 C.2   474  GLU474      0.3649
    124  OE1      -87.4180  -59.9710   18.2010 O.co2 474  GLU474     -0.2457
    125  OE2      -87.1320  -62.1310   18.5030 O.co2 474  GLU474     -0.2457
    126  N        -82.8430  -57.8760   20.6860 N.am  475  TYR475     -0.1960
    127  CA       -81.3770  -57.9070   20.7770 C.3   475  TYR475      0.1771
    128  C        -80.7690  -57.0920   19.6010 C.2   475  TYR475      0.2620
    129  O        -80.2110  -57.6680   18.6530 O.2   475  TYR475     -0.2715
    130  CB       -80.7710  -59.3360   20.8160 C.3   475  TYR475      0.0574
    131  CG       -81.5590  -60.3860   21.5710 C.ar  475  TYR475     -0.0198
    132  CD1      -81.6670  -60.3400   22.9610 C.ar  475  TYR475     -0.0009
    133  CD2      -82.0720  -61.5010   20.9150 C.ar  475  TYR475     -0.0009
    134  CE1      -82.3830  -61.3110   23.6620 C.ar  475  TYR475      0.0417
    135  CE2      -82.7560  -62.4970   21.6080 C.ar  475  TYR475      0.0417
    136  CZ       -82.9080  -62.4010   22.9840 C.ar  475  TYR475      0.1957
    137  OH       -83.5740  -63.3870   23.6750 O.3   475  TYR475     -0.2866
    138  N        -80.8960  -55.7490   19.6660 N.am  476  PHE476     -0.1960
    139  CA       -80.3960  -54.8380   18.6360 C.3   476  PHE476      0.1771
    140  C        -78.8860  -54.8830   18.5910 C.2   476  PHE476      0.2619
    141  O        -78.2280  -54.5130   19.5650 O.2   476  PHE476     -0.2715
    142  CB       -80.8900  -53.4010   18.8800 C.3   476  PHE476      0.0574
    143  CG       -80.3210  -52.3690   17.9350 C.ar  476  PHE476     -0.0200
    144  CD1      -80.8110  -52.2430   16.6420 C.ar  476  PHE476     -0.0042
    145  CD2      -79.3450  -51.4770   18.3600 C.ar  476  PHE476     -0.0042
    146  CE1      -80.2820  -51.2910   15.7690 C.ar  476  PHE476     -0.0003
    147  CE2      -78.8260  -50.5170   17.4900 C.ar  476  PHE476     -0.0003
    148  CZ       -79.2930  -50.4330   16.1990 C.ar  476  PHE476     -0.0000
    149  N        -78.3460  -55.3480   17.4410 N.am  477  CYS477     -0.1968
    150  CA       -76.9190  -55.5100   17.1190 C.3   477  CYS477      0.1712
    151  C        -76.2350  -56.3980   18.1850 C.2   477  CYS477      0.2296
    152  O        -75.2150  -56.0190   18.7790 O.2   477  CYS477     -0.2864
    153  CB       -76.2170  -54.1610   16.9780 C.3   477  CYS477      0.0983
    154  SG       -76.7760  -53.1870   15.5570 S.3   477  CYS477     -0.0798
    155  N        -81.3300  -49.8010   10.9300 N.3   503  GLY503     -0.1225
    156  CA       -81.8500  -49.7600    9.5690 C.3   503  GLY503      0.1811
    157  C        -80.7770  -49.5690    8.5140 C.2   503  GLY503      0.2280
    158  O        -79.6440  -50.0250    8.6950 O.2   503  GLY503     -0.2866
@<TRIPOS>BOND
     1    17    16    2
     2    10     9    2
     3    16    15    1
     4    16    21   am
     5    22    21    1
     6    22    23    1
     7    15    18    1
     8    15    14    1
     9    24    23    2
    10    23    25   am
    11     9    14   am
    12     9     8    1
    13    18    20    1
    14    18    19    1
    15     4     3    2
    16    13    11    1
    17     8    11    1
    18     8     7    1
    19    25    26    1
    20    31    30    2
    21     3     7   am
    22     3     2    1
    23     6     5    1
    24    11    12    1
    25    26    27    1
    26    26    29    1
    27     5     2    1
    28    30    32   am
    29    30    29    1
    30    27    28    2
    31    27    33   am
    32     2     1    1
    33    35    36    2
    34    35    34    1
    35    33    34    1
    36    34    37    1
    37    66    64   ar
    38    66    65   ar
    39    64    62   ar
    40    65    63   ar
    41    37    39    1
    42    37    38    1
    43    62    61   ar
    44    62    60   ar
    45   157   158    2
    46   157   156    1
    47    90    89    1
    48    63    60   ar
    49    61    59   ar
    50    45    44    1
    51    60    58   ar
    52   156   155    1
    53    89    86    1
    54    44    41    1
    55    59    58   ar
    56    58    57    1
    57   116   115   ar
    58   116   114   ar
    59   102   100   ar
    60   115   113   ar
    61    40    41    1
    62    86    85    1
    63    86    87    1
    64    41    42    1
    65   114   112   ar
    66    57    54    1
    67    88    87    2
    68    87    91   am
    69    94    93    2
    70   100    99    1
    71   100   101   ar
    72    42    43    2
    73    42    46   am
    74    99    96    1
    75    91    92    1
    76    49    48    2
    77   113   110   ar
    78    54    53    1
    79    54    55    1
    80    93    92    1
    81    93    95   am
    82   112   110   ar
    83   112   111   ar
    84    46    47    1
    85    48    53   am
    86    48    47    1
    87    78    76   ar
    88   110   108   ar
    89    96    95    1
    90    96    97    1
    91    67    55   am
    92    67    68    1
    93    55    56    2
    94    47    50    1
    95   111   109   ar
    96    76    75    1
    97    76    77   ar
    98    75    72    1
    99    68    69    1
   100    71    69   am
   101    71    72    1
   102   108   109   ar
   103   108   107    1
   104    97    98    2
   105    69    70    2
   106    72    73    1
   107    50    51    1
   108    50    52    1
   109   107   104    1
   110   154   153    1
   111   146   148   ar
   112   146   144   ar
   113   103   104    1
   114   148   147   ar
   115   104   105    1
   116    73    74    2
   117   144   143   ar
   118   153   150    1
   119   150   149    1
   120   150   151    1
   121   149   140   am
   122   147   145   ar
   123    82    81    2
   124   105   106    2
   125   105   117   am
   126   143   145   ar
   127   143   142    1
   128   151   152    2
   129   124   123   ar
   130   125   123   ar
   131   117   118    1
   132   140   139    1
   133   140   141    2
   134   139   142    1
   135   139   138    1
   136   129   128    2
   137    81    80    1
   138    84    83    1
   139   123   122    1
   140    79    80    1
   141   120   119    2
   142    80    83    1
   143   128   138   am
   144   128   127    1
   145   119   118    1
   146   119   126   am
   147   118   121    1
   148   122   121    1
   149   126   127    1
   150   127   130    1
   151   130   131    1
   152   133   131   ar
   153   133   135   ar
   154   131   132   ar
   155   135   136   ar
   156   132   134   ar
   157   136   134   ar
   158   136   137    1
