@<TRIPOS>MOLECULE
tmp/5v57B02.pdb
 112 106 0 0 0
SMALL
GASTEIGER

@<TRIPOS>ATOM
      1  N        -98.1280  -78.6230   45.6970 N.3   282  TRP282     -0.1241
      2  CA       -96.8740  -78.0390   45.2360 C.3   282  TRP282      0.1605
      3  C        -97.0570  -77.4330   43.8420 C.2   282  TRP282      0.2264
      4  O        -96.6740  -76.2850   43.6320 O.2   282  TRP282     -0.2867
      5  CB       -95.7460  -79.0730   45.2400 C.3   282  TRP282      0.0550
      6  CG       -94.4880  -78.5900   44.5830 C.ar  282  TRP282      0.0003
      7  CD1      -93.6050  -77.6720   45.0690 C.ar  282  TRP282      0.0946
      8  CD2      -93.9380  -79.0620   43.3480 C.ar  282  TRP282      0.0152
      9  NE1      -92.5680  -77.5030   44.1860 N.ar  282  TRP282     -0.2442
     10  CE2      -92.7380  -78.3550   43.1270 C.ar  282  TRP282      0.0810
     11  CE3      -94.3540  -80.0060   42.3920 C.ar  282  TRP282      0.0012
     12  CZ2      -91.9310  -78.5830   42.0060 C.ar  282  TRP282      0.0191
     13  CZ3      -93.5530  -80.2310   41.2840 C.ar  282  TRP282      0.0001
     14  CH2      -92.3560  -79.5250   41.1000 C.ar  282  TRP282      0.0015
     15  N        -96.5470  -73.3890   43.7260 N.3   286  PHE286     -0.1241
     16  CA       -95.3590  -72.9760   42.9950 C.3   286  PHE286      0.1605
     17  C        -95.7850  -72.1380   41.7720 C.2   286  PHE286      0.2264
     18  O        -95.1160  -71.1540   41.4470 O.2   286  PHE286     -0.2867
     19  CB       -94.5450  -74.2250   42.6090 C.3   286  PHE286      0.0534
     20  CG       -93.2580  -74.0320   41.8530 C.ar  286  PHE286     -0.0203
     21  CD1      -92.2220  -73.2820   42.3970 C.ar  286  PHE286     -0.0042
     22  CD2      -92.9870  -74.7820   40.7150 C.ar  286  PHE286     -0.0042
     23  CE1      -91.0110  -73.1330   41.7150 C.ar  286  PHE286     -0.0003
     24  CE2      -91.7570  -74.6700   40.0550 C.ar  286  PHE286     -0.0003
     25  CZ       -90.7750  -73.8500   40.5610 C.ar  286  PHE286     -0.0000
     26  N        -96.6880  -68.3060   42.8780 N.3   289  LEU289     -0.1245
     27  CA       -95.6460  -67.6090   43.6480 C.3   289  LEU289      0.1561
     28  C        -95.4700  -66.1440   43.2240 C.2   289  LEU289      0.2260
     29  O        -94.9970  -65.3320   44.0280 O.2   289  LEU289     -0.2867
     30  CB       -94.2760  -68.3000   43.5480 C.3   289  LEU289      0.0270
     31  CG       -94.0650  -69.6190   44.2930 C.3   289  LEU289      0.0019
     32  CD1      -92.6280  -70.0590   44.1690 C.3   289  LEU289      0.0001
     33  CD2      -94.3760  -69.4820   45.7740 C.3   289  LEU289      0.0001
     34  N        -92.7510  -79.2470   37.1420 N.3   366  VAL366     -0.1245
     35  CA       -91.4350  -79.0720   36.5220 C.3   366  VAL366      0.1561
     36  C        -91.6210  -78.1860   35.2760 C.2   366  VAL366      0.2260
     37  O        -90.6870  -77.4820   34.9000 O.2   366  VAL366     -0.2867
     38  CB       -90.6580  -80.3780   36.2020 C.3   366  VAL366      0.0252
     39  CG1      -90.3920  -81.1750   37.4690 C.3   366  VAL366      0.0019
     40  CG2      -91.3550  -81.2360   35.1600 C.3   366  VAL366      0.0019
     41  N        -91.2480  -74.8840   36.6880 N.3   369  LEU369     -0.1245
     42  CA       -89.8340  -74.6710   37.0080 C.3   369  LEU369      0.1561
     43  C        -89.1060  -73.9760   35.8470 C.2   369  LEU369      0.2260
     44  O        -88.2740  -73.0950   36.0910 O.2   369  LEU369     -0.2867
     45  CB       -89.1510  -76.0200   37.3370 C.3   369  LEU369      0.0270
     46  CG       -87.6410  -76.0070   37.6710 C.3   369  LEU369      0.0019
     47  CD1      -87.3400  -75.1760   38.9220 C.3   369  LEU369      0.0001
     48  CD2      -87.1220  -77.4090   37.8540 C.3   369  LEU369      0.0001
     49  N        -91.5170  -66.3450   34.7140 N.3   373  LYS373     -0.1245
     50  CA       -92.0740  -65.8880   35.9790 C.3   373  LYS373      0.1561
     51  C        -92.5440  -64.4460   35.8410 C.2   373  LYS373      0.2260
     52  O        -91.9710  -63.6850   35.0540 O.2   373  LYS373     -0.2867
     53  CB       -91.0360  -66.0260   37.1110 C.3   373  LYS373      0.0271
     54  CG       -90.5070  -67.4490   37.3340 C.3   373  LYS373      0.0035
     55  CD       -91.5900  -68.4390   37.7880 C.3   373  LYS373      0.0206
     56  CE       -91.0790  -69.8490   37.9650 C.3   373  LYS373      0.1093
     57  NZ       -90.0160  -69.9470   39.0040 N.3   373  LYS373     -0.1314
     58  N        -84.4390  -67.5370   48.9900 N.3   525  ILE525     -0.1231
     59  CA       -85.5280  -67.9630   48.1050 C.3   525  ILE525      0.1692
     60  C        -86.5690  -68.7380   48.9620 C.2   525  ILE525      0.2592
     61  O        -86.4640  -68.7410   50.1960 O.2   525  ILE525     -0.2718
     62  CB       -84.9950  -68.7900   46.8760 C.3   525  ILE525      0.0266
     63  CG1      -84.2090  -70.0910   47.2670 C.3   525  ILE525      0.0019
     64  CG2      -84.1480  -67.9080   45.9430 C.3   525  ILE525      0.0020
     65  CD1      -85.0470  -71.3700   47.5980 C.3   525  ILE525      0.0001
     66  N        -87.5940  -69.3360   48.3170 N.am  526  ASN526     -0.1974
     67  CA       -88.6290  -70.0700   49.0400 C.3   526  ASN526      0.1688
     68  C        -88.1600  -71.5210   49.2480 C.2   526  ASN526      0.2292
     69  O        -88.3330  -72.3670   48.3630 O.2   526  ASN526     -0.2864
     70  CB       -89.9660  -69.9930   48.2900 C.3   526  ASN526      0.1181
     71  CG       -91.1710  -70.4990   49.0550 C.2   526  ASN526      0.2629
     72  OD1      -91.0860  -71.2980   50.0010 O.2   526  ASN526     -0.2716
     73  ND2      -92.3430  -70.0920   48.6080 N.am  526  ASN526     -0.0877
     74  N        -91.1470  -74.1660   49.5760 N.3   529  MET529     -0.1230
     75  CA       -91.6950  -74.5800   48.2840 C.3   529  MET529      0.1702
     76  C        -90.7770  -75.6090   47.6320 C.2   529  MET529      0.2592
     77  O        -91.2500  -76.6170   47.1060 O.2   529  MET529     -0.2718
     78  CB       -91.8910  -73.3650   47.3680 C.3   529  MET529      0.0401
     79  CG       -92.7950  -73.6390   46.2000 C.3   529  MET529      0.0596
     80  SD       -94.4400  -74.2160   46.7330 S.3   529  MET529     -0.1393
     81  CE       -94.9760  -72.8140   47.7830 C.3   529  MET529      0.0692
     82  N        -89.4610  -75.3570   47.7010 N.am  530  LEU530     -0.1980
     83  CA       -88.4060  -76.2220   47.1850 C.3   530  LEU530      0.1596
     84  C        -88.4810  -77.6200   47.8160 C.2   530  LEU530      0.2287
     85  O        -88.5230  -78.6270   47.1120 O.2   530  LEU530     -0.2864
     86  CB       -87.0450  -75.5600   47.4980 C.3   530  LEU530      0.0297
     87  CG       -85.7820  -76.3160   47.0850 C.3   530  LEU530      0.0022
     88  CD1      -85.6910  -76.4800   45.5590 C.3   530  LEU530      0.0001
     89  CD2      -84.5500  -75.6100   47.5990 C.3   530  LEU530      0.0001
     90  N        -91.4630  -79.8090   46.9490 N.3   533  GLY533     -0.1210
     91  CA       -91.2120  -80.4060   45.6450 C.3   533  GLY533      0.1956
     92  C        -90.3080  -81.6250   45.6670 C.2   533  GLY533      0.2611
     93  O        -90.4690  -82.5220   44.8350 O.2   533  GLY533     -0.2717
     94  N        -89.3510  -81.6720   46.6160 N.am  534  ILE534     -0.1979
     95  CA       -88.4070  -82.7870   46.7490 C.3   534  ILE534      0.1595
     96  C        -89.1410  -83.9930   47.3810 C.2   534  ILE534      0.2287
     97  O        -88.9970  -85.1150   46.8870 O.2   534  ILE534     -0.2864
     98  CB       -87.1570  -82.3590   47.5680 C.3   534  ILE534      0.0276
     99  CG1      -86.4980  -81.1030   46.9340 C.3   534  ILE534      0.0022
    100  CG2      -86.1490  -83.5300   47.6910 C.3   534  ILE534      0.0022
    101  CD1      -85.3650  -80.4370   47.7120 C.3   534  ILE534      0.0001
    102  N        -91.4350  -85.7930   44.7950 N.3   537  PHE537     -0.1241
    103  CA       -90.7070  -86.7300   43.9430 C.3   537  PHE537      0.1605
    104  C        -90.1620  -87.9160   44.7630 C.2   537  PHE537      0.2264
    105  O        -90.1190  -89.0290   44.2370 O.2   537  PHE537     -0.2867
    106  CB       -89.5680  -86.0350   43.1950 C.3   537  PHE537      0.0534
    107  CG       -90.0490  -85.2590   41.9890 C.ar  537  PHE537     -0.0203
    108  CD1      -90.2120  -85.8870   40.7580 C.ar  537  PHE537     -0.0042
    109  CD2      -90.3290  -83.9030   42.0800 C.ar  537  PHE537     -0.0042
    110  CE1      -90.6720  -85.1800   39.6480 C.ar  537  PHE537     -0.0003
    111  CE2      -90.7770  -83.1930   40.9660 C.ar  537  PHE537     -0.0003
    112  CZ       -90.9450  -83.8390   39.7570 C.ar  537  PHE537     -0.0000
@<TRIPOS>BOND
     1    49    50    1
     2    37    36    2
     3    52    51    2
     4    40    38    1
     5    36    35    1
     6    51    50    1
     7    43    44    2
     8    43    42    1
     9    50    53    1
    10    38    35    1
    11    38    39    1
    12    35    34    1
    13    41    42    1
    14    42    45    1
    15    53    54    1
    16    54    55    1
    17    45    46    1
    18    46    48    1
    19    46    47    1
    20    55    56    1
    21    56    57    1
    22   110   112   ar
    23   110   108   ar
    24   112   111   ar
    25    24    25   ar
    26    24    22   ar
    27    25    23   ar
    28    22    20   ar
    29   108   107   ar
    30   111   109   ar
    31    14    13   ar
    32    14    12   ar
    33    13    11   ar
    34    18    17    2
    35    23    21   ar
    36    17    16    1
    37    20    21   ar
    38    20    19    1
    39   107   109   ar
    40   107   106    1
    41    12    10   ar
    42    11     8   ar
    43    19    16    1
    44    26    27    1
    45    16    15    1
    46    10     8   ar
    47    10     9   ar
    48   106   103    1
    49    28    27    1
    50    28    29    2
    51     8     6   ar
    52    30    27    1
    53    30    31    1
    54     4     3    2
    55     3     2    1
    56   103   104    1
    57   103   102    1
    58    32    31    1
    59     9     7   ar
    60   105   104    2
    61    31    33    1
    62     6     7   ar
    63     6     5    1
    64    93    92    2
    65     2     5    1
    66     2     1    1
    67    88    87    1
    68    91    92    1
    69    91    90    1
    70    92    94   am
    71    64    62    1
    72    79    80    1
    73    79    78    1
    74    94    95    1
    75    80    81    1
    76    95    96    1
    77    95    98    1
    78    62    63    1
    79    62    59    1
    80    97    96    2
    81    99    98    1
    82    99   101    1
    83    87    86    1
    84    87    89    1
    85    77    76    2
    86    85    84    2
    87    83    86    1
    88    83    82    1
    89    83    84    1
    90    63    65    1
    91    78    75    1
    92    98   100    1
    93    76    82   am
    94    76    75    1
    95    59    60    1
    96    59    58    1
    97    75    74    1
    98    70    67    1
    99    70    71    1
   100    66    60   am
   101    66    67    1
   102    69    68    2
   103    73    71   am
   104    60    61    2
   105    67    68    1
   106    71    72    2
