@<TRIPOS>MOLECULE
tmp/5v58A00.pdb
 212 207 0 0 0
SMALL
GASTEIGER

@<TRIPOS>ATOM
      1  N          3.5070  -19.8940   -9.6360 N.3   103  THR103     -0.1218
      2  CA         3.2970  -21.3220   -9.4250 C.3   103  THR103      0.1862
      3  C          2.2420  -21.7310  -10.4550 C.2   103  THR103      0.2287
      4  O          1.4850  -20.8800  -10.9260 O.2   103  THR103     -0.2866
      5  CB         2.8290  -21.6350   -7.9860 C.3   103  THR103      0.1770
      6  OG1        2.6800  -23.0500   -7.8200 O.3   103  THR103     -0.2211
      7  CG2        1.5100  -20.9250   -7.6560 C.3   103  THR103      0.0375
      8  N         -0.4360  -24.0900  -10.5130 N.3   105  GLU105     -0.1245
      9  CA        -1.7050  -24.7600  -10.1900 C.3   105  GLU105      0.1567
     10  C         -2.8150  -24.3320  -11.1440 C.2   105  GLU105      0.2260
     11  O         -3.4800  -25.1720  -11.7470 O.2   105  GLU105     -0.2867
     12  CB        -2.1580  -24.4760   -8.7500 C.3   105  GLU105      0.0388
     13  CG        -1.4740  -25.3170   -7.6790 C.3   105  GLU105      0.1160
     14  CD        -0.0920  -24.8150   -7.3190 C.2   105  GLU105      0.3649
     15  OE1        0.3900  -23.8650   -7.9690 O.co2 105  GLU105     -0.2457
     16  OE2        0.5180  -25.3770   -6.3880 O.co2 105  GLU105     -0.2457
     17  N          8.2050  -14.3260   -8.4230 N.3   134  ARG134     -0.1245
     18  CA         7.4720  -13.8620   -7.2530 C.3   134  ARG134      0.1563
     19  C          8.0460  -12.5140   -6.8520 C.2   134  ARG134      0.2260
     20  O          9.1060  -12.4420   -6.2300 O.2   134  ARG134     -0.2867
     21  CB         7.5830  -14.8730   -6.1130 C.3   134  ARG134      0.0307
     22  CG         6.9820  -16.2220   -6.4610 C.3   134  ARG134      0.0489
     23  CD         6.9190  -17.1520   -5.2630 C.3   134  ARG134      0.2205
     24  NE         6.3920  -18.4620   -5.6380 N.pl3 134  ARG134     -0.0865
     25  CZ         6.1860  -19.4710   -4.7950 C.cat 134  ARG134      0.5346
     26  NH1        6.4580  -19.3430   -3.5010 N.pl3 134  ARG134      0.1354
     27  NH2        5.7010  -20.6180   -5.2510 N.pl3 134  ARG134      0.1354
     28  N          8.4820  -10.2640   -4.7000 N.3   136  GLU136     -0.1245
     29  CA         8.4640   -9.9760   -3.2700 C.3   136  GLU136      0.1567
     30  C          9.3100   -8.7310   -3.0120 C.2   136  GLU136      0.2260
     31  O         10.5220   -8.7470   -3.2350 O.2   136  GLU136     -0.2867
     32  CB         9.0220  -11.1680   -2.4840 C.3   136  GLU136      0.0388
     33  CG         8.2440  -12.4660   -2.6870 C.3   136  GLU136      0.1160
     34  CD         8.9980  -13.7060   -2.2280 C.2   136  GLU136      0.3649
     35  OE1       10.1820  -13.5970   -1.8450 O.co2 136  GLU136     -0.2457
     36  OE2        8.4020  -14.8050   -2.2580 O.co2 136  GLU136     -0.2457
     37  N         20.0990  -16.6530   -4.3290 N.3   143  PHE143     -0.1227
     38  CA        19.6500  -18.0160   -4.0020 C.3   143  PHE143      0.1736
     39  C         18.4650  -18.0940   -3.0260 C.2   143  PHE143      0.2595
     40  O         17.4380  -18.6860   -3.3540 O.2   143  PHE143     -0.2718
     41  CB        20.8080  -18.8830   -3.4850 C.3   143  PHE143      0.0547
     42  CG        21.9260  -19.0720   -4.4770 C.ar  143  PHE143     -0.0202
     43  CD1       21.7020  -19.7250   -5.6830 C.ar  143  PHE143     -0.0042
     44  CD2       23.2110  -18.6240   -4.1940 C.ar  143  PHE143     -0.0042
     45  CE1       22.7300  -19.9090   -6.5940 C.ar  143  PHE143     -0.0003
     46  CE2       24.2440  -18.8080   -5.1000 C.ar  143  PHE143     -0.0003
     47  CZ        24.0020  -19.4520   -6.3020 C.ar  143  PHE143     -0.0000
     48  N         18.6060  -17.4980   -1.8410 N.am  144  LEU144     -0.1966
     49  CA        17.6420  -17.6880   -0.7430 C.3   144  LEU144      0.1728
     50  C         16.2720  -17.0610   -1.0130 C.2   144  LEU144      0.2616
     51  O         15.2470  -17.7400   -0.9250 O.2   144  LEU144     -0.2715
     52  CB        18.2030  -17.1280    0.5690 C.3   144  LEU144      0.0311
     53  CG        19.5870  -17.6180    1.0060 C.3   144  LEU144      0.0022
     54  CD1       20.0330  -16.8710    2.2510 C.3   144  LEU144      0.0001
     55  CD2       19.5980  -19.1200    1.2420 C.3   144  LEU144      0.0001
     56  N         16.2660  -15.7650   -1.3190 N.am  145  ARG145     -0.1963
     57  CA        15.0450  -15.0280   -1.6520 C.3   145  ARG145      0.1729
     58  C         15.2610  -14.2500   -2.9430 C.2   145  ARG145      0.2616
     59  O         15.6140  -13.0700   -2.9140 O.2   145  ARG145     -0.2715
     60  CB        14.6680  -14.0550   -0.5290 C.3   145  ARG145      0.0348
     61  CG        13.9260  -14.6780    0.6450 C.3   145  ARG145      0.0492
     62  CD        13.2210  -13.6130    1.4810 C.3   145  ARG145      0.2205
     63  NE        14.1410  -12.5720    1.9480 N.pl3 145  ARG145     -0.0865
     64  CZ        14.9050  -12.6520    3.0400 C.cat 145  ARG145      0.5346
     65  NH1       14.8850  -13.7310    3.8170 N.pl3 145  ARG145      0.1354
     66  NH2       15.7030  -11.6380    3.3580 N.pl3 145  ARG145      0.1354
     67  N         15.0540  -14.9170   -4.0740 N.am  146  THR146     -0.1951
     68  CA        15.2330  -14.2890   -5.3790 C.3   146  THR146      0.1897
     69  C         13.8880  -14.0100   -6.0400 C.2   146  THR146      0.2313
     70  O         12.8900  -14.6780   -5.7600 O.2   146  THR146     -0.2863
     71  CB        16.1010  -15.1520   -6.3100 C.3   146  THR146      0.1794
     72  OG1       15.5320  -16.4580   -6.4220 O.3   146  THR146     -0.2208
     73  CG2       17.5090  -15.2690   -5.7670 C.3   146  THR146      0.0378
     74  N         13.4210  -17.4130   -9.9370 N.3   149  PHE149     -0.1241
     75  CA        14.2030  -18.5800   -9.5420 C.3   149  PHE149      0.1605
     76  C         13.8370  -19.8250  -10.3350 C.2   149  PHE149      0.2264
     77  O         12.6830  -20.0240  -10.7110 O.2   149  PHE149     -0.2867
     78  CB        14.0820  -18.8540   -8.0350 C.3   149  PHE149      0.0534
     79  CG        12.6700  -18.9520   -7.5350 C.ar  149  PHE149     -0.0203
     80  CD1       12.0510  -20.1880   -7.3960 C.ar  149  PHE149     -0.0042
     81  CD2       11.9680  -17.8120   -7.1760 C.ar  149  PHE149     -0.0042
     82  CE1       10.7520  -20.2830   -6.9230 C.ar  149  PHE149     -0.0003
     83  CE2       10.6670  -17.8980   -6.7040 C.ar  149  PHE149     -0.0003
     84  CZ        10.0590  -19.1350   -6.5760 C.ar  149  PHE149     -0.0000
     85  N         13.3010  -23.8440  -10.5160 N.3   151  TRP151     -0.1241
     86  CA        12.8340  -24.8750   -9.6000 C.3   151  TRP151      0.1605
     87  C         12.3050  -26.0790  -10.3600 C.2   151  TRP151      0.2264
     88  O         12.3810  -26.1320  -11.5890 O.2   151  TRP151     -0.2867
     89  CB        11.7610  -24.3060   -8.6530 C.3   151  TRP151      0.0550
     90  CG        10.3650  -24.1370   -9.2160 C.ar  151  TRP151      0.0003
     91  CD1        9.9820  -24.1520  -10.5320 C.ar  151  TRP151      0.0946
     92  CD2        9.1740  -23.8860   -8.4600 C.ar  151  TRP151      0.0152
     93  NE1        8.6260  -23.9490  -10.6350 N.ar  151  TRP151     -0.2442
     94  CE2        8.1080  -23.7780   -9.3780 C.ar  151  TRP151      0.0810
     95  CE3        8.9030  -23.7480   -7.0940 C.ar  151  TRP151      0.0012
     96  CZ2        6.7940  -23.5370   -8.9720 C.ar  151  TRP151      0.0191
     97  CZ3        7.5980  -23.5100   -6.6930 C.ar  151  TRP151      0.0001
     98  CH2        6.5610  -23.4080   -7.6290 C.ar  151  TRP151      0.0015
     99  N          8.4800  -28.1650  -10.1010 N.3   153  GLU153     -0.1245
    100  CA         7.1830  -28.2690   -9.4540 C.3   153  GLU153      0.1567
    101  C          6.4770  -29.5250   -9.9360 C.2   153  GLU153      0.2260
    102  O          6.2100  -29.6800  -11.1260 O.2   153  GLU153     -0.2867
    103  CB         6.3250  -27.0260   -9.7020 C.3   153  GLU153      0.0388
    104  CG         6.1760  -26.5990  -11.1600 C.3   153  GLU153      0.1160
    105  CD         5.2700  -25.3940  -11.3160 C.2   153  GLU153      0.3649
    106  OE1        4.1910  -25.3790  -10.6910 O.co2 153  GLU153     -0.2457
    107  OE2        5.6340  -24.4560  -12.0540 O.co2 153  GLU153     -0.2457
    108  N          3.1040  -32.0180   -9.7010 N.3   155  HIS155     -0.1241
    109  CA         1.6670  -31.9010   -9.4770 C.3   155  HIS155      0.1621
    110  C          1.0110  -33.2500   -9.7460 C.2   155  HIS155      0.2264
    111  O          1.0300  -33.7360  -10.8800 O.2   155  HIS155     -0.2867
    112  CB         1.0700  -30.8400  -10.4010 C.3   155  HIS155      0.0745
    113  CG         1.5660  -29.4530  -10.1320 C.ar  155  HIS155      0.0817
    114  ND1        0.8200  -28.5160   -9.4510 N.ar  155  HIS155     -0.2268
    115  CD2        2.7330  -28.8440  -10.4510 C.ar  155  HIS155      0.1154
    116  CE1        1.5040  -27.3890   -9.3650 C.ar  155  HIS155      0.1986
    117  NE2        2.6680  -27.5620   -9.9620 N.ar  155  HIS155     -0.2212
    118  N          0.3160  -23.7090    2.6830 N.3   198  PHE198     -0.1241
    119  CA         0.0880  -23.2630    1.3080 C.3   198  PHE198      0.1605
    120  C         -1.3700  -22.8640    1.1060 C.2   198  PHE198      0.2264
    121  O         -2.2760  -23.6170    1.4600 O.2   198  PHE198     -0.2867
    122  CB         0.4610  -24.3840    0.3360 C.3   198  PHE198      0.0534
    123  CG         0.4870  -23.9650   -1.1080 C.ar  198  PHE198     -0.0203
    124  CD1        1.4470  -23.0730   -1.5690 C.ar  198  PHE198     -0.0042
    125  CD2       -0.4300  -24.4830   -2.0150 C.ar  198  PHE198     -0.0042
    126  CE1        1.4790  -22.6910   -2.9000 C.ar  198  PHE198     -0.0003
    127  CE2       -0.4010  -24.1080   -3.3480 C.ar  198  PHE198     -0.0003
    128  CZ         0.5550  -23.2110   -3.7910 C.ar  198  PHE198     -0.0000
    129  N         13.1070  -22.3560    5.1260 N.3   219  GLN219     -0.1231
    130  CA        12.2690  -23.3650    4.4910 C.3   219  GLN219      0.1698
    131  C         13.0220  -23.9540    3.3030 C.2   219  GLN219      0.2593
    132  O         13.3440  -23.2440    2.3540 O.2   219  GLN219     -0.2718
    133  CB        10.9610  -22.7220    4.0340 C.3   219  GLN219      0.0381
    134  CG         9.9050  -23.6840    3.5180 C.3   219  GLN219      0.0905
    135  CD         8.5890  -22.9810    3.2240 C.2   219  GLN219      0.2608
    136  OE1        8.1170  -22.1680    4.0210 O.2   219  GLN219     -0.2717
    137  NE2        7.9910  -23.2870    2.0790 N.am  219  GLN219     -0.0878
    138  N         13.3060  -25.2520    3.3690 N.am  220  GLY220     -0.1942
    139  CA        14.1840  -25.9080    2.4020 C.3   220  GLY220      0.2014
    140  C         13.4890  -26.5360    1.2090 C.2   220  GLY220      0.2639
    141  O         14.1430  -26.8760    0.2230 O.2   220  GLY220     -0.2714
    142  N         12.1710  -26.6960    1.2930 N.am  221  GLY221     -0.1939
    143  CA        11.4050  -27.3570    0.2390 C.3   221  GLY221      0.2014
    144  C         10.1550  -27.9960    0.8090 C.2   221  GLY221      0.2639
    145  O         10.2090  -28.6490    1.8530 O.2   221  GLY221     -0.2714
    146  N          9.0300  -27.8180    0.1230 N.am  222  THR222     -0.1950
    147  CA         7.7390  -28.2420    0.6520 C.3   222  THR222      0.1897
    148  C          7.0010  -29.2250   -0.2480 C.2   222  THR222      0.2313
    149  O          7.1070  -29.1750   -1.4740 O.2   222  THR222     -0.2863
    150  CB         6.8230  -27.0300    0.9090 C.3   222  THR222      0.1794
    151  OG1        6.9200  -26.1110   -0.1870 O.3   222  THR222     -0.2208
    152  CG2        7.2270  -26.3300    2.1860 C.3   222  THR222      0.0378
    153  N          2.9930  -30.4940   -0.5340 N.3   224  HIS224     -0.1241
    154  CA         1.6610  -30.0870   -0.0950 C.3   224  HIS224      0.1621
    155  C          0.6140  -31.1280   -0.4360 C.2   224  HIS224      0.2264
    156  O          0.6570  -31.7320   -1.5080 O.2   224  HIS224     -0.2867
    157  CB         1.2670  -28.7750   -0.7700 C.3   224  HIS224      0.0745
    158  CG         2.3280  -27.7270   -0.7100 C.ar  224  HIS224      0.0817
    159  ND1        2.5450  -26.9540    0.4090 N.ar  224  HIS224     -0.2268
    160  CD2        3.2390  -27.3270   -1.6260 C.ar  224  HIS224      0.1154
    161  CE1        3.5420  -26.1200    0.1790 C.ar  224  HIS224      0.1986
    162  NE2        3.9790  -26.3250   -1.0490 N.ar  224  HIS224     -0.2212
    163  N          0.8650  -31.0620   -4.6260 N.3   254  SER254     -0.1202
    164  CA         1.8520  -30.2780   -5.3590 C.3   254  SER254      0.2020
    165  C          3.0860  -30.1350   -4.4820 C.2   254  SER254      0.2619
    166  O          2.9750  -30.0760   -3.2590 O.2   254  SER254     -0.2717
    167  CB         1.3000  -28.9070   -5.7610 C.3   254  SER254      0.2103
    168  OG         0.9840  -28.1200   -4.6280 O.3   254  SER254     -0.2182
    169  N          4.2580  -30.1060   -5.1090 N.am  255  TRP255     -0.1961
    170  CA         5.5280  -30.0790   -4.3810 C.3   255  TRP255      0.1771
    171  C          6.6030  -29.3570   -5.1890 C.2   255  TRP255      0.2620
    172  O          6.6370  -29.4680   -6.4130 O.2   255  TRP255     -0.2715
    173  CB         5.9760  -31.5050   -4.0240 C.3   255  TRP255      0.0590
    174  CG         5.4960  -32.5870   -4.9630 C.ar  255  TRP255      0.0006
    175  CD1        4.2840  -33.2170   -4.9350 C.ar  255  TRP255      0.0946
    176  CD2        6.2290  -33.1840   -6.0410 C.ar  255  TRP255      0.0152
    177  NE1        4.2120  -34.1550   -5.9340 N.ar  255  TRP255     -0.2442
    178  CE2        5.3930  -34.1570   -6.6270 C.ar  255  TRP255      0.0810
    179  CE3        7.5090  -32.9860   -6.5720 C.ar  255  TRP255      0.0012
    180  CZ2        5.7940  -34.9320   -7.7210 C.ar  255  TRP255      0.0191
    181  CZ3        7.9070  -33.7570   -7.6570 C.ar  255  TRP255      0.0001
    182  CH2        7.0520  -34.7170   -8.2190 C.ar  255  TRP255      0.0015
    183  N          7.4760  -28.6210   -4.5020 N.am  256  GLY256     -0.1940
    184  CA         8.4790  -27.7970   -5.1770 C.3   256  GLY256      0.2014
    185  C          9.7770  -27.5810   -4.4160 C.2   256  GLY256      0.2639
    186  O          9.7760  -27.3880   -3.1990 O.2   256  GLY256     -0.2714
    187  N         10.8840  -27.6120   -5.1570 N.am  257  LEU257     -0.1963
    188  CA        12.2160  -27.3430   -4.6230 C.3   257  LEU257      0.1728
    189  C         12.9610  -26.4360   -5.6030 C.2   257  LEU257      0.2616
    190  O         12.8590  -26.6180   -6.8170 O.2   257  LEU257     -0.2715
    191  CB        12.9660  -28.6590   -4.3950 C.3   257  LEU257      0.0311
    192  CG        14.4720  -28.5900   -4.1100 C.3   257  LEU257      0.0022
    193  CD1       14.8610  -29.5140   -2.9660 C.3   257  LEU257      0.0001
    194  CD2       15.2760  -28.9160   -5.3620 C.3   257  LEU257      0.0001
    195  N         13.7140  -25.4740   -5.0700 N.am  258  THR258     -0.1951
    196  CA        14.2680  -24.3770   -5.8690 C.3   258  THR258      0.1897
    197  C         15.7850  -24.2580   -5.7510 C.2   258  THR258      0.2313
    198  O         16.4350  -25.0530   -5.0720 O.2   258  THR258     -0.2863
    199  CB        13.6700  -23.0260   -5.4240 C.3   258  THR258      0.1794
    200  OG1       14.2760  -22.6130   -4.1900 O.3   258  THR258     -0.2208
    201  CG2       12.1730  -23.1350   -5.2390 C.3   258  THR258      0.0378
    202  N         17.1850  -22.1090   -4.0660 N.3   260  ARG260     -0.1245
    203  CA        17.4680  -21.8020   -2.6580 C.3   260  ARG260      0.1563
    204  C         18.4500  -22.8070   -2.0520 C.2   260  ARG260      0.2260
    205  O         19.2790  -22.4380   -1.2200 O.2   260  ARG260     -0.2867
    206  CB        16.1690  -21.7820   -1.8400 C.3   260  ARG260      0.0307
    207  CG        16.3600  -21.6530   -0.3330 C.3   260  ARG260      0.0489
    208  CD        15.0290  -21.5240    0.3910 C.3   260  ARG260      0.2205
    209  NE        14.4400  -20.1940    0.2460 N.pl3 260  ARG260     -0.0865
    210  CZ        13.2630  -19.8200    0.7510 C.cat 260  ARG260      0.5346
    211  NH1       12.5170  -20.6770    1.4400 N.pl3 260  ARG260      0.1354
    212  NH2       12.8250  -18.5790    0.5580 N.pl3 260  ARG260      0.1354
@<TRIPOS>BOND
     1   107   105   ar
     2    11    10    2
     3    88    87    2
     4   105   104    1
     5   105   106   ar
     6   104   103    1
     7    10     9    1
     8   102   101    2
     9     4     3    2
    10   111   110    2
    11    77    76    2
    12    93    91   ar
    13    93    94   ar
    14    91    90   ar
    15    85    86    1
    16     8     9    1
    17     3     2    1
    18   115   113   ar
    19   115   117   ar
    20   112   113    1
    21   112   109    1
    22    87    86    1
    23    76    75    1
    24     9    12    1
    25   113   114   ar
    26    99   100    1
    27   117   116   ar
    28    74    75    1
    29   101   100    1
    30   110   109    1
    31   103   100    1
    32   108   109    1
    33     1     2    1
    34    86    89    1
    35    75    78    1
    36   114   116   ar
    37     2     5    1
    38    94    96   ar
    39    94    92   ar
    40    90    89    1
    41    90    92   ar
    42    96    98   ar
    43    12    13    1
    44    92    95   ar
    45    17    18    1
    46   182   180   ar
    47   182   181   ar
    48    78    79    1
    49     5     6    1
    50     5     7    1
    51    15    14   ar
    52   180   178   ar
    53    13    14    1
    54   181   179   ar
    55    98    97   ar
    56    79    80   ar
    57    79    81   ar
    58    80    82   ar
    59    14    16   ar
    60    18    19    1
    61    18    21    1
    62    81    83   ar
    63    95    97   ar
    64    82    84   ar
    65    19    20    2
    66   190   189    2
    67    83    84   ar
    68   178   176   ar
    69   178   177   ar
    70    45    47   ar
    71    45    43   ar
    72   179   176   ar
    73    22    21    1
    74    22    23    1
    75    72    71    1
    76   172   171    2
    77    71    73    1
    78    71    68    1
    79    47    46   ar
    80   176   174   ar
    81    69    70    2
    82    69    68    1
    83   177   175   ar
    84   196   197    1
    85   196   199    1
    86   196   195    1
    87   167   164    1
    88   167   168    1
    89   197   198    2
    90    43    42   ar
    91    24    23    1
    92    24    25    2
    93   189   195   am
    94   189   188    1
    95   199   201    1
    96   199   200    1
    97    68    67    1
    98   194   192    1
    99   164   163    1
   100   164   165    1
   101    27    25    1
   102   171   183   am
   103   171   170    1
   104   184   183    1
   105   184   185    1
   106   187   188    1
   107   187   185   am
   108   169   165   am
   109   169   170    1
   110    46    44   ar
   111   174   175   ar
   112   174   173    1
   113    25    26    1
   114    28    29    1
   115   188   191    1
   116   165   166    2
   117    42    44   ar
   118    42    41    1
   119   185   186    2
   120   191   192    1
   121   170   173    1
   122    37    38    1
   123   192   193    1
   124    67    58   am
   125   202   203    1
   126    38    41    1
   127    38    39    1
   128   128   127   ar
   129   128   126   ar
   130    40    39    2
   131   127   125   ar
   132    29    30    1
   133    29    32    1
   134    31    30    2
   135    39    48   am
   136    58    59    2
   137    58    57    1
   138   126   124   ar
   139    33    32    1
   140    33    34    1
   141   203   204    1
   142   203   206    1
   143    36    34   ar
   144    34    35   ar
   145   204   205    2
   146   125   123   ar
   147    48    49    1
   148   206   207    1
   149    57    56    1
   150    57    60    1
   151   160   162   ar
   152   160   158   ar
   153   124   123   ar
   154   156   155    2
   155   149   148    2
   156    56    50   am
   157   123   122    1
   158   162   161   ar
   159    50    51    2
   160    50    49    1
   161   157   158    1
   162   157   154    1
   163    49    52    1
   164   158   159   ar
   165   153   154    1
   166    60    61    1
   167   155   154    1
   168   207   208    1
   169   148   147    1
   170   151   150    1
   171   146   147    1
   172   146   144   am
   173   161   159   ar
   174   141   140    2
   175   143   144    1
   176   143   142    1
   177   209   208    1
   178   209   210    2
   179   122   119    1
   180   212   210    1
   181    52    53    1
   182    61    62    1
   183   147   150    1
   184   210   211    1
   185   144   145    2
   186   150   152    1
   187    53    55    1
   188    53    54    1
   189   120   119    1
   190   120   121    2
   191   140   142   am
   192   140   139    1
   193   119   118    1
   194    62    63    1
   195    63    64    2
   196   137   135   am
   197   132   131    2
   198   139   138    1
   199    64    66    1
   200    64    65    1
   201   135   134    1
   202   135   136    2
   203   131   138   am
   204   131   130    1
   205   134   133    1
   206   133   130    1
   207   130   129    1
