@<TRIPOS>MOLECULE
tmp/5v5eB00.pdb
 179 173 0 0 0
SMALL
GASTEIGER

@<TRIPOS>ATOM
      1  N         -5.8810  -23.0150  -15.1810 N.3    41  ILE41      -0.1231
      2  CA        -4.9820  -23.8540  -14.3980 C.3    41  ILE41       0.1692
      3  C         -3.8110  -22.9950  -13.9420 C.2    41  ILE41       0.2591
      4  O         -3.0590  -22.4710  -14.7730 O.2    41  ILE41      -0.2718
      5  CB        -4.4850  -25.0650  -15.2030 C.3    41  ILE41       0.0266
      6  CG1       -5.6600  -25.7960  -15.8590 C.3    41  ILE41       0.0019
      7  CG2       -3.6950  -26.0100  -14.3070 C.3    41  ILE41       0.0020
      8  CD1       -6.7090  -26.2950  -14.8830 C.3    41  ILE41       0.0001
      9  N         -3.6530  -22.8620  -12.6240 N.am   42  GLU42      -0.1979
     10  CA        -2.5560  -22.0870  -12.0330 C.3    42  GLU42       0.1602
     11  C         -2.4500  -20.6950  -12.6490 C.2    42  GLU42       0.2287
     12  O         -1.3570  -20.1750  -12.8810 O.2    42  GLU42      -0.2864
     13  CB        -1.2250  -22.8350  -12.1530 C.3    42  GLU42       0.0415
     14  CG        -1.0230  -23.9230  -11.1110 C.3    42  GLU42       0.1163
     15  CD        -1.0590  -23.3880   -9.6870 C.2    42  GLU42       0.3649
     16  OE1       -0.7710  -22.1880   -9.4900 O.co2  42  GLU42      -0.2457
     17  OE2       -1.3850  -24.1660   -8.7650 O.co2  42  GLU42      -0.2457
     18  N         -2.8700  -19.5800  -15.5130 N.3    44  LEU44      -0.1245
     19  CA        -2.2700  -19.4580  -16.8380 C.3    44  LEU44       0.1561
     20  C         -3.3460  -19.1210  -17.8650 C.2    44  LEU44       0.2260
     21  O         -4.4120  -19.7470  -17.8620 O.2    44  LEU44      -0.2867
     22  CB        -1.5600  -20.7440  -17.2350 C.3    44  LEU44       0.0270
     23  CG        -0.3410  -21.1150  -16.3860 C.3    44  LEU44       0.0019
     24  CD1        0.2510  -22.4180  -16.8730 C.3    44  LEU44       0.0001
     25  CD2        0.7200  -20.0210  -16.4060 C.3    44  LEU44       0.0001
     26  N         -5.0650  -21.8210  -20.5750 N.3    47  THR47      -0.1218
     27  CA        -5.4530  -23.0950  -19.9790 C.3    47  THR47       0.1862
     28  C         -6.9080  -23.0790  -19.5270 C.2    47  THR47       0.2287
     29  O         -7.2560  -23.7080  -18.5230 O.2    47  THR47      -0.2866
     30  CB        -4.5420  -23.4470  -18.8030 C.3    47  THR47       0.1770
     31  OG1       -4.6410  -22.4350  -17.7940 O.3    47  THR47      -0.2211
     32  CG2       -3.0940  -23.5670  -19.2570 C.3    47  THR47       0.0375
     33  N         -8.7550  -31.2190  -22.6050 N.3    73  PHE73      -0.1241
     34  CA        -8.2890  -31.4320  -21.2400 C.3    73  PHE73       0.1605
     35  C         -8.8870  -32.6980  -20.6430 C.2    73  PHE73       0.2264
     36  O         -8.1930  -33.4550  -19.9560 O.2    73  PHE73      -0.2867
     37  CB        -8.6340  -30.2220  -20.3760 C.3    73  PHE73       0.0534
     38  CG        -8.3180  -30.4110  -18.9220 C.ar   73  PHE73      -0.0203
     39  CD1       -7.0160  -30.3080  -18.4630 C.ar   73  PHE73      -0.0042
     40  CD2       -9.3230  -30.6930  -18.0140 C.ar   73  PHE73      -0.0042
     41  CE1       -6.7220  -30.4820  -17.1230 C.ar   73  PHE73      -0.0003
     42  CE2       -9.0360  -30.8670  -16.6730 C.ar   73  PHE73      -0.0003
     43  CZ        -7.7350  -30.7610  -16.2270 C.ar   73  PHE73      -0.0000
     44  N         -7.1840  -35.6970  -22.1000 N.3    76  LEU76      -0.1231
     45  CA        -5.8060  -35.7790  -21.6320 C.3    76  LEU76       0.1693
     46  C         -5.7440  -36.2370  -20.1810 C.2    76  LEU76       0.2591
     47  O         -4.8830  -37.0450  -19.8150 O.2    76  LEU76      -0.2718
     48  CB        -5.1220  -34.4240  -21.8050 C.3    76  LEU76       0.0284
     49  CG        -3.6730  -34.3050  -21.3290 C.3    76  LEU76       0.0019
     50  CD1       -2.7850  -35.3470  -21.9950 C.3    76  LEU76       0.0001
     51  CD2       -3.1580  -32.8960  -21.6070 C.3    76  LEU76       0.0001
     52  N         -6.6540  -35.7400  -19.3420 N.am   77  ALA77      -0.1980
     53  CA        -6.6600  -36.1280  -17.9360 C.3    77  ALA77       0.1597
     54  C         -7.0640  -37.5880  -17.7670 C.2    77  ALA77       0.2287
     55  O         -6.5090  -38.2960  -16.9180 O.2    77  ALA77      -0.2864
     56  CB        -7.5990  -35.2170  -17.1490 C.3    77  ALA77       0.0319
     57  N         -6.5860  -40.0210  -19.9820 N.3    79  ARG79      -0.1231
     58  CA        -5.4760  -40.8470  -20.4460 C.3    79  ARG79       0.1694
     59  C         -4.3780  -40.9330  -19.3950 C.2    79  ARG79       0.2591
     60  O         -3.8360  -42.0150  -19.1390 O.2    79  ARG79      -0.2718
     61  CB        -4.9310  -40.2880  -21.7600 C.3    79  ARG79       0.0321
     62  CG        -3.6360  -40.9290  -22.2290 C.3    79  ARG79       0.0489
     63  CD        -3.4600  -40.7660  -23.7290 C.3    79  ARG79       0.2205
     64  NE        -3.7800  -39.4110  -24.1740 N.pl3  79  ARG79      -0.0865
     65  CZ        -2.8970  -38.4250  -24.3120 C.cat  79  ARG79       0.5346
     66  NH1       -3.3030  -37.2300  -24.7220 N.pl3  79  ARG79       0.1354
     67  NH2       -1.6130  -38.6230  -24.0460 N.pl3  79  ARG79       0.1354
     68  N         -4.0370  -39.8000  -18.7720 N.am   80  LEU80      -0.1980
     69  CA        -3.0390  -39.8080  -17.7070 C.3    80  LEU80       0.1596
     70  C         -3.5060  -40.6380  -16.5190 C.2    80  LEU80       0.2287
     71  O         -2.7300  -41.4080  -15.9440 O.2    80  LEU80      -0.2864
     72  CB        -2.7370  -38.3770  -17.2640 C.3    80  LEU80       0.0297
     73  CG        -2.0010  -37.4840  -18.2630 C.3    80  LEU80       0.0022
     74  CD1       -1.9020  -36.0580  -17.7350 C.3    80  LEU80       0.0001
     75  CD2       -0.6180  -38.0400  -18.5510 C.3    80  LEU80       0.0001
     76  N         -0.5120  -43.1190  -16.7560 N.3    84  SER84      -0.1217
     77  CA         0.6680  -42.5050  -16.1550 C.3    84  SER84       0.1889
     78  C          0.8680  -43.0710  -14.7560 C.2    84  SER84       0.2288
     79  O          0.0410  -42.8500  -13.8660 O.2    84  SER84      -0.2866
     80  CB         0.5340  -40.9880  -16.1020 C.3    84  SER84       0.2089
     81  OG         1.6130  -40.4360  -15.3700 O.3    84  SER84      -0.2183
     82  N          3.2780  -42.0280  -12.8920 N.3    86  VAL86      -0.1231
     83  CA         3.6190  -40.8430  -12.1070 C.3    86  VAL86       0.1692
     84  C          2.3550  -40.2110  -11.5370 C.2    86  VAL86       0.2591
     85  O          2.2700  -39.9190  -10.3380 O.2    86  VAL86      -0.2718
     86  CB         4.4110  -39.8430  -12.9700 C.3    86  VAL86       0.0266
     87  CG1        4.7720  -38.5950  -12.1720 C.3    86  VAL86       0.0020
     88  CG2        5.6720  -40.4970  -13.5170 C.3    86  VAL86       0.0020
     89  N          1.3500  -39.9970  -12.3880 N.am   87  ALA87      -0.1980
     90  CA         0.1100  -39.3780  -11.9280 C.3    87  ALA87       0.1597
     91  C         -0.6150  -40.2660  -10.9250 C.2    87  ALA87       0.2287
     92  O         -1.2280  -39.7670   -9.9730 O.2    87  ALA87      -0.2864
     93  CB        -0.7940  -39.0740  -13.1220 C.3    87  ALA87       0.0319
     94  N         -7.6260  -38.5830   -9.3840 N.3    96  ILE96      -0.1231
     95  CA        -6.4400  -37.9600   -9.9660 C.3    96  ILE96       0.1692
     96  C         -6.5840  -36.4430   -9.9520 C.2    96  ILE96       0.2591
     97  O         -5.6530  -35.7190   -9.5830 O.2    96  ILE96      -0.2718
     98  CB        -6.2030  -38.5000  -11.3900 C.3    96  ILE96       0.0266
     99  CG1       -5.8040  -39.9830  -11.3470 C.3    96  ILE96       0.0019
    100  CG2       -5.1500  -37.6720  -12.1380 C.3    96  ILE96       0.0020
    101  CD1       -4.4190  -40.2550  -10.7930 C.3    96  ILE96       0.0001
    102  N         -7.7550  -35.9380  -10.3490 N.am   97  LEU97      -0.1980
    103  CA        -7.9830  -34.4960  -10.3460 C.3    97  LEU97       0.1596
    104  C         -7.9560  -33.9340   -8.9300 C.2    97  LEU97       0.2287
    105  O         -7.3680  -32.8730   -8.6870 O.2    97  LEU97      -0.2864
    106  CB        -9.3180  -34.1810  -11.0190 C.3    97  LEU97       0.0297
    107  CG        -9.4100  -34.4320  -12.5250 C.3    97  LEU97       0.0022
    108  CD1      -10.8380  -34.2480  -13.0020 C.3    97  LEU97       0.0001
    109  CD2       -8.4750  -33.5050  -13.2890 C.3    97  LEU97       0.0001
    110  N         -4.0490  -33.9560   -7.6960 N.3   100  TRP100     -0.1227
    111  CA        -3.0630  -33.0680   -8.2990 C.3   100  TRP100      0.1737
    112  C         -3.5260  -31.6190   -8.3700 C.2   100  TRP100      0.2595
    113  O         -2.6860  -30.7120   -8.3590 O.2   100  TRP100     -0.2718
    114  CB        -2.7030  -33.5660   -9.7010 C.3   100  TRP100      0.0564
    115  CG        -1.9060  -34.8340   -9.6860 C.ar  100  TRP100      0.0003
    116  CD1       -2.3850  -36.1050   -9.8120 C.ar  100  TRP100      0.0946
    117  CD2       -0.4850  -34.9550   -9.5280 C.ar  100  TRP100      0.0152
    118  NE1       -1.3510  -37.0110   -9.7440 N.ar  100  TRP100     -0.2442
    119  CE2       -0.1750  -36.3300   -9.5700 C.ar  100  TRP100      0.0810
    120  CE3        0.5550  -34.0350   -9.3550 C.ar  100  TRP100      0.0012
    121  CZ2        1.1310  -36.8050   -9.4500 C.ar  100  TRP100      0.0191
    122  CZ3        1.8500  -34.5090   -9.2350 C.ar  100  TRP100      0.0001
    123  CH2        2.1260  -35.8810   -9.2830 C.ar  100  TRP100      0.0015
    124  N         -4.8350  -31.3730   -8.4310 N.am  101  LEU101     -0.1980
    125  CA        -5.3950  -30.0230   -8.4790 C.3   101  LEU101      0.1596
    126  C         -6.3650  -29.8480   -7.3150 C.2   101  LEU101      0.2287
    127  O         -7.5830  -29.7540   -7.5160 O.2   101  LEU101     -0.2864
    128  CB        -6.0920  -29.7710   -9.8130 C.3   101  LEU101      0.0297
    129  CG        -5.1920  -29.7260  -11.0510 C.3   101  LEU101      0.0022
    130  CD1       -6.0350  -29.7340  -12.3030 C.3   101  LEU101      0.0001
    131  CD2       -4.3010  -28.4930  -11.0220 C.3   101  LEU101      0.0001
    132  N         -8.1980  -24.1150  -23.8680 N.3   175  PHE175     -0.1227
    133  CA        -7.1110  -24.9760  -23.4190 C.3   175  PHE175      0.1736
    134  C         -6.3920  -25.6030  -24.6070 C.2   175  PHE175      0.2595
    135  O         -7.0220  -26.1490  -25.5160 O.2   175  PHE175     -0.2718
    136  CB        -7.6410  -26.0750  -22.4980 C.3   175  PHE175      0.0547
    137  CG        -6.6040  -27.0950  -22.1230 C.ar  175  PHE175     -0.0202
    138  CD1       -5.7580  -26.8730  -21.0520 C.ar  175  PHE175     -0.0042
    139  CD2       -6.4700  -28.2710  -22.8440 C.ar  175  PHE175     -0.0042
    140  CE1       -4.7980  -27.8070  -20.7010 C.ar  175  PHE175     -0.0003
    141  CE2       -5.5110  -29.2090  -22.4980 C.ar  175  PHE175     -0.0003
    142  CZ        -4.6740  -28.9740  -21.4260 C.ar  175  PHE175     -0.0000
    143  N         -5.0660  -25.5100  -24.5950 N.am  176  VAL176     -0.1966
    144  CA        -4.2120  -26.2210  -25.5360 C.3   176  VAL176      0.1727
    145  C         -3.1790  -26.9930  -24.7300 C.2   176  VAL176      0.2617
    146  O         -2.6400  -26.4830  -23.7420 O.2   176  VAL176     -0.2715
    147  CB        -3.5290  -25.2650  -26.5390 C.3   176  VAL176      0.0290
    148  CG1       -2.7040  -24.2110  -25.8090 C.3   176  VAL176      0.0023
    149  CG2       -2.6670  -26.0490  -27.5250 C.3   176  VAL176      0.0023
    150  N         -2.9150  -28.2220  -25.1430 N.am  177  SER177     -0.1936
    151  CA        -1.9770  -29.0640  -24.4130 C.3   177  SER177      0.2040
    152  C         -0.5680  -28.4900  -24.5300 C.2   177  SER177      0.2485
    153  O         -0.1470  -28.1150  -25.6310 O.2   177  SER177     -0.2729
    154  CB        -2.0120  -30.4880  -24.9560 C.3   177  SER177      0.2129
    155  OG        -1.1030  -31.3120  -24.2550 O.3   177  SER177     -0.2179
    156  N          0.1920  -28.4050  -23.4340 N.am  178  PRO178     -0.2715
    157  CA         1.5390  -27.8190  -23.5360 C.3   178  PRO178      0.1536
    158  C          2.5710  -28.7290  -24.1880 C.2   178  PRO178      0.2598
    159  O          3.5360  -28.2150  -24.7680 O.2   178  PRO178     -0.2715
    160  CB         1.9000  -27.5140  -22.0750 C.3   178  PRO178      0.0310
    161  CG         1.0580  -28.4410  -21.2680 C.3   178  PRO178      0.0237
    162  CD        -0.2160  -28.6160  -22.0340 C.3   178  PRO178      0.0939
    163  N          2.4140  -30.0540  -24.1210 N.am  179  LEU179     -0.1964
    164  CA         3.4440  -30.9650  -24.6100 C.3   179  LEU179      0.1728
    165  C          3.1070  -31.6540  -25.9250 C.2   179  LEU179      0.2616
    166  O          3.9810  -32.3190  -26.4900 O.2   179  LEU179     -0.2715
    167  CB         3.7530  -32.0460  -23.5630 C.3   179  LEU179      0.0311
    168  CG         4.3150  -31.5960  -22.2160 C.3   179  LEU179      0.0022
    169  CD1        4.6450  -32.8210  -21.3910 C.3   179  LEU179      0.0001
    170  CD2        5.5440  -30.7160  -22.3840 C.3   179  LEU179      0.0001
    171  N          1.8840  -31.5300  -26.4240 N.am  180  GLU180     -0.1977
    172  CA         1.5050  -32.0920  -27.7180 C.3   180  GLU180      0.1602
    173  C          0.9450  -30.9670  -28.5820 C.2   180  GLU180      0.2287
    174  O         -0.2620  -30.8830  -28.8260 O.2   180  GLU180     -0.2864
    175  CB         0.5060  -33.2460  -27.5480 C.3   180  GLU180      0.0415
    176  CG         1.1390  -34.5070  -26.9730 C.3   180  GLU180      0.1163
    177  CD         0.2040  -35.7020  -26.9780 C.2   180  GLU180      0.3649
    178  OE1       -0.8250  -35.6530  -27.6840 O.co2 180  GLU180     -0.2457
    179  OE2        0.5010  -36.6930  -26.2790 O.co2 180  GLU180     -0.2457
@<TRIPOS>BOND
     1   174   173    2
     2   173   172    1
     3   172   175    1
     4   172   171    1
     5   178   177   ar
     6   175   176    1
     7   149   147    1
     8   177   176    1
     9   177   179   ar
    10   147   148    1
    11   147   144    1
    12   166   165    2
    13   171   165   am
    14   165   164    1
    15   153   152    2
    16   144   145    1
    17   144   143    1
    18   135   134    2
    19   150   145   am
    20   150   151    1
    21   154   151    1
    22   154   155    1
    23   159   158    2
    24   145   146    2
    25    66    65    1
    26   164   163    1
    27   164   167    1
    28   134   143   am
    29   134   133    1
    30   152   151    1
    31   152   156   am
    32    65    64    2
    33    65    67    1
    34   158   163   am
    35   158   157    1
    36    64    63    1
    37   132   133    1
    38    63    62    1
    39   167   168    1
    40   157   156    1
    41   157   160    1
    42   156   162    1
    43   133   136    1
    44   139   141   ar
    45   139   137   ar
    46    33    34    1
    47   136   137    1
    48   141   142   ar
    49   170   168    1
    50    62    61    1
    51   168   169    1
    52   137   138   ar
    53    44    45    1
    54   160   161    1
    55   162   161    1
    56    50    49    1
    57    48    45    1
    58    48    49    1
    59    61    58    1
    60    45    46    1
    61    51    49    1
    62   142   140   ar
    63    34    35    1
    64    34    37    1
    65   138   140   ar
    66    35    36    2
    67    26    27    1
    68    58    57    1
    69    58    59    1
    70    37    38    1
    71    46    47    2
    72    46    52   am
    73    27    28    1
    74    27    30    1
    75    28    29    2
    76    59    60    2
    77    59    68   am
    78    52    53    1
    79    32    30    1
    80    38    39   ar
    81    38    40   ar
    82    30    31    1
    83    68    69    1
    84    75    73    1
    85    39    41   ar
    86    73    74    1
    87    73    72    1
    88    40    42   ar
    89    53    54    1
    90    53    56    1
    91    20    21    2
    92    20    19    1
    93    54    55    2
    94    69    72    1
    95    69    70    1
    96    22    19    1
    97    22    23    1
    98    41    43   ar
    99    24    23    1
   100    19    18    1
   101    76    77    1
   102    42    43   ar
   103    70    71    2
   104    25    23    1
   105    77    80    1
   106    77    78    1
   107    80    81    1
   108     6     5    1
   109     6     8    1
   110     5     2    1
   111     5     7    1
   112     1     2    1
   113     4     3    2
   114    78    79    2
   115     2     3    1
   116     3     9   am
   117    88    86    1
   118   109   107    1
   119    93    90    1
   120   108   107    1
   121    86    87    1
   122    86    83    1
   123    82    83    1
   124    12    11    2
   125    11    10    1
   126     9    10    1
   127   107   106    1
   128    89    90    1
   129    89    84   am
   130   130   129    1
   131    13    10    1
   132    13    14    1
   133   100    98    1
   134    83    84    1
   135    90    91    1
   136    84    85    2
   137    98    99    1
   138    98    95    1
   139    99   101    1
   140    14    15    1
   141   129   131    1
   142   129   128    1
   143   106   103    1
   144    91    92    2
   145   102   103    1
   146   102    96   am
   147   103   104    1
   148    95    96    1
   149    95    94    1
   150    96    97    2
   151   128   125    1
   152   116   118   ar
   153   116   115   ar
   154   118   119   ar
   155   114   115    1
   156   114   111    1
   157    15    16   ar
   158    15    17   ar
   159   115   117   ar
   160   119   117   ar
   161   119   121   ar
   162   117   120   ar
   163   121   123   ar
   164   120   122   ar
   165   123   122   ar
   166   104   105    2
   167   125   124    1
   168   125   126    1
   169   124   112   am
   170   112   113    2
   171   112   111    1
   172   111   110    1
   173   127   126    2
