@<TRIPOS>MOLECULE
tmp/5v5hB00.pdb
 87 83 0 0 0
SMALL
GASTEIGER

@<TRIPOS>ATOM
      1  N        -15.1660   10.7950   37.6580 N.3    29  LYS29      -0.1245
      2  CA       -14.7430   10.1150   36.4250 C.3    29  LYS29       0.1561
      3  C        -14.3030    8.6710   36.6980 C.2    29  LYS29       0.2260
      4  O        -14.5750    7.7680   35.8920 O.2    29  LYS29      -0.2867
      5  CB       -13.6180   10.8990   35.7460 C.3    29  LYS29       0.0271
      6  CG       -14.0480   12.2440   35.1830 C.3    29  LYS29       0.0035
      7  CD       -12.8530   12.9980   34.5750 C.3    29  LYS29       0.0206
      8  CE       -13.3130   14.2810   33.8860 C.3    29  LYS29       0.1093
      9  NZ       -12.1660   15.1800   33.5240 N.3    29  LYS29      -0.1314
     10  N        -10.9960    7.8840   32.1890 N.3    40  PRO40      -0.2102
     11  CA       -11.2210    9.2690   32.6330 C.3    40  PRO40       0.1504
     12  C        -10.6400   10.3320   31.7180 C.2    40  PRO40       0.2575
     13  O        -11.2390   11.4090   31.6000 O.2    40  PRO40      -0.2718
     14  CB       -10.5600    9.2910   34.0190 C.3    40  PRO40       0.0282
     15  CG       -10.6890    7.9010   34.5050 C.3    40  PRO40       0.0208
     16  CD       -10.5320    7.0240   33.2870 C.3    40  PRO40       0.0893
     17  N         -9.4680   10.0990   31.1070 N.am   41  ASP41      -0.1974
     18  CA        -8.8700   11.1210   30.2600 C.3    41  ASP41       0.1708
     19  C         -9.6410   11.3340   28.9690 C.2    41  ASP41       0.2293
     20  O         -9.3690   12.3090   28.2610 O.2    41  ASP41      -0.2864
     21  CB        -7.4110   10.7590   29.9510 C.3    41  ASP41       0.1436
     22  CG        -6.5140   10.9010   31.1660 C.2    41  ASP41       0.3671
     23  OD1       -5.2920   10.6690   31.0430 O.co2  41  ASP41      -0.2456
     24  OD2       -7.0400   11.2640   32.2370 O.co2  41  ASP41      -0.2456
     25  N        -13.1160   11.4720   29.1580 N.3    43  GLN43      -0.1231
     26  CA       -14.4390   11.8820   29.5930 C.3    43  GLN43       0.1698
     27  C        -14.5700   13.3910   29.6160 C.2    43  GLN43       0.2592
     28  O        -13.6360   14.1060   29.9880 O.2    43  GLN43      -0.2718
     29  CB       -14.7650   11.3620   30.9960 C.3    43  GLN43       0.0381
     30  CG       -14.8710    9.8510   31.1210 C.3    43  GLN43       0.0905
     31  CD       -15.1870    9.4130   32.5250 C.2    43  GLN43       0.2608
     32  OE1      -15.8770   10.1240   33.2730 O.2    43  GLN43      -0.2717
     33  NE2      -14.6720    8.2550   32.9100 N.am   43  GLN43      -0.0878
     34  N        -15.7550   13.8620   29.2250 N.am   44  ARG44      -0.1980
     35  CA       -16.1270   15.2770   29.2490 C.3    44  ARG44       0.1597
     36  C        -17.4110   15.3380   30.0750 C.2    44  ARG44       0.2287
     37  O        -18.5070   15.0650   29.5790 O.2    44  ARG44      -0.2864
     38  CB       -16.3380   15.8460   27.8410 C.3    44  ARG44       0.0334
     39  CG       -15.1480   15.6630   26.9020 C.3    44  ARG44       0.0492
     40  CD       -15.4410   16.1930   25.4850 C.3    44  ARG44       0.2205
     41  NE       -15.8390   17.5910   25.5510 N.pl3  44  ARG44      -0.0865
     42  CZ       -16.6760   18.2060   24.7190 C.cat  44  ARG44       0.5346
     43  NH1      -17.1900   17.6090   23.6370 N.pl3  44  ARG44       0.1354
     44  NH2      -16.9650   19.4720   24.9620 N.pl3  44  ARG44       0.1354
     45  N        -18.2600   22.4780   31.1340 N.3    51  GLN51      -0.1231
     46  CA       -17.4630   21.2720   31.2440 C.3    51  GLN51       0.1698
     47  C        -16.6540   21.3580   32.5320 C.2    51  GLN51       0.2592
     48  O        -15.8890   22.3080   32.7350 O.2    51  GLN51      -0.2718
     49  CB       -16.5620   21.0970   30.0190 C.3    51  GLN51       0.0381
     50  CG       -15.8670   19.7740   29.9990 C.3    51  GLN51       0.0905
     51  CD       -15.0470   19.6040   28.7620 C.2    51  GLN51       0.2608
     52  OE1      -15.5840   19.4180   27.6700 O.2    51  GLN51      -0.2717
     53  NE2      -13.7570   19.6700   28.9200 N.am   51  GLN51      -0.0878
     54  N        -16.8610   20.3760   33.4070 N.am   52  LEU52      -0.1966
     55  CA       -16.2830   20.3740   34.7460 C.3    52  LEU52       0.1728
     56  C        -14.7930   20.0390   34.6940 C.2    52  LEU52       0.2616
     57  O        -14.3360   19.2310   33.8780 O.2    52  LEU52      -0.2715
     58  CB       -17.0200   19.3690   35.6170 C.3    52  LEU52       0.0311
     59  CG       -18.5420   19.5050   35.5920 C.3    52  LEU52       0.0022
     60  CD1      -19.1940   18.5400   36.5890 C.3    52  LEU52       0.0001
     61  CD2      -18.9530   20.9320   35.9290 C.3    52  LEU52       0.0001
     62  N        -14.0420   20.6350   35.6020 N.am   53  GLU53      -0.1963
     63  CA       -12.5930   20.5340   35.5970 C.3    53  GLU53       0.1733
     64  C        -12.0900   19.6390   36.7200 C.2    53  GLU53       0.2616
     65  O        -12.5580   19.7190   37.8630 O.2    53  GLU53      -0.2715
     66  CB       -11.9610   21.9180   35.7240 C.3    53  GLU53       0.0429
     67  CG       -12.2870   22.8290   34.5650 C.3    53  GLU53       0.1163
     68  CD       -11.4220   24.0660   34.5530 C.2    53  GLU53       0.3649
     69  OE1      -10.2740   23.9770   34.0580 O.co2  53  GLU53      -0.2457
     70  OE2      -11.8790   25.1160   35.0530 O.co2  53  GLU53      -0.2457
     71  N        -11.1140   18.7960   36.3850 N.am   54  ASP54      -0.1971
     72  CA       -10.3460   18.0860   37.3940 C.3    54  ASP54       0.1709
     73  C         -9.8000   19.0660   38.4330 C.2    54  ASP54       0.2293
     74  O         -9.4000   20.1890   38.1120 O.2    54  ASP54      -0.2864
     75  CB        -9.1770   17.3280   36.7490 C.3    54  ASP54       0.1436
     76  CG        -9.6220   16.1370   35.9000 C.2    54  ASP54       0.3671
     77  OD1      -10.8170   15.7690   35.9150 O.co2  54  ASP54      -0.2456
     78  OD2       -8.7600   15.5490   35.2080 O.co2  54  ASP54      -0.2456
     79  N         -4.0610    9.3030   22.5320 N.3    79  LYS79      -0.1245
     80  CA        -4.0760    9.2890   23.9890 C.3    79  LYS79       0.1561
     81  C         -2.8480    8.5280   24.4910 C.2    79  LYS79       0.2260
     82  O         -2.2390    7.7580   23.7570 O.2    79  LYS79      -0.2867
     83  CB        -5.3550    8.7580   24.5720 C.3    79  LYS79       0.0271
     84  CG        -5.7290    7.3620   24.1290 C.3    79  LYS79       0.0035
     85  CD        -7.0020    6.8370   24.7620 C.3    79  LYS79       0.0206
     86  CE        -7.0010    5.3440   24.5140 C.3    79  LYS79       0.1093
     87  NZ        -8.2900    4.7210   24.6720 N.3    79  LYS79      -0.1314
@<TRIPOS>BOND
     1    79    80    1
     2    43    42    1
     3    82    81    2
     4    80    81    1
     5    80    83    1
     6    84    83    1
     7    84    85    1
     8    86    87    1
     9    86    85    1
    10    42    44    1
    11    42    41    2
    12    40    41    1
    13    40    39    1
    14    39    38    1
    15    52    51    2
    16    38    35    1
    17    20    19    2
    18    51    53   am
    19    51    50    1
    20    19    18    1
    21    25    26    1
    22    34    35    1
    23    34    27   am
    24    35    36    1
    25    37    36    2
    26    26    27    1
    27    26    29    1
    28    27    28    2
    29    21    18    1
    30    21    22    1
    31    50    49    1
    32    49    46    1
    33    18    17    1
    34    29    30    1
    35    23    22   ar
    36    17    12   am
    37    30    31    1
    38    45    46    1
    39    22    24   ar
    40    46    47    1
    41    13    12    2
    42    12    11    1
    43    10    11    1
    44    10    16    1
    45    31    33   am
    46    31    32    2
    47    47    48    2
    48    47    54   am
    49    11    14    1
    50    16    15    1
    51    54    55    1
    52     9     8    1
    53    57    56    2
    54     8     7    1
    55    14    15    1
    56    69    68   ar
    57    68    67    1
    58    68    70   ar
    59    67    66    1
    60     7     6    1
    61    56    55    1
    62    56    62   am
    63    55    58    1
    64     6     5    1
    65    78    76   ar
    66    59    58    1
    67    59    61    1
    68    59    60    1
    69    63    62    1
    70    63    66    1
    71    63    64    1
    72     5     2    1
    73     4     3    2
    74    76    77   ar
    75    76    75    1
    76    71    64   am
    77    71    72    1
    78     2     3    1
    79     2     1    1
    80    64    65    2
    81    75    72    1
    82    72    73    1
    83    74    73    2
