@<TRIPOS>MOLECULE
tmp/5v5nA00.pdb
 153 143 0 0 0
SMALL
GASTEIGER

@<TRIPOS>ATOM
      1  N        -20.0460  -52.7170  -12.7890 N.3    16  VAL16      -0.1231
      2  CA       -20.1370  -52.0360  -14.0740 C.3    16  VAL16       0.1692
      3  C        -19.4180  -52.7870  -15.1880 C.2    16  VAL16       0.2593
      4  O        -19.7110  -52.5330  -16.3670 O.2    16  VAL16      -0.2718
      5  CB       -19.6030  -50.5910  -13.9810 C.3    16  VAL16       0.0266
      6  CG1      -20.4400  -49.7750  -13.0060 C.3    16  VAL16       0.0020
      7  CG2      -18.1320  -50.5790  -13.5730 C.3    16  VAL16       0.0020
      8  N        -18.4990  -53.6810  -14.8690 N.am   17  GLY17      -0.1942
      9  CA       -17.8140  -54.4540  -15.8870 C.3    17  GLY17       0.2014
     10  C        -16.4620  -54.9190  -15.3890 C.2    17  GLY17       0.2639
     11  O        -16.0430  -54.6220  -14.2740 O.2    17  GLY17      -0.2714
     12  N        -15.7870  -55.6710  -16.2540 N.am   18  ARG18      -0.1963
     13  CA       -14.4380  -56.1530  -15.9990 C.3    18  ARG18       0.1729
     14  C        -13.4370  -55.3060  -16.7720 C.2    18  ARG18       0.2616
     15  O        -13.6860  -54.9240  -17.9190 O.2    18  ARG18      -0.2715
     16  CB       -14.2890  -57.6180  -16.4150 C.3    18  ARG18       0.0348
     17  CG       -15.1960  -58.5960  -15.6880 C.3    18  ARG18       0.0492
     18  CD       -15.2250  -59.9300  -16.4180 C.3    18  ARG18       0.2205
     19  NE       -15.5020  -61.0570  -15.5310 N.pl3  18  ARG18      -0.0865
     20  CZ       -14.5720  -61.7860  -14.9190 C.cat  18  ARG18       0.5346
     21  NH1      -13.2830  -61.5170  -15.0830 N.pl3  18  ARG18       0.1354
     22  NH2      -14.9330  -62.7940  -14.1360 N.pl3  18  ARG18       0.1354
     23  N        -12.3060  -55.0120  -16.1390 N.am   19  GLY19      -0.1955
     24  CA       -11.2010  -54.3740  -16.8180 C.3    19  GLY19       0.1869
     25  C        -10.3680  -55.3920  -17.5720 C.2    19  GLY19       0.2309
     26  O        -10.7690  -56.5360  -17.7900 O.2    19  GLY19      -0.2863
     27  N        -14.5940  -54.3540  -11.9550 N.3    24  VAL24      -0.1245
     28  CA       -14.8340  -52.9630  -11.5960 C.3    24  VAL24       0.1561
     29  C        -16.3030  -52.8090  -11.2330 C.2    24  VAL24       0.2260
     30  O        -17.1720  -53.4400  -11.8440 O.2    24  VAL24      -0.2867
     31  CB       -14.4510  -52.0040  -12.7430 C.3    24  VAL24       0.0252
     32  CG1      -14.5100  -50.5580  -12.2700 C.3    24  VAL24       0.0019
     33  CG2      -13.0650  -52.3410  -13.2820 C.3    24  VAL24       0.0019
     34  N        -14.8270  -45.7300   -8.7260 N.3    35  ALA35      -0.1245
     35  CA       -14.6990  -47.0560   -9.3140 C.3    35  ALA35       0.1562
     36  C        -13.6170  -47.8100   -8.5590 C.2    35  ALA35       0.2260
     37  O        -12.5090  -47.2930   -8.3800 O.2    35  ALA35      -0.2867
     38  CB       -14.3500  -46.9780  -10.8000 C.3    35  ALA35       0.0290
     39  N        -11.4900  -51.5480   -8.1890 N.3    37  LYS37      -0.1245
     40  CA       -11.0870  -52.7500   -8.9050 C.3    37  LYS37       0.1561
     41  C        -10.5720  -53.7820   -7.9130 C.2    37  LYS37       0.2260
     42  O         -9.6790  -53.4860   -7.1120 O.2    37  LYS37      -0.2867
     43  CB       -10.0090  -52.4390   -9.9460 C.3    37  LYS37       0.0271
     44  CG        -9.6580  -53.6240  -10.8400 C.3    37  LYS37       0.0035
     45  CD        -8.4380  -53.3480  -11.7070 C.3    37  LYS37       0.0206
     46  CE        -8.7210  -52.3030  -12.7730 C.3    37  LYS37       0.1093
     47  NZ        -7.5320  -52.0580  -13.6360 N.3    37  LYS37      -0.1314
     48  N          0.3240  -52.2690  -11.3880 N.3    51  GLU51      -0.1245
     49  CA        -0.5580  -51.1260  -11.6010 C.3    51  GLU51       0.1567
     50  C         -0.5630  -50.2150  -10.3820 C.2    51  GLU51       0.2260
     51  O         -0.5810  -48.9870  -10.5150 O.2    51  GLU51      -0.2867
     52  CB        -1.9780  -51.5920  -11.9220 C.3    51  GLU51       0.0388
     53  CG        -2.9620  -50.4360  -12.0520 C.3    51  GLU51       0.1160
     54  CD        -4.2550  -50.8180  -12.7460 C.2    51  GLU51       0.3649
     55  OE1       -4.6450  -51.9990  -12.6730 O.co2  51  GLU51      -0.2457
     56  OE2       -4.8840  -49.9340  -13.3670 O.co2  51  GLU51      -0.2457
     57  N         -6.3910  -42.1210  -15.7360 N.3    64  VAL64      -0.1245
     58  CA        -7.3080  -42.2840  -14.6120 C.3    64  VAL64       0.1561
     59  C         -6.5730  -42.0100  -13.3100 C.2    64  VAL64       0.2260
     60  O         -5.4530  -42.4890  -13.0930 O.2    64  VAL64      -0.2867
     61  CB        -7.9270  -43.6900  -14.6190 C.3    64  VAL64       0.0252
     62  CG1       -8.8130  -43.8750  -15.8410 C.3    64  VAL64       0.0019
     63  CG2       -6.8440  -44.7610  -14.5640 C.3    64  VAL64       0.0019
     64  N        -10.2070  -45.8920   -7.6720 N.3    78  MET78      -0.1230
     65  CA        -9.9260  -44.9050   -8.7040 C.3    78  MET78       0.1702
     66  C        -11.1510  -44.0270   -8.9350 C.2    78  MET78       0.2592
     67  O        -12.2140  -44.2270   -8.3440 O.2    78  MET78      -0.2718
     68  CB        -9.5210  -45.5840  -10.0120 C.3    78  MET78       0.0401
     69  CG        -8.4210  -46.6110   -9.8770 C.3    78  MET78       0.0596
     70  SD        -8.1080  -47.3860  -11.4690 S.3    78  MET78      -0.1393
     71  CE        -6.9410  -48.6480  -11.0180 C.3    78  MET78       0.0692
     72  N        -10.9850  -43.0480   -9.8200 N.am   79  GLU79      -0.1966
     73  CA       -12.1010  -42.2180  -10.2430 C.3    79  GLU79       0.1733
     74  C        -13.0190  -43.0060  -11.1690 C.2    79  GLU79       0.2616
     75  O        -12.5770  -43.8720  -11.9290 O.2    79  GLU79      -0.2715
     76  CB       -11.5950  -40.9620  -10.9540 C.3    79  GLU79       0.0429
     77  CG       -11.0070  -41.2230  -12.3380 C.3    79  GLU79       0.1163
     78  CD       -10.4410  -39.9720  -12.9810 C.2    79  GLU79       0.3649
     79  OE1       -9.3360  -39.5430  -12.5870 O.co2  79  GLU79      -0.2457
     80  OE2      -11.1060  -39.4130  -13.8780 O.co2  79  GLU79      -0.2457
     81  N        -14.3100  -42.6990  -11.1010 N.am   80  TYR80      -0.1960
     82  CA       -15.3000  -43.3560  -11.9420 C.3    80  TYR80       0.1771
     83  C        -15.4290  -42.6050  -13.2600 C.2    80  TYR80       0.2619
     84  O        -15.5660  -41.3770  -13.2730 O.2    80  TYR80      -0.2715
     85  CB       -16.6540  -43.4260  -11.2360 C.3    80  TYR80       0.0574
     86  CG       -17.6940  -44.2190  -11.9960 C.ar   80  TYR80      -0.0198
     87  CD1      -17.6310  -45.6050  -12.0550 C.ar   80  TYR80      -0.0009
     88  CD2      -18.7400  -43.5840  -12.6520 C.ar   80  TYR80      -0.0009
     89  CE1      -18.5770  -46.3360  -12.7460 C.ar   80  TYR80       0.0417
     90  CE2      -19.6920  -44.3070  -13.3460 C.ar   80  TYR80       0.0417
     91  CZ       -19.6050  -45.6830  -13.3900 C.ar   80  TYR80       0.1957
     92  OH       -20.5480  -46.4100  -14.0790 O.3    80  TYR80      -0.2866
     93  N        -15.3760  -43.3450  -14.3650 N.am   81  ALA81      -0.1963
     94  CA       -15.5380  -42.7800  -15.7020 C.3    81  ALA81       0.1728
     95  C        -16.9700  -43.0550  -16.1420 C.2    81  ALA81       0.2616
     96  O        -17.3080  -44.1760  -16.5300 O.2    81  ALA81      -0.2715
     97  CB       -14.5250  -43.3750  -16.6750 C.3    81  ALA81       0.0334
     98  N        -17.8130  -42.0200  -16.0840 N.am   82  GLU82      -0.1977
     99  CA       -19.2360  -42.2030  -16.3510 C.3    82  GLU82       0.1602
    100  C        -19.4990  -42.6200  -17.7930 C.2    82  GLU82       0.2287
    101  O        -20.4470  -43.3680  -18.0570 O.2    82  GLU82      -0.2864
    102  CB       -20.0040  -40.9180  -16.0240 C.3    82  GLU82       0.0415
    103  CG       -19.5660  -39.6760  -16.8040 C.3    82  GLU82       0.1163
    104  CD       -18.4300  -38.9230  -16.1330 C.2    82  GLU82       0.3649
    105  OE1      -17.7460  -39.5140  -15.2700 O.co2  82  GLU82      -0.2457
    106  OE2      -18.2250  -37.7360  -16.4680 O.co2  82  GLU82      -0.2457
    107  N        -18.0850  -44.6740  -19.7860 N.3    84  GLY84      -0.1210
    108  CA       -17.7110  -45.9970  -20.2460 C.3    84  GLY84       0.1956
    109  C        -16.4460  -45.9610  -21.0920 C.2    84  GLY84       0.2612
    110  O        -15.6750  -44.9970  -21.0810 O.2    84  GLY84      -0.2717
    111  N        -16.2440  -47.0400  -21.8430 N.am   85  SER85      -0.1952
    112  CA       -15.0530  -47.1980  -22.6640 C.3    85  SER85       0.1924
    113  C        -15.2800  -46.6510  -24.0680 C.2    85  SER85       0.2314
    114  O        -16.4050  -46.6180  -24.5730 O.2    85  SER85      -0.2863
    115  CB       -14.6510  -48.6710  -22.7540 C.3    85  SER85       0.2116
    116  OG       -15.5640  -49.3950  -23.5590 O.3    85  SER85      -0.2180
    117  N        -16.8680  -49.0920  -26.3980 N.3    88  ASN88      -0.1240
    118  CA       -18.3220  -49.1630  -26.3050 C.3    88  ASN88       0.1653
    119  C        -18.9780  -48.0520  -27.1150 C.2    88  ASN88       0.2266
    120  O        -19.9880  -48.2790  -27.7910 O.2    88  ASN88      -0.2867
    121  CB       -18.7550  -49.0800  -24.8430 C.3    88  ASN88       0.1155
    122  CG       -19.8670  -50.0460  -24.5120 C.2    88  ASN88       0.2627
    123  OD1      -21.0320  -49.8010  -24.8260 O.2    88  ASN88      -0.2716
    124  ND2      -19.5150  -51.1550  -23.8710 N.am   88  ASN88      -0.0877
    125  N        -10.7860  -50.4440  -25.6890 N.3   134  PRO134     -0.2116
    126  CA       -11.3060  -51.0030  -24.4290 C.3   134  PRO134      0.1372
    127  C        -10.6190  -50.4530  -23.1900 C.2   134  PRO134      0.2244
    128  O        -11.2270  -50.4560  -22.1130 O.2   134  PRO134     -0.2868
    129  CB       -11.0680  -52.5100  -24.5860 C.3   134  PRO134      0.0268
    130  CG       -11.0960  -52.7350  -26.0510 C.3   134  PRO134      0.0207
    131  CD       -10.4690  -51.5100  -26.6570 C.3   134  PRO134      0.0892
    132  N        -11.0980  -44.6550  -21.5040 N.3   137  LEU137     -0.1245
    133  CA       -12.3720  -44.2690  -20.9180 C.3   137  LEU137      0.1561
    134  C        -12.7240  -42.8390  -21.3080 C.2   137  LEU137      0.2260
    135  O        -11.8580  -42.0340  -21.6550 O.2   137  LEU137     -0.2867
    136  CB       -12.3250  -44.3980  -19.3940 C.3   137  LEU137      0.0270
    137  CG       -11.7710  -45.7220  -18.8600 C.3   137  LEU137      0.0019
    138  CD1      -11.8060  -45.7360  -17.3400 C.3   137  LEU137      0.0001
    139  CD2      -12.5370  -46.9100  -19.4280 C.3   137  LEU137      0.0001
    140  N         -6.4850  -46.1250  -18.9730 N.3   148  CYS148     -0.1221
    141  CA        -6.6130  -46.9600  -17.7870 C.3   148  CYS148      0.1808
    142  C         -5.9680  -48.3160  -18.0490 C.2   148  CYS148      0.2601
    143  O         -5.4190  -48.5740  -19.1260 O.2   148  CYS148     -0.2717
    144  CB        -8.0830  -47.1240  -17.3810 C.3   148  CYS148      0.0970
    145  SG        -9.0510  -48.1710  -18.4910 S.3   148  CYS148     -0.0800
    146  N         -6.0410  -49.1870  -17.0420 N.am  149  ASP149     -0.1973
    147  CA        -5.4890  -50.5360  -17.1110 C.3   149  ASP149      0.1709
    148  C         -3.9900  -50.5200  -17.3860 C.2   149  ASP149      0.2293
    149  O         -3.5530  -50.7550  -18.5180 O.2   149  ASP149     -0.2864
    150  CB        -6.2180  -51.3630  -18.1730 C.3   149  ASP149      0.1436
    151  CG        -7.4560  -52.0430  -17.6240 C.2   149  ASP149      0.3671
    152  OD1       -7.3030  -52.9740  -16.8060 O.co2 149  ASP149     -0.2456
    153  OD2       -8.5780  -51.6510  -18.0070 O.co2 149  ASP149     -0.2456
@<TRIPOS>BOND
     1   120   119    2
     2   119   118    1
     3   131   130    1
     4   131   125    1
     5   117   118    1
     6   118   121    1
     7   130   129    1
     8   125   126    1
     9   121   122    1
    10   123   122    2
    11   129   126    1
    12   114   113    2
    13   122   124   am
    14   126   127    1
    15   113   112    1
    16   116   115    1
    17   127   128    2
    18   115   112    1
    19   112   111    1
    20   111   109   am
    21   135   134    2
    22   132   133    1
    23   134   133    1
    24   109   110    2
    25   109   108    1
    26   133   136    1
    27   108   107    1
    28   139   137    1
    29   136   137    1
    30   143   142    2
    31   140   141    1
    32   137   138    1
    33   149   148    2
    34   145   144    1
    35   150   151    1
    36   150   147    1
    37   101   100    2
    38   142   141    1
    39   142   146   am
    40   153   151   ar
    41    15    14    2
    42   100    99    1
    43    26    25    2
    44   141   144    1
    45   151   152   ar
    46    25    24    1
    47   148   147    1
    48   147   146    1
    49    24    23    1
    50   103   104    1
    51   103   102    1
    52    14    23   am
    53    14    13    1
    54    97    94    1
    55    96    95    2
    56   106   104   ar
    57    18    17    1
    58    18    19    1
    59    16    13    1
    60    16    17    1
    61     4     3    2
    62    99    98    1
    63    99   102    1
    64    12    13    1
    65    12    10   am
    66    95    98   am
    67    95    94    1
    68   104   105   ar
    69     9    10    1
    70     9     8    1
    71    62    61    1
    72    57    58    1
    73    94    93    1
    74    19    20    2
    75    10    11    2
    76     3     8   am
    77     3     2    1
    78    21    20    1
    79    20    22    1
    80    61    58    1
    81    61    63    1
    82    58    59    1
    83    93    83   am
    84    92    91    1
    85     2     5    1
    86     2     1    1
    87     5     7    1
    88     5     6    1
    89    80    78   ar
    90    47    46    1
    91    91    90   ar
    92    91    89   ar
    93    56    54   ar
    94    90    88   ar
    95    59    60    2
    96    33    31    1
    97    84    83    2
    98    83    82    1
    99    78    79   ar
   100    78    77    1
   101    46    45    1
   102    54    55   ar
   103    54    53    1
   104    89    87   ar
   105    31    32    1
   106    31    28    1
   107    88    86   ar
   108    77    76    1
   109    87    86   ar
   110    53    52    1
   111    86    85    1
   112    27    28    1
   113    82    85    1
   114    82    81    1
   115    75    74    2
   116    52    49    1
   117    30    29    2
   118    45    44    1
   119    49    48    1
   120    49    50    1
   121    28    29    1
   122    70    71    1
   123    70    69    1
   124    74    81   am
   125    74    73    1
   126    76    73    1
   127    44    43    1
   128    38    35    1
   129    51    50    2
   130    73    72    1
   131    68    69    1
   132    68    65    1
   133    43    40    1
   134    72    66   am
   135    35    34    1
   136    35    36    1
   137    66    65    1
   138    66    67    2
   139    40    39    1
   140    40    41    1
   141    65    64    1
   142    36    37    2
   143    41    42    2
