@<TRIPOS>MOLECULE
tmp/5v60A00.pdb
 209 196 0 0 0
SMALL
GASTEIGER

@<TRIPOS>ATOM
      1  N         18.6210   17.3590    8.6840 N.3    22  ILE22      -0.1231
      2  CA        18.2490   18.2910    9.7660 C.3    22  ILE22       0.1692
      3  C         18.4310   17.6720   11.1560 C.2    22  ILE22       0.2593
      4  O         18.8830   18.3340   12.0620 O.2    22  ILE22      -0.2718
      5  CB        16.7700   18.7340    9.6530 C.3    22  ILE22       0.0266
      6  CG1       16.5940   19.8280    8.6120 C.3    22  ILE22       0.0019
      7  CG2       16.2640   19.2900   10.9760 C.3    22  ILE22       0.0020
      8  CD1       15.1270   20.2010    8.4320 C.3    22  ILE22       0.0001
      9  N         17.9960   16.4370   11.3440 N.am   23  GLY23      -0.1942
     10  CA        18.1210   15.7880   12.6350 C.3    23  GLY23       0.2014
     11  C         17.6540   14.3550   12.5740 C.2    23  GLY23       0.2639
     12  O         17.3040   13.8440   11.5160 O.2    23  GLY23      -0.2714
     13  N         17.6420   13.7010   13.7220 N.am   24  GLU24      -0.1963
     14  CA        17.2870   12.2910   13.7810 C.3    24  GLU24       0.1733
     15  C         16.8430   11.8970   15.1800 C.2    24  GLU24       0.2617
     16  O         16.8520   12.7220   16.1130 O.2    24  GLU24      -0.2715
     17  CB        18.4750   11.4320   13.3190 C.3    24  GLU24       0.0429
     18  CG        19.6550   11.4380   14.2710 C.3    24  GLU24       0.1163
     19  CD        20.8710   10.7410   13.6910 C.2    24  GLU24       0.3649
     20  OE1       21.1330    9.5810   14.0680 O.co2  24  GLU24      -0.2457
     21  OE2       21.5620   11.3450   12.8510 O.co2  24  GLU24      -0.2457
     22  N         16.4480   10.6330   15.3020 N.am   25  GLY25      -0.1940
     23  CA        16.1060   10.0440   16.5870 C.3    25  GLY25       0.2014
     24  C         16.2230    8.5410   16.5770 C.2    25  GLY25       0.2639
     25  O         16.8450    7.9580   15.6880 O.2    25  GLY25      -0.2714
     26  N         15.5770    7.9260   17.5620 N.am   26  ALA26      -0.1963
     27  CA        15.6730    6.4920   17.8120 C.3    26  ALA26       0.1728
     28  C         15.2310    5.6400   16.6250 C.2    26  ALA26       0.2616
     29  O         15.8070    4.5810   16.3620 O.2    26  ALA26      -0.2715
     30  CB        14.8520    6.1400   19.0460 C.3    26  ALA26       0.0334
     31  N         14.1950    6.0840   15.9180 N.am   27  TYR27      -0.1960
     32  CA        13.6840    5.3140   14.7820 C.3    27  TYR27       0.1771
     33  C         13.2310    6.1970   13.6200 C.2    27  TYR27       0.2620
     34  O         12.3220    5.8360   12.8570 O.2    27  TYR27      -0.2715
     35  CB        12.5650    4.3750   15.2520 C.3    27  TYR27       0.0574
     36  CG        11.3910    5.0410   15.9580 C.ar   27  TYR27      -0.0198
     37  CD1       11.4370    5.3260   17.3280 C.ar   27  TYR27      -0.0009
     38  CD2       10.2190    5.3340   15.2750 C.ar   27  TYR27      -0.0009
     39  CE1       10.3560    5.9040   17.9800 C.ar   27  TYR27       0.0417
     40  CE2        9.1400    5.9170   15.9230 C.ar   27  TYR27       0.0417
     41  CZ         9.2110    6.1960   17.2690 C.ar   27  TYR27       0.1957
     42  OH         8.1220    6.7710   17.9080 O.3    27  TYR27      -0.2866
     43  N         13.8900    7.3430   13.4750 N.am   28  GLY28      -0.1954
     44  CA        13.6120    8.2380   12.3720 C.3    28  GLY28       0.1869
     45  C         14.7180    9.2040   12.0180 C.2    28  GLY28       0.2309
     46  O         15.7310    9.2980   12.7130 O.2    28  GLY28      -0.2863
     47  N         15.0380   13.3250   10.0850 N.3    30  VAL30      -0.1245
     48  CA        14.3970   14.5050    9.5450 C.3    30  VAL30       0.1561
     49  C         15.3290   15.1730    8.5320 C.2    30  VAL30       0.2260
     50  O         16.5060   15.3760    8.8220 O.2    30  VAL30      -0.2867
     51  CB        14.0250   15.5130   10.6490 C.3    30  VAL30       0.0252
     52  CG1       13.1960   16.6550   10.0590 C.3    30  VAL30       0.0019
     53  CG2       13.2410   14.8100   11.7590 C.3    30  VAL30       0.0019
     54  N          9.9670   20.2100    5.5530 N.3    43  ALA43      -0.1245
     55  CA        10.6630   19.2140    6.3700 C.3    43  ALA43       0.1562
     56  C         10.0400   17.8530    6.1130 C.2    43  ALA43       0.2260
     57  O          8.8320   17.7640    5.9160 O.2    43  ALA43      -0.2867
     58  CB        10.5520   19.5480    7.8460 C.3    43  ALA43       0.0290
     59  N          9.9930   14.0310    7.7970 N.3    45  LYS45      -0.1245
     60  CA        10.3480   13.1700    8.9040 C.3    45  LYS45       0.1561
     61  C         10.1210   11.7220    8.4760 C.2    45  LYS45       0.2260
     62  O          8.9760   11.3040    8.3100 O.2    45  LYS45      -0.2867
     63  CB         9.5220   13.5430   10.1440 C.3    45  LYS45       0.0271
     64  CG         9.8110   12.6980   11.3790 C.3    45  LYS45       0.0035
     65  CD         9.2040   13.2690   12.6580 C.3    45  LYS45       0.0206
     66  CE         9.4530   12.3120   13.8170 C.3    45  LYS45       0.1093
     67  NZ         9.0620   12.8720   15.1400 N.3    45  LYS45      -0.1314
     68  N          3.2100    4.5820   19.2110 N.3    58  ARG58      -0.1245
     69  CA         3.5660    5.9960   19.2550 C.3    58  ARG58       0.1563
     70  C          3.4250    6.6990   17.9150 C.2    58  ARG58       0.2260
     71  O          3.0040    7.8650   17.8680 O.2    58  ARG58      -0.2867
     72  CB         4.9770    6.1600   19.8170 C.3    58  ARG58       0.0307
     73  CG         5.0140    5.8570   21.3140 C.3    58  ARG58       0.0489
     74  CD         6.4050    5.5920   21.8410 C.3    58  ARG58       0.2205
     75  NE         7.3260    6.6720   21.4910 N.pl3  58  ARG58      -0.0865
     76  CZ         8.6220    6.7180   21.8260 C.cat  58  ARG58       0.5346
     77  NH1        9.1820    5.7350   22.5450 N.pl3  58  ARG58       0.1354
     78  NH2        9.3620    7.7640   21.4430 N.pl3  58  ARG58       0.1354
     79  N          3.1170   22.3410   14.9800 N.3    75  ILE75      -0.1245
     80  CA         3.5000   21.8830   13.6510 C.3    75  ILE75       0.1561
     81  C          2.3620   21.0270   13.0460 C.2    75  ILE75       0.2260
     82  O          1.7240   20.2450   13.7580 O.2    75  ILE75      -0.2867
     83  CB         4.8490   21.1030   13.6960 C.3    75  ILE75       0.0252
     84  CG1        5.4740   21.0110   12.3020 C.3    75  ILE75       0.0019
     85  CG2        4.6910   19.7250   14.3450 C.3    75  ILE75       0.0019
     86  CD1        5.8980   22.3570   11.7300 C.3    75  ILE75       0.0001
     87  N          6.1060   18.3240    6.4690 N.3    96  GLN96      -0.1231
     88  CA         5.6760   19.4420    7.2940 C.3    96  GLN96       0.1698
     89  C          6.3150   20.7330    6.7920 C.2    96  GLN96       0.2592
     90  O          7.2210   20.7010    5.9750 O.2    96  GLN96      -0.2718
     91  CB         6.1000   19.1880    8.7450 C.3    96  GLN96       0.0381
     92  CG         5.6980   17.8280    9.2940 C.3    96  GLN96       0.0905
     93  CD         6.1570   17.6100   10.7270 C.2    96  GLN96       0.2608
     94  OE1        7.3590   17.6270   11.0080 O.2    96  GLN96      -0.2717
     95  NE2        5.1920   17.3970   11.6480 N.am   96  GLN96      -0.0878
     96  N          5.8600   21.8670    7.3150 N.am   97  ASP97      -0.1960
     97  CA         6.5270   23.1400    7.0460 C.3    97  ASP97       0.1840
     98  C          7.9390   23.0910    7.6070 C.2    97  ASP97       0.2622
     99  O          8.1890   22.5130    8.6740 O.2    97  ASP97      -0.2715
    100  CB         5.7990   24.3220    7.6840 C.3    97  ASP97       0.1450
    101  CG         4.3770   24.5080    7.1490 C.2    97  ASP97       0.3671
    102  OD1        4.1080   24.2450    5.9590 O.co2  97  ASP97      -0.2456
    103  OD2        3.5250   24.9300    7.9440 O.co2  97  ASP97      -0.2456
    104  N          8.8570   23.6840    6.8700 N.am   98  LEU98      -0.1963
    105  CA        10.2200   23.8120    7.3150 C.3    98  LEU98       0.1728
    106  C         10.3260   25.0030    8.2470 C.2    98  LEU98       0.2616
    107  O          9.9140   26.1040    7.8980 O.2    98  LEU98      -0.2715
    108  CB        11.1580   24.0270    6.1280 C.3    98  LEU98       0.0311
    109  CG        12.6510   24.1180    6.4750 C.3    98  LEU98       0.0022
    110  CD1       13.1190   22.8440    7.1420 C.3    98  LEU98       0.0001
    111  CD2       13.4680   24.4160    5.2110 C.3    98  LEU98       0.0001
    112  N         10.9000   24.7670    9.4190 N.am   99  MET99      -0.1963
    113  CA        11.2230   25.8200   10.3650 C.3    99  MET99       0.1736
    114  C         12.7290   25.9870   10.3650 C.2    99  MET99       0.2616
    115  O         13.4580   25.0570   10.0330 O.2    99  MET99      -0.2715
    116  CB        10.7050   25.4390   11.7500 C.3    99  MET99       0.0427
    117  CG         9.1910   25.2540   11.8240 C.3    99  MET99       0.0599
    118  SD         8.2640   26.7670   11.4780 S.3    99  MET99      -0.1393
    119  CE         8.6360   27.7330   12.9430 C.3    99  MET99       0.0692
    120  N         13.2090   27.1630   10.7240 N.am  100  GLU100     -0.1963
    121  CA        14.6440   27.4670   10.5530 C.3   100  GLU100      0.1733
    122  C         15.5540   26.7890   11.5830 C.2   100  GLU100      0.2617
    123  O         16.6470   26.3520   11.2610 O.2   100  GLU100     -0.2715
    124  CB        14.8550   28.9740   10.5270 C.3   100  GLU100      0.0429
    125  CG        14.1430   29.5990    9.3420 C.3   100  GLU100      0.1163
    126  CD        14.1350   31.1080    9.3750 C.2   100  GLU100      0.3649
    127  OE1       15.2320   31.7130    9.4930 O.co2 100  GLU100     -0.2457
    128  OE2       13.0190   31.6810    9.2560 O.co2 100  GLU100     -0.2457
    129  N         15.0870   26.6750   12.8140 N.am  101  THR101     -0.1937
    130  CA        15.9100   26.1250   13.8910 C.3   101  THR101      0.2028
    131  C         14.9990   25.6790   15.0460 C.2   101  THR101      0.2642
    132  O         13.7860   25.7800   14.9670 O.2   101  THR101     -0.2714
    133  CB        16.9720   27.1740   14.3410 C.3   101  THR101      0.1808
    134  OG1       17.9470   26.5660   15.1820 O.3   101  THR101     -0.2208
    135  CG2       16.3360   28.3560   15.0780 C.3   101  THR101      0.0379
    136  N         15.5900   25.1620   16.1070 N.am  102  ASP102     -0.1971
    137  CA        14.8400   24.8780   17.3200 C.3   102  ASP102      0.1709
    138  C         15.4920   25.6080   18.4830 C.2   102  ASP102      0.2293
    139  O         16.6230   26.1180   18.3560 O.2   102  ASP102     -0.2864
    140  CB        14.7220   23.3720   17.5570 C.3   102  ASP102      0.1436
    141  CG        16.0520   22.6920   17.7430 C.2   102  ASP102      0.3671
    142  OD1       16.8550   23.1410   18.5690 O.co2 102  ASP102     -0.2456
    143  OD2       16.2870   21.6620   17.0850 O.co2 102  ASP102     -0.2456
    144  N         19.0530   24.7310   19.7540 N.3   105  LYS105     -0.1245
    145  CA        20.1460   25.2720   18.9330 C.3   105  LYS105      0.1561
    146  C         20.3430   26.7700   19.1510 C.2   105  LYS105      0.2260
    147  O         21.4770   27.2530   19.1880 O.2   105  LYS105     -0.2867
    148  CB        19.9050   24.9900   17.4460 C.3   105  LYS105      0.0271
    149  CG        19.9650   23.5100   17.0860 C.3   105  LYS105      0.0035
    150  CD        19.5400   23.2990   15.6420 C.3   105  LYS105      0.0206
    151  CE        19.4160   21.8270   15.2940 C.3   105  LYS105      0.1093
    152  NZ        18.4660   21.6790   14.1610 N.3   105  LYS105     -0.1314
    153  N          6.7730   15.4750   26.3870 N.3   140  ASP140     -0.1239
    154  CA         8.1680   15.5800   25.9710 C.3   140  ASP140      0.1674
    155  C          8.5290   16.9880   25.5760 C.2   140  ASP140      0.2266
    156  O          9.3170   17.1890   24.6560 O.2   140  ASP140     -0.2867
    157  CB         8.4760   14.6140   24.8160 C.3   140  ASP140      0.1410
    158  CG         9.9880   14.3740   24.6160 C.2   140  ASP140      0.3668
    159  OD1       10.7750   14.4960   25.5950 O.co2 140  ASP140     -0.2456
    160  OD2       10.3860   14.0460   23.4580 O.co2 140  ASP140     -0.2456
    161  N         10.5500   20.1930   25.6140 N.3   142  LYS142     -0.1245
    162  CA        11.9460   20.5690   25.8690 C.3   142  LYS142      0.1561
    163  C         12.4420   21.4570   24.7190 C.2   142  LYS142      0.2260
    164  O         11.7600   21.5830   23.6900 O.2   142  LYS142     -0.2867
    165  CB        12.8100   19.3260   26.0050 C.3   142  LYS142      0.0271
    166  CG        12.8570   18.4630   24.7570 C.3   142  LYS142      0.0035
    167  CD        13.5050   17.1380   25.0850 C.3   142  LYS142      0.0206
    168  CE        13.5140   16.2680   23.8530 C.3   142  LYS142      0.1093
    169  NZ        14.4510   15.1320   23.9260 N.3   142  LYS142     -0.1314
    170  N         14.5580   21.2810   22.2320 N.3   144  SER144     -0.1202
    171  CA        14.7190   20.6860   20.8880 C.3   144  SER144      0.2020
    172  C         13.3880   20.3400   20.2160 C.2   144  SER144      0.2618
    173  O         13.3630   20.1100   19.0080 O.2   144  SER144     -0.2717
    174  CB        15.6790   19.4790   20.8960 C.3   144  SER144      0.2103
    175  OG        15.1100   18.3300   21.5050 O.3   144  SER144     -0.2182
    176  N         12.2930   20.3160   20.9820 N.am  145  ASN145     -0.1974
    177  CA        10.9320   20.1190   20.4340 C.3   145  ASN145      0.1688
    178  C         10.1400   21.4430   20.2680 C.2   145  ASN145      0.2292
    179  O          8.9240   21.4470   20.1070 O.2   145  ASN145     -0.2864
    180  CB        10.1640   19.1160   21.2940 C.3   145  ASN145      0.1181
    181  CG        10.7120   17.6810   21.1880 C.2   145  ASN145      0.2629
    182  OD1       11.4830   17.3230   20.2700 O.2   145  ASN145     -0.2716
    183  ND2       10.2820   16.8350   22.1330 N.am  145  ASN145     -0.0877
    184  N         10.2220   24.5610   17.7060 N.3   147  LEU147     -0.1245
    185  CA        10.7670   25.0740   16.4450 C.3   147  LEU147      0.1561
    186  C         10.5320   26.5740   16.3120 C.2   147  LEU147      0.2260
    187  O          9.4570   27.0710   16.6860 O.2   147  LEU147     -0.2867
    188  CB        10.0980   24.3590   15.2490 C.3   147  LEU147      0.0270
    189  CG        10.0930   22.8210   15.2680 C.3   147  LEU147      0.0019
    190  CD1        9.3410   22.2440   14.0810 C.3   147  LEU147      0.0001
    191  CD2       11.5100   22.2960   15.3030 C.3   147  LEU147      0.0001
    192  N          6.7300   20.8120   18.3010 N.3   157  CYS157     -0.1221
    193  CA         6.8070   19.5950   17.4820 C.3   157  CYS157      0.1808
    194  C          7.0350   18.3640   18.3340 C.2   157  CYS157      0.2601
    195  O          6.9990   18.4110   19.5660 O.2   157  CYS157     -0.2717
    196  CB         7.8720   19.7360   16.3830 C.3   157  CYS157      0.0970
    197  SG         9.5590   19.6870   17.0300 S.3   157  CYS157     -0.0800
    198  N          7.2120   17.2470   17.6500 N.am  158  ASP158     -0.1973
    199  CA         7.5260   15.9600   18.2560 C.3   158  ASP158      0.1709
    200  C          6.4700   15.4670   19.2180 C.2   158  ASP158      0.2293
    201  O          6.6710   15.4740   20.4430 O.2   158  ASP158     -0.2864
    202  CB         8.9100   15.9770   18.9050 C.3   158  ASP158      0.1436
    203  CG         9.4230   14.5840   19.2540 C.2   158  ASP158      0.3671
    204  OD1        8.8060   13.5390   18.9240 O.co2 158  ASP158     -0.2456
    205  OD2       10.4780   14.5430   19.8970 O.co2 158  ASP158     -0.2456
    206  N          5.7060   12.3460   19.4150 N.3   160  GLY160     -0.1225
    207  CA         6.0310   10.9120   19.5000 C.3   160  GLY160      0.1811
    208  C          5.7850   10.2590   20.8510 C.2   160  GLY160      0.2280
    209  O          5.5990    9.0310   20.9080 O.2   160  GLY160     -0.2866
@<TRIPOS>BOND
     1   111   109    1
     2    54    55    1
     3    57    56    2
     4   102   101   ar
     5    90    89    2
     6    56    55    1
     7   108   109    1
     8   108   105    1
     9    55    58    1
    10    87    88    1
    11   109   110    1
    12    89    88    1
    13    89    96   am
    14   104   105    1
    15   104    98   am
    16    97    96    1
    17    97    98    1
    18    97   100    1
    19   101   100    1
    20   101   103   ar
    21    88    91    1
    22   105   106    1
    23    98    99    2
    24    59    60    1
    25   107   106    2
    26   106   112   am
    27    62    61    2
    28     8     6    1
    29    61    60    1
    30    49    50    2
    31    49    48    1
    32     6     5    1
    33     1     2    1
    34    91    92    1
    35    60    63    1
    36   128   126   ar
    37    92    93    1
    38   125   126    1
    39   125   124    1
    40   126   127   ar
    41   112   113    1
    42    48    47    1
    43    48    51    1
    44     5     2    1
    45     5     7    1
    46     2     3    1
    47   115   114    2
    48    52    51    1
    49    63    64    1
    50   114   113    1
    51   114   120   am
    52   113   116    1
    53   124   121    1
    54   121   120    1
    55   121   122    1
    56    51    53    1
    57    93    94    2
    58    93    95   am
    59     3     9   am
    60     3     4    2
    61   123   122    2
    62     9    10    1
    63    64    65    1
    64   118   117    1
    65   118   119    1
    66    12    11    2
    67   122   129   am
    68    86    84    1
    69   116   117    1
    70    45    44    1
    71    45    46    2
    72    84    83    1
    73    44    43    1
    74    11    10    1
    75    11    13   am
    76    65    66    1
    77   129   130    1
    78    21    19   ar
    79    34    33    2
    80    81    80    1
    81    81    82    2
    82    17    14    1
    83    17    18    1
    84    43    33   am
    85    33    32    1
    86    80    83    1
    87    80    79    1
    88    19    20   ar
    89    19    18    1
    90    83    85    1
    91    13    14    1
    92    14    15    1
    93    66    67    1
    94   130   133    1
    95   130   131    1
    96   190   189    1
    97   152   151    1
    98   133   135    1
    99   133   134    1
   100    32    35    1
   101    32    31    1
   102   132   131    2
   103   131   136   am
   104    15    22   am
   105    15    16    2
   106   188   189    1
   107   188   185    1
   108    35    36    1
   109   189   191    1
   110    38    40   ar
   111    38    36   ar
   112   151   150    1
   113    22    23    1
   114   150   149    1
   115    25    24    2
   116    31    28   am
   117    40    41   ar
   118    36    37   ar
   119   136   137    1
   120   186   185    1
   121   186   187    2
   122    29    28    2
   123   196   197    1
   124   196   193    1
   125   185   184    1
   126    24    23    1
   127    24    26   am
   128    28    27    1
   129   143   141   ar
   130   149   148    1
   131    41    42    1
   132    41    39   ar
   133   137   140    1
   134   137   138    1
   135    37    39   ar
   136   148   145    1
   137   193   192    1
   138   193   194    1
   139   140   141    1
   140    26    27    1
   141   198   199    1
   142   198   194   am
   143   141   142   ar
   144    27    30    1
   145    71    70    2
   146    70    69    1
   147   199   202    1
   148   199   200    1
   149   194   195    2
   150   139   138    2
   151   202   203    1
   152   204   203   ar
   153   145   146    1
   154   145   144    1
   155   173   172    2
   156   146   147    2
   157    68    69    1
   158   200   201    2
   159   203   205   ar
   160    69    72    1
   161   206   207    1
   162   207   208    1
   163    72    73    1
   164   179   178    2
   165   172   171    1
   166   172   176   am
   167   178   177    1
   168   182   181    2
   169   177   176    1
   170   177   180    1
   171   208   209    2
   172   171   174    1
   173   171   170    1
   174   174   175    1
   175   181   180    1
   176   181   183   am
   177    73    74    1
   178    78    76    1
   179    75    76    2
   180    75    74    1
   181    76    77    1
   182   160   158   ar
   183   164   163    2
   184   168   169    1
   185   168   167    1
   186   158   157    1
   187   158   159   ar
   188   156   155    2
   189   163   162    1
   190   166   167    1
   191   166   165    1
   192   157   154    1
   193   155   154    1
   194   161   162    1
   195   162   165    1
   196   154   153    1
