@<TRIPOS>MOLECULE
tmp/5v61A00.pdb
 152 141 0 0 0
SMALL
GASTEIGER

@<TRIPOS>ATOM
      1  N        -20.1730   16.8420   -8.7270 N.3    22  ILE22      -0.1245
      2  CA       -20.0210   17.7340   -9.8980 C.3    22  ILE22       0.1561
      3  C        -20.3090   17.0300  -11.2040 C.2    22  ILE22       0.2260
      4  O        -21.0000   17.5680  -12.0490 O.2    22  ILE22      -0.2867
      5  CB       -18.6200   18.3150  -10.0020 C.3    22  ILE22       0.0252
      6  CG1      -18.3670   19.2620   -8.8280 C.3    22  ILE22       0.0019
      7  CG2      -18.4210   19.0420  -11.3440 C.3    22  ILE22       0.0019
      8  CD1      -16.9370   19.7360   -8.7530 C.3    22  ILE22       0.0001
      9  N        -13.7290    8.8320  -17.4480 N.3    27  TYR27      -0.1241
     10  CA       -12.6820    9.2410  -16.4980 C.3    27  TYR27       0.1605
     11  C        -12.9700    9.0130  -14.9910 C.2    27  TYR27       0.2264
     12  O        -12.0450    9.1600  -14.1970 O.2    27  TYR27      -0.2867
     13  CB       -12.2230   10.7110  -16.7440 C.3    27  TYR27       0.0534
     14  CG       -13.2810   11.7880  -16.5870 C.ar   27  TYR27      -0.0201
     15  CD1      -13.8530   12.0680  -15.3430 C.ar   27  TYR27      -0.0009
     16  CD2      -13.7010   12.5500  -17.6840 C.ar   27  TYR27      -0.0009
     17  CE1      -14.8160   13.0500  -15.1950 C.ar   27  TYR27       0.0417
     18  CE2      -14.6700   13.5400  -17.5440 C.ar   27  TYR27       0.0417
     19  CZ       -15.2190   13.7880  -16.2920 C.ar   27  TYR27       0.1957
     20  OH       -16.1740   14.7580  -16.1180 O.3    27  TYR27      -0.2866
     21  N        -16.2580   12.9370  -10.2410 N.3    30  VAL30      -0.1245
     22  CA       -15.7410   14.1710   -9.6440 C.3    30  VAL30       0.1561
     23  C        -16.7000   14.7910   -8.5970 C.2    30  VAL30       0.2260
     24  O        -17.9140   14.8630   -8.8490 O.2    30  VAL30      -0.2867
     25  CB       -15.4730   15.2180  -10.7320 C.3    30  VAL30       0.0252
     26  CG1      -14.8120   16.4650  -10.1620 C.3    30  VAL30       0.0019
     27  CG2      -14.5370   14.6460  -11.7810 C.3    30  VAL30       0.0019
     28  N        -11.4520   20.2620   -5.9500 N.3    43  ALA43      -0.1231
     29  CA       -12.1070   19.2520   -6.7500 C.3    43  ALA43       0.1694
     30  C        -11.3700   17.9560   -6.5300 C.2    43  ALA43       0.2592
     31  O        -10.1380   17.9430   -6.4550 O.2    43  ALA43      -0.2718
     32  CB       -12.0400   19.6300   -8.2430 C.3    43  ALA43       0.0304
     33  N        -12.1100   16.8670   -6.4540 N.am   44  ILE44      -0.1966
     34  CA       -11.5450   15.5440   -6.2900 C.3    44  ILE44       0.1727
     35  C        -12.1380   14.5710   -7.3270 C.2    44  ILE44       0.2616
     36  O        -13.3620   14.3970   -7.3960 O.2    44  ILE44      -0.2715
     37  CB       -11.8020   14.9940   -4.8530 C.3    44  ILE44       0.0290
     38  CG1      -11.4140   16.0230   -3.7860 C.3    44  ILE44       0.0022
     39  CG2      -11.0780   13.6640   -4.6680 C.3    44  ILE44       0.0023
     40  CD1      -11.3760   15.4730   -2.3510 C.3    44  ILE44       0.0001
     41  N        -11.2770   13.8940   -8.0780 N.am   45  LYS45      -0.1977
     42  CA       -11.7200   12.8650   -9.0230 C.3    45  LYS45       0.1596
     43  C        -11.4360   11.4980   -8.4530 C.2    45  LYS45       0.2287
     44  O        -10.3160   11.2290   -8.1040 O.2    45  LYS45      -0.2864
     45  CB       -10.9820   13.0440  -10.3700 C.3    45  LYS45       0.0298
     46  CG       -11.3870   12.0110  -11.4610 C.3    45  LYS45       0.0038
     47  CD       -10.8450   12.3200  -12.8620 C.3    45  LYS45       0.0206
     48  CE        -9.3370   12.0540  -12.8880 C.3    45  LYS45       0.1093
     49  NZ        -8.6670   12.3760  -14.1680 N.3    45  LYS45      -0.1314
     50  N         -1.4560   10.6290  -17.1320 N.3    62  GLU62      -0.1245
     51  CA        -1.9590   11.8710  -16.5930 C.3    62  GLU62       0.1567
     52  C         -1.1940   12.2660  -15.3180 C.2    62  GLU62       0.2260
     53  O         -0.8500   13.4210  -15.1120 O.2    62  GLU62      -0.2867
     54  CB        -3.4630   11.7940  -16.2990 C.3    62  GLU62       0.0388
     55  CG        -3.9470   13.0500  -15.5490 C.3    62  GLU62       0.1160
     56  CD        -5.4720   13.2180  -15.4390 C.2    62  GLU62       0.3649
     57  OE1       -6.0980   12.2440  -14.9370 O.co2  62  GLU62      -0.2457
     58  OE2       -6.0110   14.3470  -15.7960 O.co2  62  GLU62      -0.2457
     59  N         -3.8320   23.1820  -14.7880 N.3    75  ILE75      -0.1245
     60  CA        -4.3040   22.7470  -13.4580 C.3    75  ILE75       0.1561
     61  C         -3.2580   21.8130  -12.8280 C.2    75  ILE75       0.2260
     62  O         -2.7640   20.9140  -13.4790 O.2    75  ILE75      -0.2867
     63  CB        -5.6880   22.0550  -13.5710 C.3    75  ILE75       0.0252
     64  CG1       -6.3570   21.9430  -12.1940 C.3    75  ILE75       0.0019
     65  CG2       -5.5660   20.6950  -14.3020 C.3    75  ILE75       0.0019
     66  CD1       -6.6400   23.2570  -11.4820 C.3    75  ILE75       0.0001
     67  N         -7.5900   12.0040   -7.0280 N.3    94  ILE94      -0.1245
     68  CA        -6.7530   13.1390   -7.4110 C.3    94  ILE94       0.1561
     69  C         -7.3910   14.4280   -6.9550 C.2    94  ILE94       0.2260
     70  O         -8.5530   14.6420   -7.1920 O.2    94  ILE94      -0.2867
     71  CB        -6.5280   13.1650   -8.9160 C.3    94  ILE94       0.0252
     72  CG1       -5.8770   11.8460   -9.3530 C.3    94  ILE94       0.0019
     73  CG2       -5.6180   14.3240   -9.3220 C.3    94  ILE94       0.0019
     74  CD1       -5.4590   11.8750  -10.8120 C.3    94  ILE94       0.0001
     75  N         -7.3490   18.6490   -6.8620 N.3    96  GLN96      -0.1231
     76  CA        -6.9440   19.9220   -7.4820 C.3    96  GLN96       0.1698
     77  C         -7.6760   21.1200   -6.8820 C.2    96  GLN96       0.2592
     78  O         -8.7900   20.9800   -6.3470 O.2    96  GLN96      -0.2718
     79  CB        -7.3360   19.9250   -8.9650 C.3    96  GLN96       0.0381
     80  CG        -6.8510   18.7280   -9.7450 C.3    96  GLN96       0.0905
     81  CD        -7.2810   18.7280  -11.2290 C.2    96  GLN96       0.2608
     82  OE1       -8.3730   19.2030  -11.6060 O.2    96  GLN96      -0.2717
     83  NE2       -6.4430   18.1070  -12.0630 N.am   96  GLN96      -0.0878
     84  N         -7.1450   22.3260   -7.1120 N.am   97  ASP97      -0.1960
     85  CA        -7.8860   23.5570   -6.7850 C.3    97  ASP97       0.1840
     86  C         -9.1960   23.5990   -7.5190 C.2    97  ASP97       0.2622
     87  O         -9.3020   23.1580   -8.6480 O.2    97  ASP97      -0.2715
     88  CB        -7.0960   24.8220   -7.0760 C.3    97  ASP97       0.1450
     89  CG        -5.8780   24.9460   -6.2160 C.2    97  ASP97       0.3671
     90  OD1       -5.8780   24.4180   -5.1070 O.co2  97  ASP97      -0.2456
     91  OD2       -4.8800   25.5330   -6.6610 O.co2  97  ASP97      -0.2456
     92  N        -10.2160   24.0690   -6.8390 N.am   98  LEU98      -0.1963
     93  CA       -11.5380   24.0680   -7.4040 C.3    98  LEU98       0.1728
     94  C        -11.6590   25.3170   -8.2660 C.2    98  LEU98       0.2616
     95  O        -11.3820   26.3880   -7.8060 O.2    98  LEU98      -0.2715
     96  CB       -12.6030   24.1150   -6.3190 C.3    98  LEU98       0.0311
     97  CG       -14.0840   24.1280   -6.7310 C.3    98  LEU98       0.0022
     98  CD1      -14.5210   22.8360   -7.3770 C.3    98  LEU98       0.0001
     99  CD2      -14.9730   24.3810   -5.5220 C.3    98  LEU98       0.0001
    100  N        -12.0950   25.1540   -9.4900 N.am   99  MET99      -0.1977
    101  CA       -12.3010   26.2730  -10.4050 C.3    99  MET99       0.1605
    102  C        -13.7830   26.5760  -10.4220 C.2    99  MET99       0.2287
    103  O        -14.5680   25.7220  -10.0740 O.2    99  MET99      -0.2864
    104  CB       -11.7730   25.8980  -11.7970 C.3    99  MET99       0.0413
    105  CG       -10.2840   25.6210  -11.7770 C.3    99  MET99       0.0598
    106  SD        -9.2660   27.0540  -11.3790 S.3    99  MET99      -0.1393
    107  CE        -9.3420   27.8990  -12.9630 C.3    99  MET99       0.0692
    108  N        -10.9260   21.0340  -25.6440 N.3   142  LYS142     -0.1245
    109  CA       -12.2960   21.3820  -25.9710 C.3   142  LYS142      0.1561
    110  C        -12.8250   22.2760  -24.8890 C.2   142  LYS142      0.2260
    111  O        -12.2210   22.3830  -23.8210 O.2   142  LYS142     -0.2867
    112  CB       -13.1940   20.1530  -26.0790 C.3   142  LYS142      0.0271
    113  CG       -13.1330   19.2200  -24.8870 C.3   142  LYS142      0.0035
    114  CD       -14.0570   18.0360  -25.0900 C.3   142  LYS142      0.0206
    115  CE       -13.9410   17.0730  -23.9270 C.3   142  LYS142      0.1093
    116  NZ       -14.8100   15.9090  -24.2130 N.3   142  LYS142     -0.1314
    117  N        -15.0590   22.1730  -22.5490 N.3   144  SER144     -0.1202
    118  CA       -15.3260   21.6410  -21.2070 C.3   144  SER144      0.2020
    119  C        -14.0480   21.2770  -20.4560 C.2   144  SER144      0.2618
    120  O        -14.0900   21.1090  -19.2420 O.2   144  SER144     -0.2717
    121  CB       -16.2750   20.4570  -21.2810 C.3   144  SER144      0.2103
    122  OG       -15.6260   19.3940  -21.9460 O.3   144  SER144     -0.2182
    123  N        -12.9290   21.2030  -21.1770 N.am  145  ASN145     -0.1974
    124  CA       -11.5580   21.0490  -20.6200 C.3   145  ASN145      0.1688
    125  C        -10.8130   22.3310  -20.3500 C.2   145  ASN145      0.2292
    126  O         -9.6330   22.2900  -20.0490 O.2   145  ASN145     -0.2864
    127  CB       -10.6960   20.2010  -21.6130 C.3   145  ASN145      0.1181
    128  CG       -11.0930   18.7610  -21.5960 C.2   145  ASN145      0.2629
    129  OD1      -11.9000   18.3420  -20.7390 O.2   145  ASN145     -0.2716
    130  ND2      -10.5460   17.9810  -22.5030 N.am  145  ASN145     -0.0877
    131  N        -10.9070   25.3040  -17.8220 N.3   147  LEU147     -0.1245
    132  CA       -11.5080   25.7180  -16.5510 C.3   147  LEU147      0.1561
    133  C        -11.2230   27.1760  -16.3440 C.2   147  LEU147      0.2260
    134  O        -10.1280   27.6560  -16.6720 O.2   147  LEU147     -0.2867
    135  CB       -10.9090   24.9540  -15.3590 C.3   147  LEU147      0.0270
    136  CG       -10.9630   23.4220  -15.4380 C.3   147  LEU147      0.0019
    137  CD1      -10.4180   22.7670  -14.1740 C.3   147  LEU147      0.0001
    138  CD2      -12.3980   22.9680  -15.7190 C.3   147  LEU147      0.0001
    139  N         -7.1990   21.5500  -18.2690 N.3   157  CYS157     -0.1221
    140  CA        -7.2410   20.3270  -17.4610 C.3   157  CYS157      0.1808
    141  C         -7.4830   19.1480  -18.3660 C.2   157  CYS157      0.2601
    142  O         -7.5570   19.2930  -19.6140 O.2   157  CYS157     -0.2717
    143  CB        -8.3490   20.4080  -16.4080 C.3   157  CYS157      0.0970
    144  SG        -9.9870   20.2610  -17.0900 S.3   157  CYS157     -0.0800
    145  N         -7.5860   17.9780  -17.7420 N.am  158  ASP158     -0.1973
    146  CA        -7.9900   16.7050  -18.4000 C.3   158  ASP158      0.1709
    147  C         -6.9180   16.1570  -19.3160 C.2   158  ASP158      0.2293
    148  O         -7.0190   16.2030  -20.5500 O.2   158  ASP158     -0.2864
    149  CB        -9.3360   16.8070  -19.1250 C.3   158  ASP158      0.1436
    150  CG        -9.8430   15.4420  -19.6440 C.2   158  ASP158      0.3671
    151  OD1       -9.2880   14.3970  -19.2630 O.co2 158  ASP158     -0.2456
    152  OD2      -10.8090   15.4110  -20.4330 O.co2 158  ASP158     -0.2456
@<TRIPOS>BOND
     1   112   109    1
     2   112   113    1
     3   109   108    1
     4   109   110    1
     5   114   113    1
     6   114   115    1
     7   110   111    2
     8   116   115    1
     9   117   118    1
    10   130   128   am
    11   122   121    1
    12   127   128    1
    13   127   124    1
    14   128   129    2
    15   121   118    1
    16   118   119    1
    17   123   124    1
    18   123   119   am
    19   124   125    1
    20   148   147    2
    21   119   120    2
    22   152   150   ar
    23   125   126    2
    24   150   151   ar
    25   150   149    1
    26   142   141    2
    27   147   146    1
    28   149   146    1
    29   146   145    1
    30   141   145   am
    31   141   140    1
    32   139   140    1
    33   131   132    1
    34    16    18   ar
    35    16    14   ar
    36    18    19   ar
    37   140   143    1
    38     9    10    1
    39    50    51    1
    40   144   143    1
    41    13    14    1
    42    13    10    1
    43   134   133    2
    44    51    54    1
    45    51    52    1
    46    14    15   ar
    47   132   133    1
    48   132   135    1
    49    10    11    1
    50    54    55    1
    51    19    20    1
    52    19    17   ar
    53    58    56   ar
    54   138   136    1
    55    55    56    1
    56    56    57   ar
    57   136   135    1
    58   136   137    1
    59    15    17   ar
    60    52    53    2
    61    11    12    2
    62    59    60    1
    63    65    63    1
    64    49    48    1
    65    63    60    1
    66    63    64    1
    67    62    61    2
    68    60    61    1
    69   107   106    1
    70    48    47    1
    71    47    46    1
    72    64    66    1
    73    83    81   am
    74     4     3    2
    75   104   105    1
    76   104   101    1
    77    27    25    1
    78   105   106    1
    79    82    81    2
    80    46    45    1
    81     7     5    1
    82    81    80    1
    83     3     2    1
    84    74    72    1
    85    25    26    1
    86    25    22    1
    87   102   101    1
    88   102   103    2
    89   101   100    1
    90    45    42    1
    91    21    22    1
    92     5     2    1
    93     5     6    1
    94     2     1    1
    95    80    79    1
    96    22    23    1
    97   100    94   am
    98    72    71    1
    99    73    71    1
   100    42    43    1
   101    42    41    1
   102    79    76    1
   103    71    68    1
   104    24    23    2
   105     6     8    1
   106    87    86    2
   107    43    44    2
   108    94    95    2
   109    94    93    1
   110    32    29    1
   111    41    35   am
   112    86    92   am
   113    86    85    1
   114    76    77    1
   115    76    75    1
   116    68    67    1
   117    68    69    1
   118    93    92    1
   119    93    96    1
   120    36    35    2
   121    98    97    1
   122    35    34    1
   123    70    69    2
   124    84    77   am
   125    84    85    1
   126    88    85    1
   127    88    89    1
   128    77    78    2
   129    29    30    1
   130    29    28    1
   131    97    96    1
   132    97    99    1
   133    91    89   ar
   134    30    31    2
   135    30    33   am
   136    33    34    1
   137    34    37    1
   138    89    90   ar
   139    37    39    1
   140    37    38    1
   141    38    40    1
