@<TRIPOS>MOLECULE
tmp/5v61A01.pdb
 95 87 0 0 0
SMALL
GASTEIGER

@<TRIPOS>ATOM
      1  N        -20.1730   16.8420   -8.7270 N.3    22  ILE22      -0.1245
      2  CA       -20.0210   17.7340   -9.8980 C.3    22  ILE22       0.1561
      3  C        -20.3090   17.0300  -11.2040 C.2    22  ILE22       0.2260
      4  O        -21.0000   17.5680  -12.0490 O.2    22  ILE22      -0.2867
      5  CB       -18.6200   18.3150  -10.0020 C.3    22  ILE22       0.0252
      6  CG1      -18.3670   19.2620   -8.8280 C.3    22  ILE22       0.0019
      7  CG2      -18.4210   19.0420  -11.3440 C.3    22  ILE22       0.0019
      8  CD1      -16.9370   19.7360   -8.7530 C.3    22  ILE22       0.0001
      9  N        -16.2580   12.9370  -10.2410 N.3    30  VAL30      -0.1245
     10  CA       -15.7410   14.1710   -9.6440 C.3    30  VAL30       0.1561
     11  C        -16.7000   14.7910   -8.5970 C.2    30  VAL30       0.2260
     12  O        -17.9140   14.8630   -8.8490 O.2    30  VAL30      -0.2867
     13  CB       -15.4730   15.2180  -10.7320 C.3    30  VAL30       0.0252
     14  CG1      -14.8120   16.4650  -10.1620 C.3    30  VAL30       0.0019
     15  CG2      -14.5370   14.6460  -11.7810 C.3    30  VAL30       0.0019
     16  N        -11.0390   25.2570   -1.1260 N.3    41  ARG41      -0.1245
     17  CA       -11.9940   24.4080   -1.7720 C.3    41  ARG41       0.1563
     18  C        -11.2510   23.6190   -2.8260 C.2    41  ARG41       0.2260
     19  O        -10.3620   24.1400   -3.4600 O.2    41  ARG41      -0.2867
     20  CB       -13.1090   25.2250   -2.3790 C.3    41  ARG41       0.0307
     21  CG       -13.8220   26.1010   -1.3640 C.3    41  ARG41       0.0489
     22  CD       -15.0950   26.6790   -1.9630 C.3    41  ARG41       0.2205
     23  NE       -16.0630   25.6060   -2.1850 N.pl3  41  ARG41      -0.0865
     24  CZ       -17.1710   25.7020   -2.9150 C.cat  41  ARG41       0.5346
     25  NH1      -17.5080   26.8400   -3.5270 N.pl3  41  ARG41       0.1354
     26  NH2      -17.9400   24.6320   -3.0610 N.pl3  41  ARG41       0.1354
     27  N        -11.4520   20.2620   -5.9500 N.3    43  ALA43      -0.1245
     28  CA       -12.1070   19.2520   -6.7500 C.3    43  ALA43       0.1562
     29  C        -11.3700   17.9560   -6.5300 C.2    43  ALA43       0.2260
     30  O        -10.1380   17.9430   -6.4550 O.2    43  ALA43      -0.2867
     31  CB       -12.0400   19.6300   -8.2430 C.3    43  ALA43       0.0290
     32  N        -10.2160   24.0690   -6.8390 N.3    98  LEU98      -0.1231
     33  CA       -11.5380   24.0680   -7.4040 C.3    98  LEU98       0.1693
     34  C        -11.6590   25.3170   -8.2660 C.2    98  LEU98       0.2592
     35  O        -11.3820   26.3880   -7.8060 O.2    98  LEU98      -0.2718
     36  CB       -12.6030   24.1150   -6.3190 C.3    98  LEU98       0.0284
     37  CG       -14.0840   24.1280   -6.7310 C.3    98  LEU98       0.0019
     38  CD1      -14.5210   22.8360   -7.3770 C.3    98  LEU98       0.0001
     39  CD2      -14.9730   24.3810   -5.5220 C.3    98  LEU98       0.0001
     40  N        -12.0950   25.1540   -9.4900 N.am   99  MET99      -0.1965
     41  CA       -12.3010   26.2730  -10.4050 C.3    99  MET99       0.1736
     42  C        -13.7830   26.5760  -10.4220 C.2    99  MET99       0.2616
     43  O        -14.5680   25.7220  -10.0740 O.2    99  MET99      -0.2715
     44  CB       -11.7730   25.8980  -11.7970 C.3    99  MET99       0.0427
     45  CG       -10.2840   25.6210  -11.7770 C.3    99  MET99       0.0599
     46  SD        -9.2660   27.0540  -11.3790 S.3    99  MET99      -0.1393
     47  CE        -9.3420   27.8990  -12.9630 C.3    99  MET99       0.0692
     48  N        -14.1710   27.7950  -10.7790 N.am  100  GLU100     -0.1963
     49  CA       -15.5940   28.1310  -10.7400 C.3   100  GLU100      0.1733
     50  C        -16.4090   27.5490  -11.8660 C.2   100  GLU100      0.2617
     51  O        -17.5540   27.2400  -11.6840 O.2   100  GLU100     -0.2715
     52  CB       -15.7960   29.6300  -10.7580 C.3   100  GLU100      0.0429
     53  CG       -15.1900   30.3650   -9.5750 C.3   100  GLU100      0.1163
     54  CD       -15.4560   31.8560   -9.6720 C.2   100  GLU100      0.3649
     55  OE1      -16.6460   32.2390   -9.7050 O.co2 100  GLU100     -0.2457
     56  OE2      -14.4800   32.6400   -9.7410 O.co2 100  GLU100     -0.2457
     57  N        -15.8640   27.4640  -13.0610 N.am  101  THR101     -0.1937
     58  CA       -16.6710   27.0640  -14.2180 C.3   101  THR101      0.2028
     59  C        -15.7370   26.5700  -15.3030 C.2   101  THR101      0.2642
     60  O        -14.5460   26.4240  -15.0610 O.2   101  THR101     -0.2714
     61  CB       -17.5940   28.2360  -14.7040 C.3   101  THR101      0.1808
     62  OG1      -18.6620   27.7200  -15.4990 O.3   101  THR101     -0.2208
     63  CG2      -16.8430   29.3090  -15.4910 C.3   101  THR101      0.0379
     64  N        -16.2980   26.3030  -16.4670 N.am  102  ASP102     -0.1971
     65  CA       -15.5240   25.9760  -17.6480 C.3   102  ASP102      0.1709
     66  C        -16.0930   26.6900  -18.8820 C.2   102  ASP102      0.2293
     67  O        -17.1830   27.3120  -18.8410 O.2   102  ASP102     -0.2864
     68  CB       -15.4570   24.4530  -17.8510 C.3   102  ASP102      0.1436
     69  CG       -16.7930   23.8480  -18.1360 C.2   102  ASP102      0.3671
     70  OD1      -17.4860   24.3190  -19.0420 O.co2 102  ASP102     -0.2456
     71  OD2      -17.1570   22.8750  -17.4700 O.co2 102  ASP102     -0.2456
     72  N        -19.6470   25.6090  -20.1900 N.3   105  LYS105     -0.1245
     73  CA       -20.7440   26.1900  -19.4350 C.3   105  LYS105      0.1561
     74  C        -20.9110   27.6390  -19.7410 C.2   105  LYS105      0.2260
     75  O        -22.0130   28.1130  -19.9180 O.2   105  LYS105     -0.2867
     76  CB       -20.5170   26.0570  -17.9210 C.3   105  LYS105      0.0271
     77  CG       -20.6400   24.6350  -17.4530 C.3   105  LYS105      0.0035
     78  CD       -20.3210   24.4900  -15.9830 C.3   105  LYS105      0.0206
     79  CE       -20.5760   23.0500  -15.5820 C.3   105  LYS105      0.1093
     80  NZ       -20.0720   22.7980  -14.2040 N.3   105  LYS105     -0.1314
     81  N        -24.3960   30.2160  -21.6730 N.3   109  THR109     -0.1218
     82  CA       -25.1090   31.3010  -21.0110 C.3   109  THR109      0.1862
     83  C        -24.7120   32.7040  -21.4440 C.2   109  THR109      0.2287
     84  O        -25.3540   33.6460  -21.0420 O.2   109  THR109     -0.2866
     85  CB       -24.8300   31.2110  -19.5110 C.3   109  THR109      0.1770
     86  OG1      -23.4190   31.3460  -19.2800 O.3   109  THR109     -0.2211
     87  CG2      -25.2800   29.8630  -18.9780 C.3   109  THR109      0.0375
     88  N        -10.9070   25.3040  -17.8220 N.3   147  LEU147     -0.1245
     89  CA       -11.5080   25.7180  -16.5510 C.3   147  LEU147      0.1561
     90  C        -11.2230   27.1760  -16.3440 C.2   147  LEU147      0.2260
     91  O        -10.1280   27.6560  -16.6720 O.2   147  LEU147     -0.2867
     92  CB       -10.9090   24.9540  -15.3590 C.3   147  LEU147      0.0270
     93  CG       -10.9630   23.4220  -15.4380 C.3   147  LEU147      0.0019
     94  CD1      -10.4180   22.7670  -14.1740 C.3   147  LEU147      0.0001
     95  CD2      -12.3980   22.9680  -15.7190 C.3   147  LEU147      0.0001
@<TRIPOS>BOND
     1    81    82    1
     2    83    84    2
     3    83    82    1
     4    82    85    1
     5    72    73    1
     6    75    74    2
     7    74    73    1
     8    85    86    1
     9    85    87    1
    10    73    76    1
    11    70    69   ar
    12    66    67    2
    13    66    65    1
    14    69    68    1
    15    69    71   ar
    16    76    77    1
    17    68    65    1
    18    88    89    1
    19    65    64    1
    20    77    78    1
    21    91    90    2
    22    89    90    1
    23    89    92    1
    24    64    59   am
    25    78    79    1
    26    95    93    1
    27    79    80    1
    28    62    61    1
    29    63    61    1
    30    93    92    1
    31    93    94    1
    32    59    60    2
    33    59    58    1
    34    61    58    1
    35    58    57    1
    36    57    50   am
    37    47    46    1
    38     4     3    2
    39    50    51    2
    40    50    49    1
    41    44    45    1
    42    44    41    1
    43    15    13    1
    44    45    46    1
    45     7     5    1
    46     3     2    1
    47    48    49    1
    48    48    42   am
    49    52    49    1
    50    52    53    1
    51    13    14    1
    52    13    10    1
    53    42    41    1
    54    42    43    2
    55    41    40    1
    56     9    10    1
    57     5     2    1
    58     5     6    1
    59     2     1    1
    60    56    54   ar
    61    55    54   ar
    62    54    53    1
    63    10    11    1
    64    40    34   am
    65    12    11    2
    66     6     8    1
    67    34    35    2
    68    34    33    1
    69    31    28    1
    70    33    32    1
    71    33    36    1
    72    38    37    1
    73    28    29    1
    74    28    27    1
    75    37    36    1
    76    37    39    1
    77    29    30    2
    78    25    24    1
    79    19    18    2
    80    26    24    1
    81    24    23    2
    82    18    17    1
    83    20    17    1
    84    20    21    1
    85    23    22    1
    86    22    21    1
    87    17    16    1
