@<TRIPOS>MOLECULE
tmp/5v67A00.pdb
 128 126 0 0 0
SMALL
GASTEIGER

@<TRIPOS>ATOM
      1  N         17.1180    7.7330    7.2580 N.3    40  TRP40      -0.1228
      2  CA        17.3250    9.1120    7.7190 C.3    40  TRP40       0.1722
      3  C         16.1040   10.0530    7.6110 C.2    40  TRP40       0.2437
      4  O         15.8980   10.8810    8.5020 O.2    40  TRP40      -0.2733
      5  CB        18.5450    9.7430    7.0200 C.3    40  TRP40       0.0563
      6  CG        18.5010    9.9380    5.5310 C.ar   40  TRP40       0.0003
      7  CD1       18.9760    9.0860    4.5690 C.ar   40  TRP40       0.0946
      8  CD2       17.9890   11.0800    4.8300 C.ar   40  TRP40       0.0152
      9  NE1       18.7700    9.6110    3.3260 N.ar   40  TRP40      -0.2442
     10  CE2       18.1680   10.8370    3.4530 C.ar   40  TRP40       0.0810
     11  CE3       17.3990   12.2760    5.2350 C.ar   40  TRP40       0.0012
     12  CZ2       17.7740   11.7450    2.4800 C.ar   40  TRP40       0.0191
     13  CZ3       16.9940   13.1720    4.2750 C.ar   40  TRP40       0.0001
     14  CH2       17.1850   12.9040    2.9040 C.ar   40  TRP40       0.0015
     15  N         15.2710    9.9260    6.5720 N.am   41  PRO41      -0.2718
     16  CA        14.1210   10.8430    6.5750 C.3    41  PRO41       0.1535
     17  C         13.1170   10.5340    7.6930 C.2    41  PRO41       0.2599
     18  O         12.2660   11.3600    8.0220 O.2    41  PRO41      -0.2715
     19  CB        13.4870   10.6220    5.1910 C.3    41  PRO41       0.0310
     20  CG        14.5910    9.9840    4.3560 C.3    41  PRO41       0.0237
     21  CD        15.3000    9.0970    5.3500 C.3    41  PRO41       0.0939
     22  N         13.2540    9.3540    8.2860 N.am   42  PHE42      -0.1960
     23  CA        12.2750    8.8670    9.2590 C.3    42  PHE42       0.1771
     24  C         12.7920    8.8720   10.6920 C.2    42  PHE42       0.2619
     25  O         12.1000    8.3950   11.5950 O.2    42  PHE42      -0.2715
     26  CB        11.8300    7.4700    8.8410 C.3    42  PHE42       0.0574
     27  CG        11.2920    7.4300    7.4440 C.ar   42  PHE42      -0.0200
     28  CD1        9.9920    7.8160    7.1990 C.ar   42  PHE42      -0.0042
     29  CD2       12.0890    7.0410    6.3790 C.ar   42  PHE42      -0.0042
     30  CE1        9.4730    7.8120    5.9150 C.ar   42  PHE42      -0.0003
     31  CE2       11.5790    7.0110    5.0940 C.ar   42  PHE42      -0.0003
     32  CZ        10.2780    7.4060    4.8550 C.ar   42  PHE42      -0.0000
     33  N         13.9860    9.4270   10.9040 N.am   43  GLN43      -0.1963
     34  CA        14.6220    9.4330   12.2350 C.3    43  GLN43       0.1733
     35  C         14.2000   10.5970   13.1290 C.2    43  GLN43       0.2616
     36  O         14.6310   10.6920   14.2910 O.2    43  GLN43      -0.2715
     37  CB        16.1540    9.4300   12.0740 C.3    43  GLN43       0.0408
     38  CG        16.6890    8.0940   11.5880 C.3    43  GLN43       0.0908
     39  CD        18.1800    8.0880   11.2760 C.2    43  GLN43       0.2608
     40  OE1       18.7810    9.1120   10.9620 O.2    43  GLN43      -0.2717
     41  NE2       18.7800    6.9140   11.3530 N.am   43  GLN43      -0.0878
     42  N         13.3510   11.4770   12.6120 N.am   44  GLN44      -0.1977
     43  CA        12.9000   12.6330   13.3870 C.3    44  GLN44       0.1601
     44  C         11.5890   13.1260   12.8140 C.2    44  GLN44       0.2287
     45  O         11.2740   12.8230   11.6690 O.2    44  GLN44      -0.2864
     46  CB        13.9330   13.7660   13.3620 C.3    44  GLN44       0.0394
     47  CG        14.2750   14.2900   11.9730 C.3    44  GLN44       0.0908
     48  CD        15.1020   13.3210   11.1860 C.2    44  GLN44       0.2608
     49  OE1       16.1470   12.8520   11.6510 O.2    44  GLN44      -0.2717
     50  NE2       14.6430   13.0000    9.9820 N.am   44  GLN44      -0.0878
     51  N          8.8680   15.3710   10.9280 N.3    46  VAL46      -0.1245
     52  CA         8.9650   16.2060    9.7440 C.3    46  VAL46       0.1561
     53  C          9.0000   17.6640   10.2000 C.2    46  VAL46       0.2260
     54  O          8.0690   18.1430   10.8350 O.2    46  VAL46      -0.2867
     55  CB         7.7900   15.9480    8.7790 C.3    46  VAL46       0.0252
     56  CG1        7.7630   16.9860    7.6610 C.3    46  VAL46       0.0019
     57  CG2        7.9070   14.5580    8.1770 C.3    46  VAL46       0.0019
     58  N         11.3680   23.9530    8.0630 N.3    50  LYS50      -0.1231
     59  CA        12.6730   23.8300    7.4000 C.3    50  LYS50       0.1693
     60  C         12.5250   23.3810    5.9460 C.2    50  LYS50       0.2591
     61  O         13.2330   23.8680    5.0580 O.2    50  LYS50      -0.2718
     62  CB        13.5550   22.8490    8.1630 C.3    50  LYS50       0.0285
     63  CG        14.9510   22.6740    7.6070 C.3    50  LYS50       0.0035
     64  CD        15.8410   21.9750    8.6350 C.3    50  LYS50       0.0206
     65  CE        17.3220   22.0690    8.2760 C.3    50  LYS50       0.1093
     66  NZ        18.1900   22.0270    9.5030 N.3    50  LYS50      -0.1314
     67  N         11.6090   22.4480    5.7110 N.am   51  LEU51      -0.1980
     68  CA        11.4080   21.8800    4.3780 C.3    51  LEU51       0.1596
     69  C         10.5070   22.7630    3.5130 C.2    51  LEU51       0.2287
     70  O         10.2990   22.5030    2.3370 O.2    51  LEU51      -0.2864
     71  CB        10.8150   20.4820    4.5020 C.3    51  LEU51       0.0297
     72  CG        11.7190   19.4830    5.2200 C.3    51  LEU51       0.0022
     73  CD1       11.0020   18.1220    5.3140 C.3    51  LEU51       0.0001
     74  CD2       13.0510   19.3180    4.4820 C.3    51  LEU51       0.0001
     75  N          7.1940   23.1280    3.6830 N.3    53  LEU53      -0.1245
     76  CA         6.0150   22.3820    3.2920 C.3    53  LEU53       0.1561
     77  C          4.7850   22.7600    4.1200 C.2    53  LEU53       0.2260
     78  O          4.4220   22.0420    5.0600 O.2    53  LEU53      -0.2867
     79  CB         6.3040   20.8830    3.4380 C.3    53  LEU53       0.0270
     80  CG         7.4610   20.3860    2.5650 C.3    53  LEU53       0.0019
     81  CD1        7.7350   18.9170    2.8220 C.3    53  LEU53       0.0001
     82  CD2        7.1680   20.6230    1.0940 C.3    53  LEU53       0.0001
     83  N          1.9840   19.9880    4.6470 N.3    56  TYR56      -0.1241
     84  CA         2.2370   18.6700    5.2620 C.3    56  TYR56       0.1605
     85  C          1.3090   18.4190    6.4640 C.2    56  TYR56       0.2264
     86  O          0.6100   17.4200    6.4960 O.2    56  TYR56      -0.2867
     87  CB         3.7080   18.4950    5.6970 C.3    56  TYR56       0.0534
     88  CG         3.9620   17.0790    6.1970 C.ar   56  TYR56      -0.0201
     89  CD1        4.1640   16.0200    5.2990 C.ar   56  TYR56      -0.0009
     90  CD2        3.9460   16.7830    7.5460 C.ar   56  TYR56      -0.0009
     91  CE1        4.3530   14.7050    5.7460 C.ar   56  TYR56       0.0417
     92  CE2        4.1210   15.4730    7.9990 C.ar   56  TYR56       0.0417
     93  CZ         4.3410   14.4410    7.0910 C.ar   56  TYR56       0.1957
     94  OH         4.5160   13.1340    7.5310 O.3    56  TYR56      -0.2866
     95  N          3.5340    8.5530    5.0990 N.3    95  CYS95      -0.1235
     96  CA         4.3600    8.7110    3.9210 C.3    95  CYS95       0.1677
     97  C          3.5730    8.3600    2.6610 C.2    95  CYS95       0.2270
     98  O          3.6960    9.0400    1.6410 O.2    95  CYS95      -0.2867
     99  CB         5.6080    7.8460    4.0520 C.3    95  CYS95       0.0956
    100  SG         6.7760    8.0020    2.6900 S.3    95  CYS95      -0.0801
    101  N          0.9200   11.3440    1.8880 N.3    98  TYR98      -0.1227
    102  CA         1.3780   12.6460    1.4130 C.3    98  TYR98       0.1736
    103  C          2.0830   12.5630    0.0600 C.2    98  TYR98       0.2595
    104  O          1.9900   13.4860   -0.7440 O.2    98  TYR98      -0.2718
    105  CB         2.3050   13.2880    2.4420 C.3    98  TYR98       0.0548
    106  CG         2.7770   14.6830    2.0770 C.ar   98  TYR98      -0.0200
    107  CD1        1.9840   15.8030    2.3230 C.ar   98  TYR98      -0.0009
    108  CD2        4.0250   14.8790    1.5050 C.ar   98  TYR98      -0.0009
    109  CE1        2.4180   17.0820    1.9910 C.ar   98  TYR98       0.0417
    110  CE2        4.4750   16.1720    1.1600 C.ar   98  TYR98       0.0417
    111  CZ         3.6700   17.2680    1.4060 C.ar   98  TYR98       0.1957
    112  OH         4.1170   18.5560    1.0620 O.3    98  TYR98      -0.2866
    113  N          2.7770   11.4580   -0.1720 N.am   99  ASN99      -0.1974
    114  CA         3.6420   11.3060   -1.3410 C.3    99  ASN99       0.1688
    115  C          3.0590   10.3820   -2.4120 C.2    99  ASN99       0.2292
    116  O          2.4060    9.3920   -2.1050 O.2    99  ASN99      -0.2864
    117  CB         5.0170   10.7710   -0.9130 C.3    99  ASN99       0.1181
    118  CG         5.6800   11.6350    0.1460 C.2    99  ASN99       0.2629
    119  OD1        6.2440   12.7090   -0.1480 O.2    99  ASN99      -0.2716
    120  ND2        5.6100   11.1790    1.3990 N.am   99  ASN99      -0.0877
    121  N         10.8680    8.9680   -1.8090 N.3   105  ILE105     -0.1245
    122  CA        10.6290    8.7650   -0.3790 C.3   105  ILE105      0.1561
    123  C          9.7400    7.5600   -0.1320 C.2   105  ILE105      0.2260
    124  O          9.8640    6.8920    0.9040 O.2   105  ILE105     -0.2867
    125  CB         9.9870   10.0250    0.2700 C.3   105  ILE105      0.0252
    126  CG1        9.9370    9.9080    1.7980 C.3   105  ILE105      0.0019
    127  CG2        8.5930   10.2710   -0.2690 C.3   105  ILE105      0.0019
    128  CD1       11.1840   10.3000    2.4890 C.3   105  ILE105      0.0001
@<TRIPOS>BOND
     1   115   116    2
     2   115   114    1
     3   121   122    1
     4   114   117    1
     5   114   113    1
     6   117   118    1
     7   104   103    2
     8   122   123    1
     9   122   125    1
    10   127   125    1
    11   113   103   am
    12   119   118    2
    13   123   124    2
    14   103   102    1
    15   118   120   am
    16   125   126    1
    17   112   111    1
    18    82    80    1
    19   110   111   ar
    20   110   108   ar
    21   111   109   ar
    22   102   101    1
    23   102   105    1
    24   108   106   ar
    25    98    97    2
    26   126   128    1
    27   109   107   ar
    28   106   107   ar
    29   106   105    1
    30    70    69    2
    31    12    14   ar
    32    12    10   ar
    33    80    81    1
    34    80    79    1
    35    97    96    1
    36   100    99    1
    37    14    13   ar
    38    76    79    1
    39    76    75    1
    40    76    77    1
    41     9    10   ar
    42     9     7   ar
    43    10     8   ar
    44    69    68    1
    45    96    99    1
    46    96    95    1
    47    77    78    2
    48    13    11   ar
    49    20    19    1
    50    20    21    1
    51    68    71    1
    52    68    67    1
    53    74    72    1
    54    71    72    1
    55     7     6   ar
    56    83    84    1
    57     8    11   ar
    58     8     6   ar
    59    32    31   ar
    60    32    30   ar
    61    61    60    2
    62    31    29   ar
    63    19    16    1
    64    72    73    1
    65    84    87    1
    66    84    85    1
    67    89    91   ar
    68    89    88   ar
    69    21    15    1
    70     6     5    1
    71    87    88    1
    72    67    60   am
    73    91    93   ar
    74    30    28   ar
    75    60    59    1
    76    88    90   ar
    77    29    27   ar
    78    85    86    2
    79    15    16    1
    80    15     3   am
    81    16    17    1
    82     5     2    1
    83    93    94    1
    84    93    92   ar
    85    28    27   ar
    86     1     2    1
    87    59    58    1
    88    59    62    1
    89    27    26    1
    90    90    92   ar
    91    63    62    1
    92    63    64    1
    93     3     2    1
    94     3     4    2
    95    56    55    1
    96    17    18    2
    97    17    22   am
    98    57    55    1
    99    65    64    1
   100    65    66    1
   101    22    23    1
   102    55    52    1
   103    26    23    1
   104    23    24    1
   105    52    53    1
   106    52    51    1
   107    50    48   am
   108    53    54    2
   109    24    33   am
   110    24    25    2
   111    33    34    1
   112    40    39    2
   113    48    49    2
   114    48    47    1
   115    39    41   am
   116    39    38    1
   117    38    37    1
   118    45    44    2
   119    47    46    1
   120    37    34    1
   121    34    35    1
   122    42    35   am
   123    42    43    1
   124    44    43    1
   125    35    36    2
   126    46    43    1
