@<TRIPOS>MOLECULE
tmp/5v68E00.pdb
 174 164 0 0 0
SMALL
GASTEIGER

@<TRIPOS>ATOM
      1  N         -2.5870   38.6370   46.1110 N.3    10  GLY10      -0.1210
      2  CA        -2.9910   39.3770   47.3150 C.3    10  GLY10       0.1956
      3  C         -4.3580   40.0010   47.1180 C.2    10  GLY10       0.2612
      4  O         -4.7010   40.3840   46.0190 O.2    10  GLY10      -0.2717
      5  N         -5.1380   40.1140   48.1830 N.am   11  GLY11      -0.1942
      6  CA        -6.5200   40.6150   48.1020 C.3    11  GLY11       0.2014
      7  C         -6.7010   41.9730   47.4270 C.2    11  GLY11       0.2639
      8  O         -7.7660   42.2610   46.8560 O.2    11  GLY11      -0.2714
      9  N         -5.6660   42.8130   47.5170 N.am   12  GLY12      -0.1939
     10  CA        -5.6080   44.0740   46.7870 C.3    12  GLY12       0.2014
     11  C         -5.3970   43.7740   45.3220 C.2    12  GLY12       0.2639
     12  O         -6.2940   44.0130   44.5080 O.2    12  GLY12      -0.2714
     13  N         -4.2340   43.1920   45.0070 N.am   13  GLY13      -0.1954
     14  CA        -3.9220   42.7020   43.6590 C.3    13  GLY13       0.1869
     15  C         -5.0190   41.8360   43.0460 C.2    13  GLY13       0.2309
     16  O         -5.1680   41.8100   41.8290 O.2    13  GLY13      -0.2863
     17  N         -8.3550   42.2860   43.9350 N.3    15  ASN15      -0.1240
     18  CA        -9.4560   43.2160   43.6650 C.3    15  ASN15       0.1653
     19  C         -9.1090   44.2420   42.5500 C.2    15  ASN15       0.2266
     20  O        -10.0020   44.8610   41.9530 O.2    15  ASN15      -0.2867
     21  CB        -9.9160   43.8990   44.9590 C.3    15  ASN15       0.1155
     22  CG       -11.4120   44.1270   44.9870 C.2    15  ASN15       0.2627
     23  OD1      -12.1170   43.5440   45.8080 O.2    15  ASN15      -0.2716
     24  ND2      -11.9080   44.9560   44.0720 N.am   15  ASN15      -0.0877
     25  N         -4.6470   33.9520   45.6030 N.3    34  ASN34      -0.1225
     26  CA        -4.8800   34.3680   47.0070 C.3    34  ASN34       0.1785
     27  C         -4.6310   33.1900   47.9760 C.2    34  ASN34       0.2597
     28  O         -4.3830   32.0500   47.5560 O.2    34  ASN34      -0.2718
     29  CB        -6.3160   34.9320   47.1900 C.3    34  ASN34       0.1169
     30  CG        -6.4700   35.8470   48.4190 C.2    34  ASN34       0.2627
     31  OD1       -5.5050   36.1210   49.1410 O.2    34  ASN34      -0.2716
     32  ND2       -7.6980   36.3060   48.6690 N.am   34  ASN34      -0.0877
     33  N         -4.6550   33.5090   49.2690 N.am   35  THR35      -0.1953
     34  CA        -4.6690   32.5360   50.3570 C.3    35  THR35       0.1897
     35  C         -6.1000   32.0340   50.6800 C.2    35  THR35       0.2313
     36  O         -6.3660   30.8290   50.6270 O.2    35  THR35      -0.2863
     37  CB        -4.0370   33.1620   51.6210 C.3    35  THR35       0.1794
     38  OG1       -4.6320   34.4430   51.8780 O.3    35  THR35      -0.2208
     39  CG2       -2.5360   33.3470   51.4400 C.3    35  THR35       0.0378
     40  N         -1.0130   34.6620   54.8150 N.3    54  ALA54      -0.1231
     41  CA        -2.1170   35.5390   55.2040 C.3    54  ALA54       0.1694
     42  C         -1.9580   36.0480   56.6380 C.2    54  ALA54       0.2593
     43  O         -1.0700   35.6020   57.3660 O.2    54  ALA54      -0.2718
     44  CB        -3.4490   34.8180   55.0390 C.3    54  ALA54       0.0304
     45  N         -2.8230   36.9800   57.0300 N.am   55  GLY55      -0.1942
     46  CA        -2.7620   37.5920   58.3550 C.3    55  GLY55       0.2014
     47  C         -1.5290   38.4640   58.5510 C.2    55  GLY55       0.2638
     48  O         -0.8150   38.3190   59.5520 O.2    55  GLY55      -0.2714
     49  N         -1.2810   39.3570   57.5860 N.am   56  ALA56      -0.1977
     50  CA        -0.1810   40.3420   57.6320 C.3    56  ALA56       0.1597
     51  C          1.1910   39.7170   57.8490 C.2    56  ALA56       0.2287
     52  O          2.0260   40.2890   58.5460 O.2    56  ALA56      -0.2864
     53  CB        -0.4580   41.3910   58.7060 C.3    56  ALA56       0.0319
     54  N         -0.8370   44.4920   46.1660 N.3    87  GLY87      -0.1210
     55  CA        -0.8570   45.4880   47.2360 C.3    87  GLY87       0.1956
     56  C          0.2540   45.1840   48.2310 C.2    87  GLY87       0.2612
     57  O          0.1750   44.1890   48.9580 O.2    87  GLY87      -0.2717
     58  N          1.2960   46.0220   48.2520 N.am   88  GLU88      -0.1965
     59  CA         2.4280   45.8410   49.1670 C.3    88  GLU88       0.1733
     60  C          2.0440   46.4140   50.5290 C.2    88  GLU88       0.2617
     61  O          1.8000   47.6230   50.6540 O.2    88  GLU88      -0.2715
     62  CB         3.6930   46.5250   48.6400 C.3    88  GLU88       0.0429
     63  CG         4.2360   45.9500   47.3380 C.3    88  GLU88       0.1163
     64  CD         5.0650   44.6780   47.5090 C.2    88  GLU88       0.3649
     65  OE1        6.1470   44.7450   48.1210 O.co2  88  GLU88      -0.2457
     66  OE2        4.6610   43.6130   46.9940 O.co2  88  GLU88      -0.2457
     67  N          1.9900   45.5320   51.5330 N.am   89  GLY89      -0.1940
     68  CA         1.5120   45.8570   52.8900 C.3    89  GLY89       0.2014
     69  C          0.8740   44.7050   53.6620 C.2    89  GLY89       0.2639
     70  O          0.9350   44.6800   54.8870 O.2    89  GLY89      -0.2714
     71  N          0.2820   43.7420   52.9590 N.am   90  GLY90      -0.1939
     72  CA        -0.3140   42.5700   53.5890 C.3    90  GLY90       0.2014
     73  C          0.7440   41.5090   53.8480 C.2    90  GLY90       0.2639
     74  O          1.8790   41.8270   54.2190 O.2    90  GLY90      -0.2714
     75  N          0.3610   40.2460   53.6740 N.am   91  GLY91      -0.1939
     76  CA         1.2900   39.1070   53.7130 C.3    91  GLY91       0.2014
     77  C          1.3050   38.2850   52.4330 C.2    91  GLY91       0.2640
     78  O          2.3790   37.9290   51.9260 O.2    91  GLY91      -0.2714
     79  N          0.1080   37.9550   51.9430 N.am   92  THR92      -0.1936
     80  CA        -0.0880   37.2250   50.6850 C.3    92  THR92       0.2028
     81  C          0.7230   37.8240   49.5260 C.2    92  THR92       0.2642
     82  O          1.6700   37.1960   49.0380 O.2    92  THR92      -0.2714
     83  CB        -1.5930   37.1620   50.2960 C.3    92  THR92       0.1808
     84  OG1       -2.3900   36.8540   51.4510 O.3    92  THR92      -0.2208
     85  CG2       -1.8420   36.1290   49.2040 C.3    92  THR92       0.0379
     86  N          0.3670   39.0470   49.1310 N.am   93  GLY93      -0.1954
     87  CA         0.9820   39.7260   47.9930 C.3    93  GLY93       0.1869
     88  C          2.3440   40.3200   48.2970 C.2    93  GLY93       0.2309
     89  O          3.2260   40.3030   47.4440 O.2    93  GLY93      -0.2863
     90  N          1.3680   48.7590   44.5820 N.3   116  THR116     -0.1218
     91  CA         0.9520   49.9440   45.3640 C.3   116  THR116      0.1862
     92  C          1.4910   49.9900   46.8180 C.2   116  THR116      0.2287
     93  O          1.2890   49.0500   47.5960 O.2   116  THR116     -0.2866
     94  CB        -0.5920   50.1300   45.3220 C.3   116  THR116      0.1770
     95  OG1       -0.9210   51.5120   45.4740 O.3   116  THR116     -0.2211
     96  CG2       -1.3100   49.3360   46.3900 C.3   116  THR116      0.0375
     97  N          1.3940   51.2690   50.6890 N.3   118  PRO118     -0.2102
     98  CA         0.2320   51.3210   51.5810 C.3   118  PRO118      0.1504
     99  C         -0.0120   52.7240   52.0830 C.2   118  PRO118      0.2575
    100  O          0.9480   53.4940   52.2030 O.2   118  PRO118     -0.2718
    101  CB         0.6750   50.4590   52.7390 C.3   118  PRO118      0.0282
    102  CG         2.1350   50.7570   52.8440 C.3   118  PRO118      0.0208
    103  CD         2.6270   50.9870   51.4450 C.3   118  PRO118      0.0893
    104  N         -1.2680   53.0550   52.3870 N.am  119  PHE119     -0.1977
    105  CA        -1.5990   54.4100   52.8480 C.3   119  PHE119      0.1639
    106  C         -0.7690   54.7430   54.0770 C.2   119  PHE119      0.2290
    107  O         -0.4050   53.8420   54.8340 O.2   119  PHE119     -0.2864
    108  CB        -3.0780   54.5450   53.1840 C.3   119  PHE119      0.0560
    109  CG        -3.9520   54.7140   51.9910 C.ar  119  PHE119     -0.0200
    110  CD1       -4.4100   53.6070   51.2920 C.ar  119  PHE119     -0.0042
    111  CD2       -4.3300   55.9890   51.5670 C.ar  119  PHE119     -0.0042
    112  CE1       -5.2290   53.7670   50.1850 C.ar  119  PHE119     -0.0003
    113  CE2       -5.1520   56.1570   50.4620 C.ar  119  PHE119     -0.0003
    114  CZ        -5.6010   55.0410   49.7670 C.ar  119  PHE119     -0.0000
    115  N         -1.9550   53.4930   57.5620 N.3   122  GLU122     -0.1245
    116  CA        -1.9170   52.0660   57.8330 C.3   122  GLU122      0.1567
    117  C         -0.8850   51.7840   58.9160 C.2   122  GLU122      0.2260
    118  O         -0.8480   50.6840   59.4690 O.2   122  GLU122     -0.2867
    119  CB        -1.5560   51.2860   56.5620 C.3   122  GLU122      0.0388
    120  CG        -2.3830   51.6240   55.3180 C.3   122  GLU122      0.1160
    121  CD        -3.7030   50.8940   55.2380 C.2   122  GLU122      0.3649
    122  OE1       -3.7000   49.7380   54.7510 O.co2 122  GLU122     -0.2457
    123  OE2       -4.7350   51.4910   55.6330 O.co2 122  GLU122     -0.2457
    124  N          2.8760   48.1540   58.8780 N.3   126  ARG126     -0.1245
    125  CA         2.3700   47.8640   57.5420 C.3   126  ARG126      0.1563
    126  C          3.2230   48.5680   56.4810 C.2   126  ARG126      0.2260
    127  O          3.6940   47.9320   55.5390 O.2   126  ARG126     -0.2867
    128  CB         0.8990   48.2480   57.3990 C.3   126  ARG126      0.0307
    129  CG         0.2280   47.4150   56.3240 C.3   126  ARG126      0.0489
    130  CD        -1.2880   47.5060   56.3140 C.3   126  ARG126      0.2205
    131  NE        -1.8880   46.2780   55.7880 N.pl3 126  ARG126     -0.0865
    132  CZ        -3.1940   46.0660   55.6500 C.cat 126  ARG126      0.5346
    133  NH1       -4.0860   47.0040   55.9810 N.pl3 126  ARG126      0.1354
    134  NH2       -3.6110   44.9000   55.1640 N.pl3 126  ARG126      0.1354
    135  N         -0.1460   55.2150   46.7750 N.3   149  ASN149     -0.1240
    136  CA        -1.5520   55.6770   46.9720 C.3   149  ASN149      0.1653
    137  C         -1.6920   56.6270   48.1680 C.2   149  ASN149      0.2266
    138  O         -2.7160   57.2980   48.3310 O.2   149  ASN149     -0.2867
    139  CB        -2.6300   54.5500   46.9760 C.3   149  ASN149      0.1155
    140  CG        -2.3330   53.3970   47.9250 C.2   149  ASN149      0.2627
    141  OD1       -2.4320   52.2270   47.5390 O.2   149  ASN149     -0.2716
    142  ND2       -2.0050   53.7090   49.1670 N.am  149  ASN149     -0.0877
    143  N         -9.5720   52.5780   48.2770 N.3   166  PHE166     -0.1241
    144  CA        -9.0130   51.3590   47.6640 C.3   166  PHE166      0.1605
    145  C         -9.6340   51.0570   46.3060 C.2   166  PHE166      0.2264
    146  O         -9.1160   50.2170   45.5700 O.2   166  PHE166     -0.2867
    147  CB        -9.1240   50.1490   48.6020 C.3   166  PHE166      0.0534
    148  CG        -8.2430   50.2630   49.8110 C.ar  166  PHE166     -0.0203
    149  CD1       -6.8580   50.1930   49.6780 C.ar  166  PHE166     -0.0042
    150  CD2       -8.7800   50.4890   51.0750 C.ar  166  PHE166     -0.0042
    151  CE1       -6.0240   50.3220   50.7800 C.ar  166  PHE166     -0.0003
    152  CE2       -7.9500   50.6210   52.1830 C.ar  166  PHE166     -0.0003
    153  CZ        -6.5670   50.5390   52.0340 C.ar  166  PHE166     -0.0000
    154  N         -7.0570   52.9440   44.2620 N.3   169  ALA169     -0.1231
    155  CA        -5.8340   52.1270   44.1750 C.3   169  ALA169      0.1694
    156  C         -5.9370   50.9930   43.1420 C.2   169  ALA169      0.2592
    157  O         -4.9290   50.5540   42.5790 O.2   169  ALA169     -0.2718
    158  CB        -5.4680   51.5600   45.5450 C.3   169  ALA169      0.0304
    159  N         -7.1440   50.4860   42.9200 N.am  170  ASP170     -0.1974
    160  CA        -7.3570   49.5810   41.8060 C.3   170  ASP170      0.1709
    161  C         -7.0700   50.3910   40.5460 C.2   170  ASP170      0.2293
    162  O         -6.1620   50.0530   39.7740 O.2   170  ASP170     -0.2864
    163  CB        -8.7860   49.0200   41.7800 C.3   170  ASP170      0.1436
    164  CG        -9.0920   48.1000   42.9580 C.2   170  ASP170      0.3671
    165  OD1       -8.2600   47.2070   43.2500 O.co2 170  ASP170     -0.2456
    166  OD2      -10.1750   48.2700   43.5730 O.co2 170  ASP170     -0.2456
    167  N         -3.5990   51.1180   39.7930 N.3   173  LEU173     -0.1245
    168  CA        -2.9260   49.8710   39.3740 C.3   173  LEU173      0.1561
    169  C         -3.2950   49.4640   37.9490 C.2   173  LEU173      0.2260
    170  O         -2.4290   48.9700   37.2080 O.2   173  LEU173     -0.2867
    171  CB        -3.2150   48.6970   40.3280 C.3   173  LEU173      0.0270
    172  CG        -2.2740   48.4410   41.5060 C.3   173  LEU173      0.0019
    173  CD1       -2.7900   47.2450   42.2940 C.3   173  LEU173      0.0001
    174  CD2       -0.8550   48.2100   41.0350 C.3   173  LEU173      0.0001
@<TRIPOS>BOND
     1   170   169    2
     2   169   168    1
     3   168   167    1
     4   168   171    1
     5   162   161    2
     6   171   172    1
     7   161   160    1
     8   174   172    1
     9   172   173    1
    10   163   160    1
    11   163   164    1
    12   160   159    1
    13    16    15    2
    14    20    19    2
    15    19    18    1
    16   157   156    2
    17   159   156   am
    18   164   165   ar
    19   164   166   ar
    20    15    14    1
    21   156   155    1
    22    14    13    1
    23    18    17    1
    24    18    21    1
    25    24    22   am
    26   155   154    1
    27   155   158    1
    28    12    11    2
    29    90    91    1
    30    21    22    1
    31    22    23    2
    32    13    11   am
    33    11    10    1
    34    94    91    1
    35    94    95    1
    36    94    96    1
    37    91    92    1
    38   146   145    2
    39    25    26    1
    40     4     3    2
    41     1     2    1
    42    54    55    1
    43   145   144    1
    44   135   136    1
    45    10     9    1
    46    92    93    2
    47     8     7    2
    48   136   139    1
    49   136   137    1
    50   139   140    1
    51    66    64   ar
    52    26    29    1
    53    26    27    1
    54     3     2    1
    55     3     5   am
    56    29    30    1
    57    55    56    1
    58    63    64    1
    59    63    62    1
    60     7     9   am
    61     7     6    1
    62    89    88    2
    63    64    65   ar
    64   141   140    2
    65    28    27    2
    66   144   143    1
    67   144   147    1
    68   140   142   am
    69    27    33   am
    70    87    88    1
    71    87    86    1
    72     6     5    1
    73   137   138    2
    74    56    58   am
    75    56    57    2
    76    58    59    1
    77    30    32   am
    78    30    31    2
    79   147   148    1
    80    62    59    1
    81    82    81    2
    82    86    81   am
    83    59    60    1
    84    85    83    1
    85    33    34    1
    86    81    80    1
    87   149   148   ar
    88   149   151   ar
    89   114   112   ar
    90   114   113   ar
    91   148   150   ar
    92   112   110   ar
    93    83    80    1
    94    83    84    1
    95    34    35    1
    96    34    37    1
    97   113   111   ar
    98    60    61    2
    99    60    67   am
   100    36    35    2
   101    80    79    1
   102    97   103    1
   103    97    98    1
   104   151   153   ar
   105   150   152   ar
   106   110   109   ar
   107    39    37    1
   108   103   102    1
   109    67    68    1
   110   111   109   ar
   111    98    99    1
   112    98   101    1
   113    37    38    1
   114    78    77    2
   115    79    77   am
   116   109   108    1
   117   153   152   ar
   118    99   100    2
   119    99   104   am
   120   104   105    1
   121    77    76    1
   122   101   102    1
   123   105   108    1
   124   105   106    1
   125    68    69    1
   126    71    72    1
   127    71    69   am
   128    72    73    1
   129    69    70    2
   130    75    76    1
   131    75    73   am
   132    73    74    2
   133   106   107    2
   134   122   121   ar
   135    40    41    1
   136    44    41    1
   137   134   132    1
   138    41    42    1
   139   121   120    1
   140   121   123   ar
   141   120   119    1
   142   127   126    2
   143   132   131    2
   144   132   133    1
   145   131   130    1
   146   130   129    1
   147   129   128    1
   148   126   125    1
   149   119   116    1
   150    42    45   am
   151    42    43    2
   152    45    46    1
   153   128   125    1
   154   125   124    1
   155   115   116    1
   156    49    50    1
   157    49    47   am
   158    50    51    1
   159    50    53    1
   160   116   117    1
   161    51    52    2
   162    46    47    1
   163    47    48    2
   164   117   118    2
