@<TRIPOS>MOLECULE
tmp/5v6aA00.pdb
 84 79 0 0 0
SMALL
GASTEIGER

@<TRIPOS>ATOM
      1  N         -6.8390  -25.6050   28.3960 N.3   271  GLN271     -0.1245
      2  CA        -5.4690  -25.7200   28.8740 C.3   271  GLN271      0.1566
      3  C         -4.7780  -24.3640   28.8230 C.2   271  GLN271      0.2260
      4  O         -4.9010  -23.6280   27.8400 O.2   271  GLN271     -0.2867
      5  CB        -4.6840  -26.7380   28.0440 C.3   271  GLN271      0.0367
      6  CG        -5.0630  -28.1890   28.2200 C.3   271  GLN271      0.0905
      7  CD        -4.5500  -28.7160   29.5440 C.2   271  GLN271      0.2608
      8  OE1       -3.3520  -28.8700   29.7550 O.2   271  GLN271     -0.2717
      9  NE2       -5.3720  -29.0020   30.5240 N.am  271  GLN271     -0.0878
     10  N         -9.1120  -28.4000   24.0840 N.3   281  VAL281     -0.1245
     11  CA        -8.9750  -29.7950   23.6770 C.3   281  VAL281      0.1561
     12  C        -10.3110  -30.4900   23.8950 C.2   281  VAL281      0.2260
     13  O        -10.9130  -30.3670   24.9660 O.2   281  VAL281     -0.2867
     14  CB        -7.8620  -30.5240   24.4570 C.3   281  VAL281      0.0252
     15  CG1       -7.8340  -32.0010   24.0860 C.3   281  VAL281      0.0019
     16  CG2       -6.5080  -29.8830   24.1950 C.3   281  VAL281      0.0019
     17  N         -8.3080  -37.8920   23.6320 N.3   292  LYS292     -0.1245
     18  CA        -8.0870  -36.4520   23.5760 C.3   292  LYS292      0.1561
     19  C         -7.8520  -36.0430   22.1250 C.2   292  LYS292      0.2260
     20  O         -6.7780  -36.2900   21.5670 O.2   292  LYS292     -0.2867
     21  CB        -6.9080  -36.0540   24.4600 C.3   292  LYS292      0.0271
     22  CG        -7.1040  -36.4050   25.9120 C.3   292  LYS292      0.0035
     23  CD        -5.7760  -36.7330   26.5920 C.3   292  LYS292      0.0206
     24  CE        -4.7530  -35.6370   26.4230 C.3   292  LYS292      0.1093
     25  NZ        -3.4850  -35.9600   27.1320 N.3   292  LYS292     -0.1314
     26  N         -6.8930  -33.3710   20.0680 N.3   294  ASP294     -0.1239
     27  CA        -6.2160  -32.0850   20.2250 C.3   294  ASP294      0.1674
     28  C         -5.9410  -31.4690   18.8530 C.2   294  ASP294      0.2266
     29  O         -4.8030  -31.3660   18.3920 O.2   294  ASP294     -0.2867
     30  CB        -4.9330  -32.2610   21.0340 C.3   294  ASP294      0.1410
     31  CG        -4.3180  -30.9390   21.4530 C.2   294  ASP294      0.3668
     32  OD1       -4.8350  -29.8800   21.0430 O.co2 294  ASP294     -0.2456
     33  OD2       -3.3160  -30.9590   22.1990 O.co2 294  ASP294     -0.2456
     34  N         -4.7450  -33.9840   16.1300 N.3   297  THR297     -0.1218
     35  CA        -4.0080  -35.0570   16.7780 C.3   297  THR297      0.1862
     36  C         -4.9090  -35.7930   17.7630 C.2   297  THR297      0.2287
     37  O         -5.8690  -35.2320   18.2970 O.2   297  THR297     -0.2866
     38  CB        -2.7780  -34.5130   17.5080 C.3   297  THR297      0.1770
     39  OG1       -3.1890  -33.8360   18.7030 O.3   297  THR297     -0.2211
     40  CG2       -2.0200  -33.5390   16.6170 C.3   297  THR297      0.0375
     41  N         -4.8710  -38.5790   21.1800 N.3   299  SER299     -0.1202
     42  CA        -4.1100  -39.1870   22.2620 C.3   299  SER299      0.2020
     43  C         -5.0410  -40.0440   23.1070 C.2   299  SER299      0.2619
     44  O         -6.2680  -39.9420   23.0180 O.2   299  SER299     -0.2717
     45  CB        -3.4210  -38.1350   23.1390 C.3   299  SER299      0.2103
     46  OG        -2.5010  -37.3620   22.3890 O.3   299  SER299     -0.2182
     47  N         -4.4390  -40.8960   23.9350 N.am  300  LYS300     -0.1965
     48  CA        -5.1910  -41.7810   24.8160 C.3   300  LYS300      0.1728
     49  C         -4.5090  -41.8430   26.1730 C.2   300  LYS300      0.2616
     50  O         -3.2960  -42.0580   26.2510 O.2   300  LYS300     -0.2715
     51  CB        -5.3150  -43.1890   24.2210 C.3   300  LYS300      0.0311
     52  CG        -6.2270  -43.2750   23.0090 C.3   300  LYS300      0.0038
     53  CD        -6.3890  -44.7130   22.5460 C.3   300  LYS300      0.0206
     54  CE        -7.3110  -44.8100   21.3420 C.3   300  LYS300      0.1093
     55  NZ        -7.5050  -46.2210   20.9080 N.3   300  LYS300     -0.1314
     56  N         -5.2900  -41.6500   27.2340 N.am  301  THR301     -0.1951
     57  CA        -4.7810  -41.7470   28.5940 C.3   301  THR301      0.1897
     58  C         -5.8960  -42.2430   29.5020 C.2   301  THR301      0.2313
     59  O         -7.0750  -41.9650   29.2700 O.2   301  THR301     -0.2863
     60  CB        -4.2480  -40.4040   29.1100 C.3   301  THR301      0.1794
     61  OG1       -3.7800  -39.6140   28.0110 O.3   301  THR301     -0.2208
     62  CG2       -3.0970  -40.6310   30.0780 C.3   301  THR301      0.0378
     63  N         -5.9030  -41.5120   32.8510 N.3   303  ASP303     -0.1225
     64  CA        -6.1350  -40.4330   33.7980 C.3   303  ASP303      0.1805
     65  C         -5.6520  -39.1210   33.1970 C.2   303  ASP303      0.2597
     66  O         -4.7740  -39.0970   32.3310 O.2   303  ASP303     -0.2718
     67  CB        -5.4250  -40.6880   35.1360 C.3   303  ASP303      0.1424
     68  CG        -5.5180  -42.1340   35.5800 C.2   303  ASP303      0.3668
     69  OD1       -4.4740  -42.8190   35.5990 O.co2 303  ASP303     -0.2456
     70  OD2       -6.6360  -42.5900   35.8970 O.co2 303  ASP303     -0.2456
     71  N         -6.2380  -38.0220   33.6710 N.am  304  TRP304     -0.1976
     72  CA        -5.8830  -36.6980   33.1750 C.3   304  TRP304      0.1640
     73  C         -6.3860  -35.6050   34.1100 C.2   304  TRP304      0.2290
     74  O         -7.5950  -35.4690   34.3200 O.2   304  TRP304     -0.2864
     75  CB        -6.4520  -36.4860   31.7680 C.3   304  TRP304      0.0576
     76  CG        -5.9790  -35.2270   31.1020 C.ar  304  TRP304      0.0006
     77  CD1       -4.9080  -34.4600   31.4590 C.ar  304  TRP304      0.0946
     78  CD2       -6.5680  -34.5880   29.9620 C.ar  304  TRP304      0.0152
     79  NE1       -4.7920  -33.3840   30.6110 N.ar  304  TRP304     -0.2442
     80  CE2       -5.7990  -33.4400   29.6840 C.ar  304  TRP304      0.0810
     81  CE3       -7.6690  -34.8760   29.1500 C.ar  304  TRP304      0.0012
     82  CZ2       -6.0970  -32.5800   28.6280 C.ar  304  TRP304      0.0191
     83  CZ3       -7.9630  -34.0210   28.1030 C.ar  304  TRP304      0.0001
     84  CH2       -7.1800  -32.8880   27.8510 C.ar  304  TRP304      0.0015
@<TRIPOS>BOND
     1    34    35    1
     2    40    38    1
     3    35    38    1
     4    35    36    1
     5    38    39    1
     6    36    37    2
     7    29    28    2
     8    28    27    1
     9    26    27    1
    10    27    30    1
    11    55    54    1
    12    30    31    1
    13    32    31   ar
    14    41    42    1
    15    54    53    1
    16    31    33   ar
    17    20    19    2
    18    19    18    1
    19    42    43    1
    20    42    45    1
    21    46    45    1
    22    53    52    1
    23    52    51    1
    24    44    43    2
    25    43    47   am
    26    18    17    1
    27    18    21    1
    28    11    12    1
    29    11    10    1
    30    11    14    1
    31    12    13    2
    32    47    48    1
    33    15    14    1
    34    16    14    1
    35    51    48    1
    36    21    22    1
    37    48    49    1
    38    22    23    1
    39    49    50    2
    40    49    56   am
    41    24    23    1
    42    24    25    1
    43    56    57    1
    44     4     3    2
    45    84    83   ar
    46    84    82   ar
    47    61    60    1
    48     5     6    1
    49     5     2    1
    50    83    81   ar
    51     6     7    1
    52     1     2    1
    53    57    60    1
    54    57    58    1
    55    82    80   ar
    56     3     2    1
    57    60    62    1
    58    81    78   ar
    59    59    58    2
    60     7     8    2
    61     7     9   am
    62    80    78   ar
    63    80    79   ar
    64    78    76   ar
    65    79    77   ar
    66    76    77   ar
    67    76    75    1
    68    75    72    1
    69    66    65    2
    70    63    64    1
    71    72    71    1
    72    72    73    1
    73    65    71   am
    74    65    64    1
    75    64    67    1
    76    73    74    2
    77    67    68    1
    78    68    69   ar
    79    68    70   ar
