@<TRIPOS>MOLECULE
tmp/5v6dH00.pdb
 125 117 0 0 0
SMALL
GASTEIGER

@<TRIPOS>ATOM
      1  N          8.4460   38.9550   28.3780 N.3    11  LYS11      -0.1245
      2  CA         9.3990   38.0530   27.7370 C.3    11  LYS11       0.1561
      3  C         10.4050   37.5160   28.7520 C.2    11  LYS11       0.2260
      4  O         10.4710   37.9970   29.8850 O.2    11  LYS11      -0.2867
      5  CB        10.0850   38.7920   26.5850 C.3    11  LYS11       0.0271
      6  CG         9.1540   39.0570   25.4030 C.3    11  LYS11       0.0035
      7  CD         9.8530   39.7810   24.2600 C.3    11  LYS11       0.0206
      8  CE         8.9460   39.8460   23.0440 C.3    11  LYS11       0.1093
      9  NZ         9.5630   40.5560   21.8930 N.3    11  LYS11      -0.1314
     10  N          5.1380   33.3380   16.1100 N.3    51  TYR51      -0.1241
     11  CA         5.8530   34.3280   15.3190 C.3    51  TYR51       0.1605
     12  C          6.0280   33.9070   13.8580 C.2    51  TYR51       0.2264
     13  O          6.9360   34.4000   13.1810 O.2    51  TYR51      -0.2867
     14  CB         7.2030   34.6240   15.9720 C.3    51  TYR51       0.0534
     15  CG         7.0700   35.4670   17.2260 C.ar   51  TYR51      -0.0201
     16  CD1        6.6230   36.7840   17.1580 C.ar   51  TYR51      -0.0009
     17  CD2        7.3840   34.9490   18.4730 C.ar   51  TYR51      -0.0009
     18  CE1        6.5020   37.5630   18.3000 C.ar   51  TYR51       0.0417
     19  CE2        7.2620   35.7160   19.6220 C.ar   51  TYR51       0.0417
     20  CZ         6.8340   37.0210   19.5280 C.ar   51  TYR51       0.1957
     21  OH         6.7160   37.7790   20.6680 O.3    51  TYR51      -0.2866
     22  N          7.1460   36.0850   10.8620 N.3    54  HIS54      -0.1241
     23  CA         8.5390   36.4470   10.6420 C.3    54  HIS54       0.1621
     24  C          9.3880   35.2730   10.1730 C.2    54  HIS54       0.2264
     25  O         10.6180   35.3790   10.1720 O.2    54  HIS54      -0.2867
     26  CB         9.1460   37.0340   11.9240 C.3    54  HIS54       0.0745
     27  CG         8.4180   38.2300   12.4500 C.ar   54  HIS54       0.0817
     28  ND1        8.1790   39.3510   11.6840 N.ar   54  HIS54      -0.2268
     29  CD2        7.8860   38.4840   13.6690 C.ar   54  HIS54       0.1154
     30  CE1        7.5230   40.2420   12.4070 C.ar   54  HIS54       0.1986
     31  NE2        7.3340   39.7410   13.6150 N.ar   54  HIS54      -0.2212
     32  N         16.0700   37.5760   11.5660 N.3    59  PHE59      -0.1241
     33  CA        16.0600   37.5570   13.0250 C.3    59  PHE59       0.1605
     34  C         15.1620   36.4720   13.6060 C.2    59  PHE59       0.2264
     35  O         15.0800   36.3520   14.8300 O.2    59  PHE59      -0.2867
     36  CB        15.6220   38.9250   13.5720 C.3    59  PHE59       0.0534
     37  CG        14.2290   39.3410   13.1550 C.ar   59  PHE59      -0.0203
     38  CD1       13.1190   38.9460   13.8880 C.ar   59  PHE59      -0.0042
     39  CD2       14.0350   40.1480   12.0420 C.ar   59  PHE59      -0.0042
     40  CE1       11.8420   39.3320   13.5100 C.ar   59  PHE59      -0.0003
     41  CE2       12.7610   40.5400   11.6630 C.ar   59  PHE59      -0.0003
     42  CZ        11.6650   40.1300   12.3960 C.ar   59  PHE59      -0.0000
     43  N         14.9710   35.2330   17.5340 N.3    63  LEU63      -0.1245
     44  CA        13.7350   35.5320   18.2490 C.3    63  LEU63       0.1561
     45  C         13.1510   34.2770   18.8810 C.2    63  LEU63       0.2260
     46  O         12.7520   34.2810   20.0510 O.2    63  LEU63      -0.2867
     47  CB        12.7200   36.1580   17.2940 C.3    63  LEU63       0.0270
     48  CG        11.2980   36.3210   17.8390 C.3    63  LEU63       0.0019
     49  CD1       11.2840   37.2720   19.0270 C.3    63  LEU63       0.0001
     50  CD2       10.3530   36.8050   16.7520 C.3    63  LEU63       0.0001
     51  N          0.1980   48.9280   23.3030 N.3    87  ARG87      -0.1245
     52  CA         1.3540   49.2710   22.4790 C.3    87  ARG87       0.1563
     53  C          1.9670   50.5960   22.9090 C.2    87  ARG87       0.2260
     54  O          3.1900   50.7720   22.8620 O.2    87  ARG87      -0.2867
     55  CB         0.9430   49.3300   21.0080 C.3    87  ARG87       0.0307
     56  CG         0.3080   48.0510   20.4990 C.3    87  ARG87       0.0489
     57  CD         1.3500   47.0580   20.0500 C.3    87  ARG87       0.2205
     58  NE         1.8940   47.4080   18.7420 N.pl3  87  ARG87      -0.0865
     59  CZ         2.5320   46.5510   17.9510 C.cat  87  ARG87       0.5346
     60  NH1        2.6960   45.2960   18.3390 N.pl3  87  ARG87       0.1354
     61  NH2        2.9950   46.9450   16.7700 N.pl3  87  ARG87       0.1354
     62  N          3.9210   49.9240   26.0560 N.3    90  MET90      -0.1245
     63  CA         5.1410   49.1760   25.7610 C.3    90  MET90       0.1570
     64  C          6.2490   50.0920   25.2640 C.2    90  MET90       0.2261
     65  O          7.4130   49.9240   25.6410 O.2    90  MET90      -0.2867
     66  CB         4.8620   48.0910   24.7220 C.3    90  MET90       0.0387
     67  CG         3.9750   46.9520   25.1960 C.3    90  MET90       0.0595
     68  SD         3.4230   45.9380   23.8060 S.3    90  MET90      -0.1393
     69  CE         4.9940   45.5150   23.0580 C.3    90  MET90       0.0692
     70  N         10.1860   49.6330   19.9290 N.3    93  THR93      -0.1218
     71  CA        11.0040   48.4320   20.0970 C.3    93  THR93       0.1862
     72  C         12.4230   48.7710   20.5350 C.2    93  THR93       0.2287
     73  O         12.9960   48.0860   21.3900 O.2    93  THR93      -0.2866
     74  CB        11.0380   47.6260   18.7990 C.3    93  THR93       0.1770
     75  OG1       10.3230   48.3300   17.7760 O.3    93  THR93      -0.2211
     76  CG2       10.4040   46.2680   19.0030 C.3    93  THR93       0.0375
     77  N          9.5610   49.5020   27.6240 N.3   104  ARG104     -0.1245
     78  CA        10.8570   49.2300   27.0170 C.3   104  ARG104      0.1563
     79  C         11.9010   50.2680   27.3980 C.2   104  ARG104      0.2260
     80  O         13.0910   49.9410   27.4640 O.2   104  ARG104     -0.2867
     81  CB        10.7160   49.1430   25.5040 C.3   104  ARG104      0.0307
     82  CG        10.2100   47.7990   25.0710 C.3   104  ARG104      0.0489
     83  CD         9.4660   47.8770   23.7760 C.3   104  ARG104      0.2205
     84  NE         9.1460   46.5480   23.2780 N.pl3 104  ARG104     -0.0865
     85  CZ         8.3610   46.3220   22.2360 C.cat 104  ARG104      0.5346
     86  NH1        7.8060   47.3420   21.5910 N.pl3 104  ARG104      0.1354
     87  NH2        8.1290   45.0770   21.8450 N.pl3 104  ARG104      0.1354
     88  N         16.9280   46.3380   21.0030 N.3   111  VAL111     -0.1231
     89  CA        15.8000   46.3190   20.0780 C.3   111  VAL111      0.1692
     90  C         15.2060   44.9200   19.9590 C.2   111  VAL111      0.2592
     91  O         14.0190   44.7680   19.6400 O.2   111  VAL111     -0.2718
     92  CB        16.2410   46.8790   18.7110 C.3   111  VAL111      0.0266
     93  CG1       17.2860   45.9710   18.0730 C.3   111  VAL111      0.0020
     94  CG2       15.0420   47.0780   17.7940 C.3   111  VAL111      0.0020
     95  N         16.0020   43.8820   20.2190 N.am  112  SER112     -0.1952
     96  CA        15.5340   42.5030   20.1610 C.3   112  SER112      0.1924
     97  C         15.1830   41.9350   21.5310 C.2   112  SER112      0.2314
     98  O         14.1620   41.2560   21.6740 O.2   112  SER112     -0.2863
     99  CB        16.5920   41.6140   19.4980 C.3   112  SER112      0.2116
    100  OG        17.8100   41.6370   20.2230 O.3   112  SER112     -0.2180
    101  N         13.6240   42.8870   24.1960 N.3   114  ASN114     -0.1240
    102  CA        12.8360   44.1050   24.3540 C.3   114  ASN114      0.1653
    103  C         11.6420   43.9370   25.2910 C.2   114  ASN114      0.2266
    104  O         10.6570   44.6660   25.1700 O.2   114  ASN114     -0.2867
    105  CB        12.3870   44.6300   22.9880 C.3   114  ASN114      0.1155
    106  CG        11.5790   43.6140   22.1960 C.2   114  ASN114      0.2627
    107  OD1       10.8710   42.7850   22.7610 O.2   114  ASN114     -0.2716
    108  ND2       11.6770   43.6870   20.8780 N.am  114  ASN114     -0.0877
    109  N          8.7540   42.9550   26.1370 N.3   116  VAL116     -0.1231
    110  CA         7.3170   42.7320   26.0060 C.3   116  VAL116      0.1692
    111  C          6.9240   42.5000   24.5540 C.2   116  VAL116      0.2592
    112  O          7.5780   42.9790   23.6240 O.2   116  VAL116     -0.2718
    113  CB         6.4910   43.9160   26.5720 C.3   116  VAL116      0.0266
    114  CG1        6.2800   43.7610   28.0670 C.3   116  VAL116      0.0020
    115  CG2        7.1850   45.2300   26.2570 C.3   116  VAL116      0.0020
    116  N          5.8250   41.7630   24.3800 N.am  117  HIS117     -0.1976
    117  CA         5.0580   41.6960   23.1440 C.3   117  HIS117      0.1656
    118  C          3.6360   42.1670   23.4250 C.2   117  HIS117      0.2291
    119  O          3.1270   42.0150   24.5390 O.2   117  HIS117     -0.2864
    120  CB         5.0190   40.2610   22.5700 C.3   117  HIS117      0.0771
    121  CG         3.9660   40.0590   21.5200 C.ar  117  HIS117      0.0820
    122  ND1        4.1840   40.3220   20.1830 N.ar  117  HIS117     -0.2267
    123  CD2        2.6770   39.6510   21.6150 C.ar  117  HIS117      0.1154
    124  CE1        3.0810   40.0680   19.4990 C.ar  117  HIS117      0.1986
    125  NE2        2.1510   39.6580   20.3430 N.ar  117  HIS117     -0.2212
@<TRIPOS>BOND
     1    25    24    2
     2    24    23    1
     3    23    22    1
     4    23    26    1
     5    32    33    1
     6    41    39   ar
     7    41    42   ar
     8    28    30   ar
     9    28    27   ar
    10    26    27    1
    11    39    37   ar
    12    42    40   ar
    13    30    31   ar
    14    27    29   ar
    15    33    36    1
    16    33    34    1
    17    37    36    1
    18    37    38   ar
    19    13    12    2
    20    40    38   ar
    21    34    35    2
    22    31    29   ar
    23    12    11    1
    24    11    14    1
    25    11    10    1
    26    14    15    1
    27    50    48    1
    28    61    59    1
    29    16    15   ar
    30    16    18   ar
    31    15    17   ar
    32    47    48    1
    33    47    44    1
    34    43    44    1
    35    75    74    1
    36    94    92    1
    37    48    49    1
    38    59    60    1
    39    59    58    2
    40    93    92    1
    41    44    45    1
    42    18    20   ar
    43    17    19   ar
    44    92    89    1
    45    58    57    1
    46    74    76    1
    47    74    71    1
    48    45    46    2
    49    99    96    1
    50    99   100    1
    51   124   122   ar
    52   124   125   ar
    53    20    19   ar
    54    20    21    1
    55    91    90    2
    56    70    71    1
    57    90    89    1
    58    90    95   am
    59    57    56    1
    60    89    88    1
    61    71    72    1
    62    96    95    1
    63    96    97    1
    64   122   121   ar
    65   125   123   ar
    66    56    55    1
    67    72    73    2
    68   108   106   am
    69    55    52    1
    70   121   123   ar
    71   121   120    1
    72    97    98    2
    73    86    85    1
    74    87    85    1
    75     9     8    1
    76   106   107    2
    77   106   105    1
    78    85    84    2
    79    52    53    1
    80    52    51    1
    81   120   117    1
    82    54    53    2
    83   105   102    1
    84     8     7    1
    85    69    68    1
    86   117   118    1
    87   117   116    1
    88    84    83    1
    89   118   119    2
    90   112   111    2
    91    83    82    1
    92    68    67    1
    93   101   102    1
    94     7     6    1
    95   102   103    1
    96   116   111   am
    97   111   110    1
    98    66    67    1
    99    66    63    1
   100    82    81    1
   101   104   103    2
   102    64    65    2
   103    64    63    1
   104     6     5    1
   105    81    78    1
   106    63    62    1
   107   110   109    1
   108   110   113    1
   109   115   113    1
   110   113   114    1
   111     5     2    1
   112    78    79    1
   113    78    77    1
   114    79    80    2
   115     2     1    1
   116     2     3    1
   117     3     4    2
