@<TRIPOS>MOLECULE
tmp/5v6jA00.pdb
 80 78 0 0 0
SMALL
GASTEIGER

@<TRIPOS>ATOM
      1  N          6.2790   25.9870  -11.8470 N.3    64  ILE64      -0.1231
      2  CA         5.2820   27.0590  -11.8010 C.3    64  ILE64       0.1692
      3  C          5.2390   27.6620  -10.4030 C.2    64  ILE64       0.2592
      4  O          5.5520   26.9990   -9.4070 O.2    64  ILE64      -0.2718
      5  CB         3.8670   26.5680  -12.2050 C.3    64  ILE64       0.0266
      6  CG1        3.5400   25.2400  -11.5100 C.3    64  ILE64       0.0019
      7  CG2        3.7540   26.4370  -13.7160 C.3    64  ILE64       0.0020
      8  CD1        2.0830   24.8440  -11.6380 C.3    64  ILE64       0.0001
      9  N          4.8450   28.9340  -10.3270 N.am   65  ARG65      -0.1966
     10  CA         4.6030   29.5610   -9.0340 C.3    65  ARG65       0.1729
     11  C          3.1570   29.3250   -8.6110 C.2    65  ARG65       0.2616
     12  O          2.3040   28.9520   -9.4210 O.2    65  ARG65      -0.2715
     13  CB         4.9060   31.0610   -9.0490 C.3    65  ARG65       0.0348
     14  CG         3.8780   31.9140   -9.7680 C.3    65  ARG65       0.0492
     15  CD         3.8700   33.3370   -9.2070 C.3    65  ARG65       0.2205
     16  NE         3.1120   33.4180   -7.9580 N.pl3  65  ARG65      -0.0865
     17  CZ         2.9660   34.5230   -7.2350 C.cat  65  ARG65       0.5346
     18  NH1        3.5290   35.6610   -7.6320 N.pl3  65  ARG65       0.1354
     19  NH2        2.2630   34.4900   -6.1100 N.pl3  65  ARG65       0.1354
     20  N          2.8910   29.5390   -7.3270 N.am   66  ALA66      -0.1963
     21  CA         1.5710   29.3130   -6.7550 C.3    66  ALA66       0.1728
     22  C          0.8050   30.6240   -6.5670 C.2    66  ALA66       0.2616
     23  O          1.3610   31.7270   -6.6190 O.2    66  ALA66      -0.2715
     24  CB         1.6730   28.5790   -5.4160 C.3    66  ALA66       0.0334
     25  N         -0.4940   30.4890   -6.3090 N.am   67  SER67      -0.1950
     26  CA        -1.3760   31.6370   -6.1280 C.3    67  SER67       0.1924
     27  C         -1.4050   32.0690   -4.6730 C.2    67  SER67       0.2314
     28  O         -1.7790   31.2830   -3.7940 O.2    67  SER67      -0.2863
     29  CB        -2.7930   31.2740   -6.5500 C.3    67  SER67       0.2116
     30  OG        -3.7310   32.2190   -6.0770 O.3    67  SER67      -0.2180
     31  N         -5.1560   32.1240   -3.4880 N.3    70  ASN70      -0.1240
     32  CA        -5.6840   30.7710   -3.3350 C.3    70  ASN70       0.1653
     33  C         -5.1080   30.1040   -2.0950 C.2    70  ASN70       0.2266
     34  O         -5.8180   29.3870   -1.3840 O.2    70  ASN70      -0.2867
     35  CB        -5.3800   29.9200   -4.5700 C.3    70  ASN70       0.1155
     36  CG        -6.1160   30.3930   -5.8240 C.2    70  ASN70       0.2627
     37  OD1       -7.0050   31.2590   -5.7670 O.2    70  ASN70      -0.2716
     38  ND2       -5.7430   29.8300   -6.9650 N.am   70  ASN70      -0.0877
     39  N         -7.4570   24.8350   -4.2440 N.3    90  ILE90      -0.1245
     40  CA        -8.5230   25.8060   -4.4980 C.3    90  ILE90       0.1561
     41  C         -9.6690   25.1610   -5.2690 C.2    90  ILE90       0.2260
     42  O        -10.8450   25.4690   -5.0340 O.2    90  ILE90      -0.2867
     43  CB        -7.9800   27.0740   -5.1950 C.3    90  ILE90       0.0252
     44  CG1       -9.0240   28.1930   -5.1770 C.3    90  ILE90       0.0019
     45  CG2       -7.5720   26.7940   -6.6260 C.3    90  ILE90       0.0019
     46  CD1       -9.4040   28.6170   -3.7820 C.3    90  ILE90       0.0001
     47  N         -6.5130   22.3210   -9.7540 N.3    94  ALA94      -0.1231
     48  CA        -5.4110   23.2270   -9.4670 C.3    94  ALA94       0.1679
     49  C         -4.1490   22.4380   -9.1130 C.2    94  ALA94       0.2434
     50  O         -4.2220   21.4030   -8.4470 O.2    94  ALA94      -0.2733
     51  CB        -5.7670   24.1520   -8.3070 C.3    94  ALA94       0.0304
     52  N         -2.9720   22.9040   -9.5370 N.am   95  PRO95      -0.2718
     53  CA        -1.7490   22.1370   -9.2550 C.3    95  PRO95       0.1535
     54  C         -1.3070   22.1670   -7.7980 C.2    95  PRO95       0.2598
     55  O         -0.7540   21.1680   -7.3210 O.2    95  PRO95      -0.2715
     56  CB        -0.7070   22.7830  -10.1770 C.3    95  PRO95       0.0310
     57  CG        -1.2320   24.1740  -10.4220 C.3    95  PRO95       0.0237
     58  CD        -2.7290   24.0400  -10.4440 C.3    95  PRO95       0.0939
     59  N         -1.4900   23.2710   -7.0790 N.am   96  PHE96      -0.1974
     60  CA        -0.9060   23.3790   -5.7430 C.3    96  PHE96       0.1639
     61  C         -1.8280   22.9120   -4.6260 C.2    96  PHE96       0.2290
     62  O         -3.0340   23.2030   -4.6180 O.2    96  PHE96      -0.2864
     63  CB        -0.4070   24.7980   -5.4800 C.3    96  PHE96       0.0560
     64  CG         0.8830   25.0830   -6.1630 C.ar   96  PHE96      -0.0200
     65  CD1        2.0770   24.6780   -5.5860 C.ar   96  PHE96      -0.0042
     66  CD2        0.9180   25.7000   -7.4010 C.ar   96  PHE96      -0.0042
     67  CE1        3.2780   24.9130   -6.2100 C.ar   96  PHE96      -0.0003
     68  CE2        2.1200   25.9400   -8.0390 C.ar   96  PHE96      -0.0003
     69  CZ         3.3060   25.5470   -7.4450 C.ar   96  PHE96      -0.0000
     70  N         -2.0110   23.1190   -0.3800 N.3    98  PHE98      -0.1241
     71  CA        -1.5310   23.8970    0.7550 C.3    98  PHE98       0.1605
     72  C         -1.9630   23.1980    2.0360 C.2    98  PHE98       0.2264
     73  O         -3.0820   22.6800    2.1110 O.2    98  PHE98      -0.2867
     74  CB        -2.1450   25.3080    0.7330 C.3    98  PHE98       0.0534
     75  CG        -1.9670   26.0280   -0.5780 C.ar   98  PHE98      -0.0203
     76  CD1       -0.7780   26.6810   -0.8690 C.ar   98  PHE98      -0.0042
     77  CD2       -2.9870   26.0540   -1.5210 C.ar   98  PHE98      -0.0042
     78  CE1       -0.6090   27.3390   -2.0810 C.ar   98  PHE98      -0.0003
     79  CE2       -2.8140   26.7220   -2.7360 C.ar   98  PHE98      -0.0003
     80  CZ        -1.6280   27.3580   -3.0070 C.ar   98  PHE98      -0.0000
@<TRIPOS>BOND
     1     7     5    1
     2     5     2    1
     3     5     6    1
     4     1     2    1
     5     2     3    1
     6     8     6    1
     7    58    57    1
     8    58    52    1
     9    57    56    1
    10     3     9   am
    11     3     4    2
    12     9    10    1
    13    56    53    1
    14    14    15    1
    15    14    13    1
    16    47    48    1
    17    52    53    1
    18    52    49   am
    19    48    49    1
    20    48    51    1
    21    12    11    2
    22    53    54    1
    23    15    16    1
    24    49    50    2
    25    13    10    1
    26    10    11    1
    27    11    20   am
    28    68    69   ar
    29    68    66   ar
    30    16    17    2
    31    54    55    2
    32    54    59   am
    33    18    17    1
    34    69    67   ar
    35    66    64   ar
    36    20    21    1
    37    17    19    1
    38    59    60    1
    39    38    36   am
    40    21    22    1
    41    21    24    1
    42    45    43    1
    43    23    22    2
    44    22    25   am
    45    29    26    1
    46    29    30    1
    47    25    26    1
    48    67    65   ar
    49    64    65   ar
    50    64    63    1
    51    26    27    1
    52    36    37    2
    53    36    35    1
    54    60    63    1
    55    60    61    1
    56    41    42    2
    57    41    40    1
    58    43    44    1
    59    43    40    1
    60    44    46    1
    61    27    28    2
    62    61    62    2
    63    35    32    1
    64    40    39    1
    65    31    32    1
    66    32    33    1
    67    80    79   ar
    68    80    78   ar
    69    79    77   ar
    70    33    34    2
    71    78    76   ar
    72    77    75   ar
    73    76    75   ar
    74    75    74    1
    75    70    71    1
    76    74    71    1
    77    71    72    1
    78    72    73    2
