@<TRIPOS>MOLECULE
tmp/5v6kA01.pdb
 106 106 0 0 0
SMALL
GASTEIGER

@<TRIPOS>ATOM
      1  N          8.0880   12.5650   -9.3200 N.3    29  GLY29      -0.1210
      2  CA         8.2410   13.8550   -8.6800 C.3    29  GLY29       0.1956
      3  C          6.9370   14.6190   -8.7710 C.2    29  GLY29       0.2612
      4  O          5.9500   14.2520   -8.1260 O.2    29  GLY29      -0.2717
      5  N          6.9200   15.6850   -9.5740 N.am   30  PHE30      -0.1962
      6  CA         5.6730   16.3480   -9.9360 C.3    30  PHE30       0.1771
      7  C          4.8320   15.5180  -10.9020 C.2    30  PHE30       0.2619
      8  O          3.6530   15.8350  -11.1020 O.2    30  PHE30      -0.2715
      9  CB         5.9710   17.7150  -10.5630 C.3    30  PHE30       0.0574
     10  CG         6.7260   18.6610   -9.6580 C.ar   30  PHE30      -0.0200
     11  CD1        6.6570   18.5430   -8.2770 C.ar   30  PHE30      -0.0042
     12  CD2        7.5010   19.6770  -10.1970 C.ar   30  PHE30      -0.0042
     13  CE1        7.3510   19.4170   -7.4560 C.ar   30  PHE30      -0.0003
     14  CE2        8.1950   20.5540   -9.3810 C.ar   30  PHE30      -0.0003
     15  CZ         8.1190   20.4240   -8.0090 C.ar   30  PHE30      -0.0000
     16  N          5.4050   14.4770  -11.5010 N.am   31  ALA31      -0.1977
     17  CA         4.6920   13.5900  -12.4150 C.3    31  ALA31       0.1597
     18  C          5.2690   12.1870  -12.2450 C.2    31  ALA31       0.2287
     19  O          6.0040   11.9150  -11.2920 O.2    31  ALA31      -0.2864
     20  CB         4.7990   14.1020  -13.8580 C.3    31  ALA31       0.0319
     21  N          7.8520    9.7160  -13.7580 N.3    33  ASP33      -0.1239
     22  CA         9.0200    9.7660  -14.6290 C.3    33  ASP33       0.1674
     23  C          9.3560    8.4250  -15.2650 C.2    33  ASP33       0.2266
     24  O          9.8300    8.3960  -16.4060 O.2    33  ASP33      -0.2867
     25  CB        10.2420   10.2420  -13.8460 C.3    33  ASP33       0.1410
     26  CG        10.0870   11.6500  -13.3310 C.2    33  ASP33       0.3668
     27  OD1        9.5300   11.8240  -12.2290 O.co2  33  ASP33      -0.2456
     28  OD2       10.5200   12.5800  -14.0360 O.co2  33  ASP33      -0.2456
     29  N         17.8420   18.6300  -13.3420 N.3    50  THR50      -0.1203
     30  CA        16.8380   18.5420  -12.2930 C.3    50  THR50       0.1994
     31  C         15.6860   17.6230  -12.6720 C.2    50  THR50       0.2618
     32  O         14.6300   17.6750  -12.0340 O.2    50  THR50      -0.2717
     33  CB        16.2950   19.9330  -11.9510 C.3    50  THR50       0.1784
     34  OG1       15.8370   20.5830  -13.1430 O.3    50  THR50      -0.2211
     35  CG2       17.3670   20.7820  -11.2820 C.3    50  THR50       0.0376
     36  N         15.8610   16.7890  -13.6910 N.am   51  ASN51      -0.1960
     37  CA        14.8080   15.9130  -14.1780 C.3    51  ASN51       0.1819
     38  C         15.0980   14.4670  -13.8020 C.2    51  ASN51       0.2622
     39  O         16.2300   14.0950  -13.4770 O.2    51  ASN51      -0.2715
     40  CB        14.6570   16.0250  -15.6990 C.3    51  ASN51       0.1195
     41  CG        14.4800   17.4540  -16.1610 C.2    51  ASN51       0.2630
     42  OD1       13.4740   18.0920  -15.8630 O.2    51  ASN51      -0.2716
     43  ND2       15.4600   17.9630  -16.8990 N.am   51  ASN51      -0.0877
     44  N         14.0500   13.6500  -13.8590 N.am   52  GLY52      -0.1940
     45  CA        14.1470   12.2210  -13.6300 C.3    52  GLY52       0.2014
     46  C         13.3730   11.7210  -12.4310 C.2    52  GLY52       0.2639
     47  O         13.0440   10.5280  -12.3760 O.2    52  GLY52      -0.2714
     48  N         13.0710   12.5810  -11.4660 N.am   53  GLY53      -0.1939
     49  CA        12.3500   12.1490  -10.2920 C.3    53  GLY53       0.2014
     50  C         13.2270   11.3650   -9.3330 C.2    53  GLY53       0.2638
     51  O         14.4490   11.2720   -9.4770 O.2    53  GLY53      -0.2714
     52  N         12.5670   10.7890   -8.3300 N.am   54  VAL54      -0.1977
     53  CA        13.2160   10.0280   -7.2700 C.3    54  VAL54       0.1596
     54  C         12.6980    8.6000   -7.3120 C.2    54  VAL54       0.2287
     55  O         11.4960    8.3740   -7.4870 O.2    54  VAL54      -0.2864
     56  CB        12.9470   10.6510   -5.8830 C.3    54  VAL54       0.0276
     57  CG1       13.5570    9.7980   -4.7780 C.3    54  VAL54       0.0022
     58  CG2       13.4710   12.0740   -5.8250 C.3    54  VAL54       0.0022
     59  N          0.6200   18.3810  -18.3000 N.3    74  TYR74      -0.1241
     60  CA         1.6770   18.7380  -17.3600 C.3    74  TYR74       0.1605
     61  C          2.1580   20.1650  -17.6040 C.2    74  TYR74       0.2264
     62  O          2.3030   20.6050  -18.7480 O.2    74  TYR74      -0.2867
     63  CB         2.8290   17.7450  -17.4970 C.3    74  TYR74       0.0534
     64  CG         3.9560   17.8910  -16.4970 C.ar   74  TYR74      -0.0201
     65  CD1        3.7080   17.9450  -15.1310 C.ar   74  TYR74      -0.0009
     66  CD2        5.2750   17.9270  -16.9230 C.ar   74  TYR74      -0.0009
     67  CE1        4.7480   18.0580  -14.2180 C.ar   74  TYR74       0.0417
     68  CE2        6.3160   18.0350  -16.0220 C.ar   74  TYR74       0.0417
     69  CZ         6.0510   18.1020  -14.6730 C.ar   74  TYR74       0.1957
     70  OH         7.1010   18.2090  -13.7880 O.3    74  TYR74      -0.2866
     71  N          4.9280   21.6800  -17.3910 N.3    76  TRP76      -0.1241
     72  CA         6.1510   21.8650  -18.1560 C.3    76  TRP76       0.1605
     73  C          6.0860   21.1760  -19.5160 C.2    76  TRP76       0.2264
     74  O          7.0950   21.1280  -20.2270 O.2    76  TRP76      -0.2867
     75  CB         7.3630   21.3930  -17.3420 C.3    76  TRP76       0.0550
     76  CG         7.7420   22.3830  -16.2650 C.ar   76  TRP76       0.0003
     77  CD1        8.5810   23.4540  -16.3980 C.ar   76  TRP76       0.0946
     78  CD2        7.2780   22.4080  -14.9080 C.ar   76  TRP76       0.0152
     79  NE1        8.6730   24.1350  -15.2100 N.ar   76  TRP76      -0.2442
     80  CE2        7.8850   23.5140  -14.2790 C.ar   76  TRP76       0.0810
     81  CE3        6.4140   21.6000  -14.1620 C.ar   76  TRP76       0.0012
     82  CZ2        7.6540   23.8330  -12.9410 C.ar   76  TRP76       0.0191
     83  CZ3        6.1870   21.9200  -12.8340 C.ar   76  TRP76       0.0001
     84  CH2        6.8070   23.0250  -12.2380 C.ar   76  TRP76       0.0015
     85  N         10.7710   11.0890  -21.8690 N.3   128  TRP128     -0.1227
     86  CA        10.8080   12.0890  -20.8080 C.3   128  TRP128      0.1737
     87  C          9.9900   11.6520  -19.6000 C.2   128  TRP128      0.2595
     88  O         10.5380   11.5440  -18.5000 O.2   128  TRP128     -0.2718
     89  CB        10.2970   13.4350  -21.3310 C.3   128  TRP128      0.0564
     90  CG        10.2730   14.5070  -20.2920 C.ar  128  TRP128      0.0003
     91  CD1       11.0730   14.6080  -19.1860 C.ar  128  TRP128      0.0946
     92  CD2        9.3920   15.6320  -20.2520 C.ar  128  TRP128      0.0152
     93  NE1       10.7430   15.7280  -18.4670 N.ar  128  TRP128     -0.2442
     94  CE2        9.7170   16.3760  -19.1010 C.ar  128  TRP128      0.0810
     95  CE3        8.3650   16.0870  -21.0820 C.ar  128  TRP128      0.0012
     96  CZ2        9.0490   17.5480  -18.7600 C.ar  128  TRP128      0.0191
     97  CZ3        7.7020   17.2490  -20.7400 C.ar  128  TRP128      0.0001
     98  CH2        8.0460   17.9660  -19.5890 C.ar  128  TRP128      0.0015
     99  N          8.6960   11.4040  -19.7780 N.am  129  LEU129     -0.1980
    100  CA         7.8020   10.9700  -18.7170 C.3   129  LEU129      0.1596
    101  C          7.0210    9.7520  -19.1930 C.2   129  LEU129      0.2287
    102  O          7.1230    9.3330  -20.3500 O.2   129  LEU129     -0.2864
    103  CB         6.8440   12.0970  -18.3090 C.3   129  LEU129      0.0297
    104  CG         7.4960   13.3650  -17.7650 C.3   129  LEU129      0.0022
    105  CD1        6.4720   14.4820  -17.6770 C.3   129  LEU129      0.0001
    106  CD2        8.1250   13.1050  -16.4060 C.3   129  LEU129      0.0001
@<TRIPOS>BOND
     1    85    86    1
     2    89    86    1
     3    89    90    1
     4    95    97   ar
     5    95    92   ar
     6    86    87    1
     7    97    98   ar
     8   102   101    2
     9    90    92   ar
    10    90    91   ar
    11    92    94   ar
    12    74    73    2
    13    99    87   am
    14    99   100    1
    15    87    88    2
    16    98    96   ar
    17    73    72    1
    18   101   100    1
    19    91    93   ar
    20    94    96   ar
    21    94    93   ar
    22    62    61    2
    23   100   103    1
    24   103   104    1
    25    59    60    1
    26    72    71    1
    27    72    75    1
    28   104   105    1
    29   104   106    1
    30    61    60    1
    31    63    60    1
    32    63    64    1
    33    75    76    1
    34    66    64   ar
    35    66    68   ar
    36    43    41   am
    37    64    65   ar
    38    24    23    2
    39    77    76   ar
    40    77    79   ar
    41    76    78   ar
    42    41    42    2
    43    41    40    1
    44    68    69   ar
    45    40    37    1
    46    23    22    1
    47    79    80   ar
    48    65    67   ar
    49    78    80   ar
    50    78    81   ar
    51    69    67   ar
    52    69    70    1
    53    22    25    1
    54    22    21    1
    55    80    82   ar
    56    37    38    1
    57    37    36    1
    58    81    83   ar
    59    28    26   ar
    60    44    38   am
    61    44    45    1
    62    20    17    1
    63    25    26    1
    64    38    39    2
    65    36    31   am
    66    45    46    1
    67    29    30    1
    68    26    27   ar
    69    34    33    1
    70    82    84   ar
    71    83    84   ar
    72    31    30    1
    73    31    32    2
    74    46    47    2
    75    46    48   am
    76    17    18    1
    77    17    16    1
    78    30    33    1
    79    18    19    2
    80    33    35    1
    81    16     7   am
    82    48    49    1
    83     8     7    2
    84     7     6    1
    85     9     6    1
    86     9    10    1
    87    49    50    1
    88    12    10   ar
    89    12    14   ar
    90     6     5    1
    91    10    11   ar
    92     5     3   am
    93    51    50    2
    94    14    15   ar
    95    50    52   am
    96     1     2    1
    97     3     2    1
    98     3     4    2
    99    52    53    1
   100    11    13   ar
   101    15    13   ar
   102    55    54    2
   103    54    53    1
   104    53    56    1
   105    56    58    1
   106    56    57    1
