@<TRIPOS>MOLECULE
tmp/5v6kA00.pdb
 69 65 0 0 0
SMALL
GASTEIGER

@<TRIPOS>ATOM
      1  N          9.3650    9.1950   -9.5290 N.3    28  SER28      -0.1202
      2  CA         8.3110   10.1930   -9.5980 C.3    28  SER28       0.2020
      3  C          8.7860   11.4930   -8.9680 C.2    28  SER28       0.2619
      4  O          9.7500   11.5260   -8.1990 O.2    28  SER28      -0.2717
      5  CB         7.0340    9.7120   -8.9010 C.3    28  SER28       0.2103
      6  OG         7.2250    9.6180   -7.5000 O.3    28  SER28      -0.2182
      7  N          8.0880   12.5650   -9.3200 N.am   29  GLY29      -0.1942
      8  CA         8.2410   13.8550   -8.6800 C.3    29  GLY29       0.2014
      9  C          6.9370   14.6190   -8.7710 C.2    29  GLY29       0.2638
     10  O          5.9500   14.2520   -8.1260 O.2    29  GLY29      -0.2714
     11  N          6.9200   15.6850   -9.5740 N.am   30  PHE30      -0.1973
     12  CA         5.6730   16.3480   -9.9360 C.3    30  PHE30       0.1639
     13  C          4.8320   15.5180  -10.9020 C.2    30  PHE30       0.2290
     14  O          3.6530   15.8350  -11.1020 O.2    30  PHE30      -0.2864
     15  CB         5.9710   17.7150  -10.5630 C.3    30  PHE30       0.0560
     16  CG         6.7260   18.6610   -9.6580 C.ar   30  PHE30      -0.0200
     17  CD1        6.6570   18.5430   -8.2770 C.ar   30  PHE30      -0.0042
     18  CD2        7.5010   19.6770  -10.1970 C.ar   30  PHE30      -0.0042
     19  CE1        7.3510   19.4170   -7.4560 C.ar   30  PHE30      -0.0003
     20  CE2        8.1950   20.5540   -9.3810 C.ar   30  PHE30      -0.0003
     21  CZ         8.1190   20.4240   -8.0090 C.ar   30  PHE30      -0.0000
     22  N         17.6080   10.4880  -15.6840 N.3    47  VAL47      -0.1245
     23  CA        17.9620   11.3450  -14.5590 C.3    47  VAL47       0.1561
     24  C         19.0870   12.2520  -15.0450 C.2    47  VAL47       0.2260
     25  O         20.2330   11.8220  -15.1910 O.2    47  VAL47      -0.2867
     26  CB        18.3780   10.5400  -13.3260 C.3    47  VAL47       0.0252
     27  CG1       18.7460   11.4800  -12.1690 C.3    47  VAL47       0.0019
     28  CG2       17.2680    9.5850  -12.9130 C.3    47  VAL47       0.0019
     29  N         20.2210   16.7200  -15.0250 N.3    49  GLY49      -0.1210
     30  CA        19.8710   18.0330  -14.5140 C.3    49  GLY49       0.1956
     31  C         18.9510   17.8950  -13.3180 C.2    49  GLY49       0.2613
     32  O         19.2220   17.1350  -12.3820 O.2    49  GLY49      -0.2717
     33  N         17.8420   18.6300  -13.3420 N.am   50  THR50      -0.1938
     34  CA        16.8380   18.5420  -12.2930 C.3    50  THR50       0.2028
     35  C         15.6860   17.6230  -12.6720 C.2    50  THR50       0.2642
     36  O         14.6300   17.6750  -12.0340 O.2    50  THR50      -0.2714
     37  CB        16.2950   19.9330  -11.9510 C.3    50  THR50       0.1808
     38  OG1       15.8370   20.5830  -13.1430 O.3    50  THR50      -0.2208
     39  CG2       17.3670   20.7820  -11.2820 C.3    50  THR50       0.0379
     40  N         15.8610   16.7890  -13.6910 N.am   51  ASN51      -0.1971
     41  CA        14.8080   15.9130  -14.1780 C.3    51  ASN51       0.1688
     42  C         15.0980   14.4670  -13.8020 C.2    51  ASN51       0.2292
     43  O         16.2300   14.0950  -13.4770 O.2    51  ASN51      -0.2864
     44  CB        14.6570   16.0250  -15.6990 C.3    51  ASN51       0.1181
     45  CG        14.4800   17.4540  -16.1610 C.2    51  ASN51       0.2629
     46  OD1       13.4740   18.0920  -15.8630 O.2    51  ASN51      -0.2716
     47  ND2       15.4600   17.9630  -16.8990 N.am   51  ASN51      -0.0877
     48  N         13.0710   12.5810  -11.4660 N.3    53  GLY53      -0.1210
     49  CA        12.3500   12.1490  -10.2920 C.3    53  GLY53       0.1956
     50  C         13.2270   11.3650   -9.3330 C.2    53  GLY53       0.2611
     51  O         14.4490   11.2720   -9.4770 O.2    53  GLY53      -0.2717
     52  N         12.5670   10.7890   -8.3300 N.am   54  VAL54      -0.1979
     53  CA        13.2160   10.0280   -7.2700 C.3    54  VAL54       0.1595
     54  C         12.6980    8.6000   -7.3120 C.2    54  VAL54       0.2287
     55  O         11.4960    8.3740   -7.4870 O.2    54  VAL54      -0.2864
     56  CB        12.9470   10.6510   -5.8830 C.3    54  VAL54       0.0276
     57  CG1       13.5570    9.7980   -4.7780 C.3    54  VAL54       0.0022
     58  CG2       13.4710   12.0740   -5.8250 C.3    54  VAL54       0.0022
     59  N         11.2640    5.4560   -5.8180 N.3    56  ARG56      -0.1245
     60  CA        10.4010    5.2820   -4.6620 C.3    56  ARG56       0.1563
     61  C         10.4750    3.8500   -4.1550 C.2    56  ARG56       0.2260
     62  O         11.0110    2.9520   -4.8110 O.2    56  ARG56      -0.2867
     63  CB         8.9550    5.6460   -5.0170 C.3    56  ARG56       0.0307
     64  CG         8.8040    7.0230   -5.6290 C.3    56  ARG56       0.0489
     65  CD         9.1430    8.1140   -4.6400 C.3    56  ARG56       0.2205
     66  NE         9.1160    9.4300   -5.2660 N.pl3  56  ARG56      -0.0865
     67  CZ         9.4310   10.5630   -4.6510 C.cat  56  ARG56       0.5346
     68  NH1        9.8030   10.5530   -3.3800 N.pl3  56  ARG56       0.1354
     69  NH2        9.3760   11.7110   -5.3150 N.pl3  56  ARG56       0.1354
@<TRIPOS>BOND
     1    47    45   am
     2    45    46    2
     3    45    44    1
     4    44    41    1
     5    22    23    1
     6    25    24    2
     7    24    23    1
     8    29    30    1
     9    23    26    1
    10    30    31    1
    11    41    42    1
    12    41    40    1
    13    42    43    2
    14    40    35   am
    15    33    31   am
    16    33    34    1
    17    26    28    1
    18    26    27    1
    19    31    32    2
    20    38    37    1
    21    35    34    1
    22    35    36    2
    23    34    37    1
    24    37    39    1
    25    48    49    1
    26    14    13    2
    27    13    12    1
    28    15    12    1
    29    15    16    1
    30    49    50    1
    31    18    16   ar
    32    18    20   ar
    33    12    11    1
    34    16    17   ar
    35     2     1    1
    36     2     3    1
    37     2     5    1
    38    11     9   am
    39    51    50    2
    40    20    21   ar
    41    50    52   am
    42     7     3   am
    43     7     8    1
    44     3     4    2
    45     5     6    1
    46     9     8    1
    47     9    10    2
    48    52    53    1
    49    17    19   ar
    50    21    19   ar
    51    55    54    2
    52    54    53    1
    53    53    56    1
    54    56    58    1
    55    56    57    1
    56    59    60    1
    57    64    63    1
    58    64    65    1
    59    69    67    1
    60    66    67    2
    61    66    65    1
    62    63    60    1
    63    62    61    2
    64    60    61    1
    65    67    68    1
