@<TRIPOS>MOLECULE
tmp/5v6qC01.pdb
 80 75 0 0 0
SMALL
GASTEIGER

@<TRIPOS>ATOM
      1  N         31.1720   10.2800   62.2670 N.3    69  PHE69      -0.1227
      2  CA        30.4960   10.6530   61.0410 C.3    69  PHE69       0.1736
      3  C         29.3060   11.5090   61.4610 C.2    69  PHE69       0.2596
      4  O         28.3360   11.0040   62.0230 O.2    69  PHE69      -0.2718
      5  CB        30.0440    9.3730   60.2920 C.3    69  PHE69       0.0547
      6  CG        29.4390    9.6230   58.9360 C.ar   69  PHE69      -0.0202
      7  CD1       28.0820    9.9460   58.8030 C.ar   69  PHE69      -0.0042
      8  CD2       30.1960    9.4570   57.7820 C.ar   69  PHE69      -0.0042
      9  CE1       27.5230   10.1360   57.5480 C.ar   69  PHE69      -0.0003
     10  CE2       29.6380    9.6410   56.5220 C.ar   69  PHE69      -0.0003
     11  CZ        28.3070    9.9750   56.3990 C.ar   69  PHE69      -0.0000
     12  N         29.3990   12.8140   61.2010 N.am   70  GLY70      -0.1942
     13  CA        28.3920   13.7790   61.6210 C.3    70  GLY70       0.2014
     14  C         29.0200   14.8920   62.4190 C.2    70  GLY70       0.2639
     15  O         30.1090   14.7300   63.0030 O.2    70  GLY70      -0.2714
     16  N         28.3980   16.0640   62.3760 N.am   71  VAL71      -0.1963
     17  CA        28.8730   17.1830   63.1870 C.3    71  VAL71       0.1727
     18  C         28.4640   16.9930   64.6500 C.2    71  VAL71       0.2616
     19  O         29.2180   17.3840   65.5680 O.2    71  VAL71      -0.2715
     20  CB        28.4710   18.5740   62.6130 C.3    71  VAL71       0.0290
     21  CG1       26.9650   18.7880   62.6090 C.3    71  VAL71       0.0023
     22  CG2       29.1710   19.6880   63.3640 C.3    71  VAL71       0.0023
     23  N         27.2800   16.4360   64.8680 N.am   72  GLY72      -0.1955
     24  CA        26.8610   15.9690   66.1980 C.3    72  GLY72       0.1869
     25  C         27.6190   14.7090   66.5850 C.2    72  GLY72       0.2309
     26  O         27.7850   13.8070   65.7630 O.2    72  GLY72      -0.2863
     27  N         28.6230   20.0430   55.8210 N.3    95  LEU95      -0.1245
     28  CA        27.1710   19.8060   55.7770 C.3    95  LEU95       0.1561
     29  C         26.3060   21.0050   56.1750 C.2    95  LEU95       0.2260
     30  O         25.0870   20.8830   56.2320 O.2    95  LEU95      -0.2867
     31  CB        26.8190   18.6080   56.6730 C.3    95  LEU95       0.0270
     32  CG        27.3760   18.5680   58.1140 C.3    95  LEU95       0.0019
     33  CD1       27.0800   19.8170   58.9270 C.3    95  LEU95       0.0001
     34  CD2       26.8520   17.3570   58.8590 C.3    95  LEU95       0.0001
     35  N         18.6650   17.6370   67.6260 N.3   229  ARG229     -0.1245
     36  CA        18.5370   16.2870   68.1680 C.3   229  ARG229      0.1563
     37  C         17.1740   16.1230   68.8290 C.2   229  ARG229      0.2260
     38  O         16.6590   17.0540   69.4540 O.2   229  ARG229     -0.2867
     39  CB        19.6510   16.0060   69.1950 C.3   229  ARG229      0.0307
     40  CG        21.0310   15.7730   68.5790 C.3   229  ARG229      0.0489
     41  CD        21.1090   14.4280   67.8760 C.3   229  ARG229      0.2205
     42  NE        22.4150   14.1360   67.2630 N.pl3 229  ARG229     -0.0865
     43  CZ        22.7820   14.4350   66.0110 C.cat 229  ARG229      0.5346
     44  NH1       21.9790   15.0930   65.1800 N.pl3 229  ARG229      0.1354
     45  NH2       23.9920   14.0900   65.5940 N.pl3 229  ARG229      0.1354
     46  N         15.2810   11.7650   59.6730 N.3   276  HIS276     -0.1241
     47  CA        16.6230   12.2750   59.9190 C.3   276  HIS276      0.1621
     48  C         17.4110   12.4650   58.6200 C.2   276  HIS276      0.2264
     49  O         18.4830   11.8880   58.4420 O.2   276  HIS276     -0.2867
     50  CB        17.3340   11.3660   60.9320 C.3   276  HIS276      0.0745
     51  CG        18.4430   12.0370   61.6840 C.ar  276  HIS276      0.0817
     52  ND1       18.8650   11.6150   62.9270 N.ar  276  HIS276     -0.2268
     53  CD2       19.2230   13.0910   61.3650 C.ar  276  HIS276      0.1154
     54  CE1       19.8600   12.3860   63.3400 C.ar  276  HIS276      0.1986
     55  NE2       20.0970   13.2920   62.4100 N.ar  276  HIS276     -0.2212
     56  N         21.0940   16.1510   56.2850 N.3   279  SER279     -0.1217
     57  CA        22.3360   16.1330   55.4740 C.3   279  SER279      0.1889
     58  C         22.3570   15.0460   54.3800 C.2   279  SER279      0.2288
     59  O         23.3560   14.8940   53.6860 O.2   279  SER279     -0.2866
     60  CB        23.5640   15.9610   56.3650 C.3   279  SER279      0.2089
     61  OG        23.6310   14.6600   56.8970 O.3   279  SER279     -0.2183
     62  N         26.8190   13.6800   51.9000 N.3   285  ARG285     -0.1245
     63  CA        27.2910   12.4880   52.5970 C.3   285  ARG285      0.1563
     64  C         28.6640   12.0250   52.0810 C.2   285  ARG285      0.2260
     65  O         29.4610   11.5150   52.8610 O.2   285  ARG285     -0.2867
     66  CB        26.2660   11.3620   52.5570 C.3   285  ARG285      0.0307
     67  CG        25.0400   11.6430   53.4280 C.3   285  ARG285      0.0489
     68  CD        25.3520   11.6370   54.9220 C.3   285  ARG285      0.2205
     69  NE        24.2060   11.9610   55.7700 N.pl3 285  ARG285     -0.0865
     70  CZ        23.3040   11.0840   56.2220 C.cat 285  ARG285      0.5346
     71  NH1       22.2910   11.5140   56.9700 N.pl3 285  ARG285      0.1354
     72  NH2       23.3790    9.8020   55.9340 N.pl3 285  ARG285      0.1354
     73  N         31.0300   14.3350   53.8980 N.3   288  MET288     -0.1245
     74  CA        31.1480   13.8600   55.2820 C.3   288  MET288      0.1570
     75  C         32.0470   12.6250   55.3780 C.2   288  MET288      0.2261
     76  O         32.8980   12.5560   56.2720 O.2   288  MET288     -0.2867
     77  CB        29.7710   13.5650   55.8890 C.3   288  MET288      0.0387
     78  CG        28.9490   14.8330   56.1220 C.3   288  MET288      0.0595
     79  SD        27.1930   14.5380   56.3350 S.3   288  MET288     -0.1393
     80  CE        27.1740   13.7280   57.9210 C.3   288  MET288      0.0692
@<TRIPOS>BOND
     1    62    63    1
     2    64    63    1
     3    64    65    2
     4    66    63    1
     5    66    67    1
     6    67    68    1
     7    59    58    2
     8    73    74    1
     9    58    57    1
    10    68    69    1
    11    74    75    1
    12    74    77    1
    13    75    76    2
    14    57    56    1
    15    57    60    1
    16    69    70    2
    17    28    27    1
    18    28    29    1
    19    28    31    1
    20    77    78    1
    21    72    70    1
    22    78    79    1
    23    29    30    2
    24    70    71    1
    25    79    80    1
    26    60    61    1
    27    11    10   ar
    28    11     9   ar
    29    10     8   ar
    30    31    32    1
    31     9     7   ar
    32     8     6   ar
    33    32    34    1
    34    32    33    1
    35    49    48    2
    36    48    47    1
    37     7     6   ar
    38     6     5    1
    39    46    47    1
    40    47    50    1
    41     5     2    1
    42    50    51    1
    43     2     3    1
    44     2     1    1
    45    12     3   am
    46    12    13    1
    47    53    51   ar
    48    53    55   ar
    49     3     4    2
    50    13    14    1
    51    51    52   ar
    52    16    14   am
    53    16    17    1
    54    55    54   ar
    55    14    15    2
    56    21    20    1
    57    20    17    1
    58    20    22    1
    59    52    54   ar
    60    17    18    1
    61    18    23   am
    62    18    19    2
    63    23    24    1
    64    44    43    1
    65    45    43    1
    66    26    25    2
    67    43    42    2
    68    24    25    1
    69    42    41    1
    70    35    36    1
    71    41    40    1
    72    36    37    1
    73    36    39    1
    74    40    39    1
    75    37    38    2
