@<TRIPOS>MOLECULE
tmp/5v6uB00.pdb
 98 92 0 0 0
SMALL
GASTEIGER

@<TRIPOS>ATOM
      1  N        -39.9040    3.6000   10.9260 N.3   108  ILE108     -0.1231
      2  CA       -39.6450    4.6650   11.8950 C.3   108  ILE108      0.1692
      3  C        -40.8410    5.6010   12.0360 C.2   108  ILE108      0.2591
      4  O        -41.1640    6.0440   13.1410 O.2   108  ILE108     -0.2718
      5  CB       -38.3800    5.4450   11.5040 C.3   108  ILE108      0.0266
      6  CG1      -37.1510    4.5220   11.5410 C.3   108  ILE108      0.0019
      7  CG2      -38.1980    6.6070   12.4570 C.3   108  ILE108      0.0020
      8  CD1      -35.8990    5.1160   10.8410 C.3   108  ILE108      0.0001
      9  N        -41.5460    5.8880   10.9380 N.am  109  LYS109     -0.1980
     10  CA       -42.6820    6.7960   11.0530 C.3   109  LYS109      0.1596
     11  C        -43.7640    6.2170   11.9560 C.2   109  LYS109      0.2287
     12  O        -44.4050    6.9530   12.7150 O.2   109  LYS109     -0.2864
     13  CB       -43.2530    7.1250    9.6790 C.3   109  LYS109      0.0298
     14  CG       -44.1800    8.3180    9.6990 C.3   109  LYS109      0.0038
     15  CD       -44.5750    8.7750    8.2960 C.3   109  LYS109      0.0206
     16  CE       -46.0610    8.4740    8.0630 C.3   109  LYS109      0.1093
     17  NZ       -46.8270    9.5820    7.4180 N.3   109  LYS109     -0.1314
     18  N        -42.7020    6.8330   15.6880 N.3   112  THR112     -0.1203
     19  CA       -42.8340    8.1920   16.1720 C.3   112  THR112      0.1994
     20  C        -44.2570    8.7130   16.1130 C.2   112  THR112      0.2617
     21  O        -44.5360    9.7430   16.7220 O.2   112  THR112     -0.2717
     22  CB       -41.9650    9.1470   15.3550 C.3   112  THR112      0.1784
     23  OG1      -42.4260    9.1770   13.9940 O.3   112  THR112     -0.2211
     24  CG2      -40.5200    8.7140   15.3960 C.3   112  THR112      0.0376
     25  N        -45.1680    8.0440   15.4140 N.am  113  ALA113     -0.1979
     26  CA       -46.4820    8.6430   15.2370 C.3   113  ALA113      0.1597
     27  C        -47.2660    8.6520   16.5410 C.2   113  ALA113      0.2287
     28  O        -48.0690    9.5620   16.7860 O.2   113  ALA113     -0.2864
     29  CB       -47.2410    7.9070   14.1390 C.3   113  ALA113      0.0319
     30  N        -47.6400   12.1280   18.0940 N.3   116  ARG116     -0.1245
     31  CA       -48.1810   13.2800   17.4040 C.3   116  ARG116      0.1563
     32  C        -49.1020   14.0650   18.3330 C.2   116  ARG116      0.2260
     33  O        -49.5620   13.5640   19.3490 O.2   116  ARG116     -0.2867
     34  CB       -48.9610   12.8430   16.1800 C.3   116  ARG116      0.0307
     35  CG       -48.0860   12.4890   15.0240 C.3   116  ARG116      0.0489
     36  CD       -48.6840   11.3700   14.2480 C.3   116  ARG116      0.2205
     37  NE       -50.0150   11.7660   13.8130 N.pl3 116  ARG116     -0.0865
     38  CZ       -50.4100   11.7800   12.5430 C.cat 116  ARG116      0.5346
     39  NH1      -49.5780   11.3920   11.5790 N.pl3 116  ARG116      0.1354
     40  NH2      -51.6400   12.1740   12.2460 N.pl3 116  ARG116      0.1354
     41  N        -47.5020   17.4520   13.5890 N.3   141  GLU141     -0.1245
     42  CA       -46.0760   17.1300   13.5040 C.3   141  GLU141      0.1567
     43  C        -45.1680   18.1630   14.1650 C.2   141  GLU141      0.2260
     44  O        -43.9520   17.9520   14.2020 O.2   141  GLU141     -0.2867
     45  CB       -45.6070   16.9890   12.0460 C.3   141  GLU141      0.0388
     46  CG       -46.5830   16.3750   11.0480 C.3   141  GLU141      0.1160
     47  CD       -47.2250   17.4050   10.1190 C.2   141  GLU141      0.3649
     48  OE1      -47.2170   17.1600    8.8830 O.co2 141  GLU141     -0.2457
     49  OE2      -47.7310   18.4370   10.6200 O.co2 141  GLU141     -0.2457
     50  N        -41.3110   18.1140   16.8290 N.3   144  PHE144     -0.1241
     51  CA       -40.4620   16.9330   16.7320 C.3   144  PHE144      0.1605
     52  C        -39.0640   17.3460   16.2800 C.2   144  PHE144      0.2264
     53  O        -38.8940   18.2920   15.5060 O.2   144  PHE144     -0.2867
     54  CB       -40.9910   15.9310   15.7210 C.3   144  PHE144      0.0534
     55  CG       -42.1570   15.1390   16.1810 C.ar  144  PHE144     -0.0203
     56  CD1      -43.4000   15.7110   16.2920 C.ar  144  PHE144     -0.0042
     57  CD2      -42.0260   13.7920   16.4550 C.ar  144  PHE144     -0.0042
     58  CE1      -44.4980   14.9540   16.6880 C.ar  144  PHE144     -0.0003
     59  CE2      -43.1220   13.0310   16.8490 C.ar  144  PHE144     -0.0003
     60  CZ       -44.3610   13.6180   16.9620 C.ar  144  PHE144     -0.0000
     61  N        -35.5350   15.1320   14.8760 N.3   146  PHE146     -0.1241
     62  CA       -34.8830   13.8650   14.5940 C.3   146  PHE146      0.1605
     63  C        -33.4280   14.1380   14.3080 C.2   146  PHE146      0.2264
     64  O        -33.1190   14.9810   13.4600 O.2   146  PHE146     -0.2867
     65  CB       -35.4640   13.1750   13.3900 C.3   146  PHE146      0.0534
     66  CG       -36.9060   12.8860   13.5040 C.ar  146  PHE146     -0.0203
     67  CD1      -37.8460   13.8650   13.2490 C.ar  146  PHE146     -0.0042
     68  CD2      -37.3400   11.6250   13.8590 C.ar  146  PHE146     -0.0042
     69  CE1      -39.1950   13.5860   13.3500 C.ar  146  PHE146     -0.0003
     70  CE2      -38.6890   11.3530   13.9590 C.ar  146  PHE146     -0.0003
     71  CZ       -39.6090   12.3370   13.7040 C.ar  146  PHE146     -0.0000
     72  N        -30.4220   11.9530   13.0390 N.3   148  TYR148     -0.1241
     73  CA       -29.9850   10.6560   12.5470 C.3   148  TYR148      0.1605
     74  C        -28.4670   10.6100   12.4520 C.2   148  TYR148      0.2264
     75  O        -27.8160   11.6050   12.1160 O.2   148  TYR148     -0.2867
     76  CB       -30.5380   10.3670   11.1790 C.3   148  TYR148      0.0534
     77  CG       -32.0010   10.2630   11.0180 C.ar  148  TYR148     -0.0201
     78  CD1      -32.7840   11.4100   10.8030 C.ar  148  TYR148     -0.0009
     79  CD2      -32.6050    9.0170   10.8790 C.ar  148  TYR148     -0.0009
     80  CE1      -34.1840   11.3180   10.5460 C.ar  148  TYR148      0.0417
     81  CE2      -33.9980    8.9000   10.6360 C.ar  148  TYR148      0.0417
     82  CZ       -34.7820   10.0510   10.4670 C.ar  148  TYR148      0.1957
     83  OH       -36.1400    9.9130   10.2140 O.3   148  TYR148     -0.2866
     84  N        -33.3120   16.8120   11.4720 N.3   202  VAL202     -0.1245
     85  CA       -34.5760   17.2430   10.8640 C.3   202  VAL202      0.1561
     86  C        -35.3570   17.9400   11.9560 C.2   202  VAL202      0.2260
     87  O        -35.8200   17.2830   12.8890 O.2   202  VAL202     -0.2867
     88  CB       -35.3810   16.0610   10.3060 C.3   202  VAL202      0.0252
     89  CG1      -36.6170   16.5360    9.5920 C.3   202  VAL202      0.0019
     90  CG2      -34.5210   15.1960    9.3910 C.3   202  VAL202      0.0019
     91  N        -38.4500   20.2500   13.4610 N.3   204  MET204     -0.1245
     92  CA       -39.7290   20.9330   13.4250 C.3   204  MET204      0.1570
     93  C        -40.0270   21.6060   14.7500 C.2   204  MET204      0.2261
     94  O        -41.1920   21.8460   15.0850 O.2   204  MET204     -0.2867
     95  CB       -40.8160   19.9560   13.0210 C.3   204  MET204      0.0387
     96  CG       -40.4350   19.4670   11.6920 C.3   204  MET204      0.0595
     97  SD       -40.9000   17.8300   11.2770 S.3   204  MET204     -0.1393
     98  CE       -39.3700   17.0060   11.6890 C.3   204  MET204      0.0692
@<TRIPOS>BOND
     1    17    16    1
     2    16    15    1
     3    15    14    1
     4    48    47   ar
     5    90    88    1
     6    89    88    1
     7    13    14    1
     8    13    10    1
     9    47    49   ar
    10    47    46    1
    11    83    82    1
    12    88    85    1
    13    82    80   ar
    14    82    81   ar
    15    80    78   ar
    16    81    79   ar
    17    78    77   ar
    18     8     6    1
    19    85    84    1
    20    85    86    1
    21    79    77   ar
    22     1     2    1
    23     9    10    1
    24     9     3   am
    25    77    76    1
    26    46    45    1
    27    10    11    1
    28    76    73    1
    29    97    98    1
    30    97    96    1
    31     5     6    1
    32     5     2    1
    33     5     7    1
    34    39    38    1
    35    96    95    1
    36     2     3    1
    37    86    87    2
    38    11    12    2
    39     3     4    2
    40    45    42    1
    41    75    74    2
    42    40    38    1
    43    74    73    1
    44    38    37    2
    45    73    72    1
    46    95    92    1
    47    67    69   ar
    48    67    66   ar
    49    69    71   ar
    50    65    66    1
    51    65    62    1
    52    92    91    1
    53    92    93    1
    54    64    63    2
    55    42    41    1
    56    42    43    1
    57    66    68   ar
    58    71    70   ar
    59    37    36    1
    60    68    70   ar
    61    23    22    1
    62    29    26    1
    63    43    44    2
    64    36    35    1
    65    63    62    1
    66    62    61    1
    67    93    94    2
    68    35    34    1
    69    26    25    1
    70    26    27    1
    71    22    24    1
    72    22    19    1
    73    25    20   am
    74    53    52    2
    75    18    19    1
    76    54    55    1
    77    54    51    1
    78    20    19    1
    79    20    21    2
    80    34    31    1
    81    55    56   ar
    82    55    57   ar
    83    52    51    1
    84    56    58   ar
    85    57    59   ar
    86    27    28    2
    87    58    60   ar
    88    51    50    1
    89    59    60   ar
    90    31    30    1
    91    31    32    1
    92    32    33    2
