@<TRIPOS>MOLECULE
tmp/5v6vB01.pdb
 187 180 0 0 0
SMALL
GASTEIGER

@<TRIPOS>ATOM
      1  N         -5.0490    4.7230  -12.4890 N.3     8  VAL8       -0.1231
      2  CA        -4.2190    3.9460  -11.5780 C.3     8  VAL8        0.1692
      3  C         -4.5150    2.4620  -11.7650 C.2     8  VAL8        0.2593
      4  O         -5.5040    2.0680  -12.3820 O.2     8  VAL8       -0.2718
      5  CB        -4.4050    4.3700  -10.1050 C.3     8  VAL8        0.0266
      6  CG1       -4.2960    5.8850   -9.9920 C.3     8  VAL8        0.0020
      7  CG2       -5.7110    3.8970   -9.5570 C.3     8  VAL8        0.0020
      8  N         -3.6370    1.6390  -11.2180 N.am    9  GLY9       -0.1942
      9  CA        -3.7270    0.1950  -11.3820 C.3     9  GLY9        0.2014
     10  C         -2.3410   -0.4140  -11.4720 C.2     9  GLY9        0.2639
     11  O         -1.3420    0.2780  -11.6300 O.2     9  GLY9       -0.2714
     12  N         -2.3030   -1.7410  -11.3970 N.am   10  ALA10      -0.1963
     13  CA        -1.0360   -2.4590  -11.3050 C.3    10  ALA10       0.1728
     14  C         -0.2770   -2.3730  -12.6220 C.2    10  ALA10       0.2616
     15  O         -0.8310   -2.0210  -13.6620 O.2    10  ALA10      -0.2715
     16  CB        -1.2700   -3.9270  -10.9550 C.3    10  ALA10       0.0334
     17  N          1.0090   -2.7090  -12.5700 N.am   11  CYS11      -0.1968
     18  CA         1.8080   -2.7520  -13.7870 C.3    11  CYS11       0.1712
     19  C          1.2020   -3.7040  -14.7920 C.2    11  CYS11       0.2296
     20  O          0.8160   -4.8210  -14.4510 O.2    11  CYS11      -0.2864
     21  CB         3.2250   -3.2140  -13.5050 C.3    11  CYS11       0.0983
     22  SG         4.1400   -2.0450  -12.5450 S.3    11  CYS11      -0.0798
     23  N         -2.9920    0.7730  -18.4670 N.3    15  LYS15      -0.1245
     24  CA        -3.2650    2.1840  -18.1960 C.3    15  LYS15       0.1561
     25  C         -2.8370    3.0640  -19.3630 C.2    15  LYS15       0.2260
     26  O         -3.6020    3.9140  -19.8340 O.2    15  LYS15      -0.2867
     27  CB        -2.5430    2.6280  -16.9220 C.3    15  LYS15       0.0271
     28  CG        -2.9610    1.9170  -15.6360 C.3    15  LYS15       0.0035
     29  CD        -2.2010    2.4360  -14.4430 C.3    15  LYS15       0.0206
     30  CE        -0.6980    2.1270  -14.4840 C.3    15  LYS15       0.1093
     31  NZ        -0.4140    0.6600  -14.5790 N.3    15  LYS15      -0.1314
     32  N         -0.6170    7.2720  -14.6440 N.3    57  THR57      -0.1203
     33  CA         0.4060    7.1100  -13.6060 C.3    57  THR57       0.1994
     34  C          1.3900    5.9910  -13.9380 C.2    57  THR57       0.2618
     35  O          1.0270    4.9280  -14.4550 O.2    57  THR57      -0.2717
     36  CB        -0.2130    6.8490  -12.2220 C.3    57  THR57       0.1784
     37  OG1       -0.9400    5.6160  -12.2140 O.3    57  THR57      -0.2211
     38  CG2       -1.1080    7.9840  -11.8010 C.3    57  THR57       0.0376
     39  N          2.6590    6.2460  -13.6210 N.am   58  ALA58      -0.1965
     40  CA         3.7230    5.2680  -13.7770 C.3    58  ALA58       0.1728
     41  C          4.7710    5.5400  -12.7040 C.2    58  ALA58       0.2617
     42  O          4.8540    6.6450  -12.1560 O.2    58  ALA58      -0.2715
     43  CB         4.3410    5.3400  -15.1790 C.3    58  ALA58       0.0334
     44  N          5.5710    4.5210  -12.4080 N.am   59  GLY59      -0.1940
     45  CA         6.6470    4.6760  -11.4430 C.3    59  GLY59       0.2014
     46  C          6.7430    3.5350  -10.4540 C.2    59  GLY59       0.2639
     47  O          6.3600    2.4040  -10.7680 O.2    59  GLY59      -0.2714
     48  N          7.2580    3.8200   -9.2590 N.am   60  GLN60      -0.1963
     49  CA         7.5760    2.8050   -8.2580 C.3    60  GLN60       0.1733
     50  C          6.5190    2.7050   -7.1580 C.2    60  GLN60       0.2616
     51  O          5.7090    3.6090   -6.9560 O.2    60  GLN60      -0.2715
     52  CB         8.9330    3.1060   -7.6210 C.3    60  GLN60       0.0408
     53  CG        10.1240    2.7970   -8.5270 C.3    60  GLN60       0.0908
     54  CD        10.1540    3.6470   -9.7740 C.2    60  GLN60       0.2608
     55  OE1       10.0440    3.1400  -10.8920 O.2    60  GLN60      -0.2717
     56  NE2       10.2980    4.9510   -9.5920 N.am   60  GLN60      -0.0878
     57  N          6.5780    1.5950   -6.4110 N.am   61  GLU61      -0.1963
     58  CA         5.6650    1.3350   -5.2880 C.3    61  GLU61       0.1733
     59  C          6.1610    2.0500   -4.0320 C.2    61  GLU61       0.2616
     60  O          6.6090    1.4380   -3.0620 O.2    61  GLU61      -0.2715
     61  CB         5.5570   -0.1550   -4.9950 C.3    61  GLU61       0.0429
     62  CG         5.2110   -1.0380   -6.1500 C.3    61  GLU61       0.1163
     63  CD         5.0170   -2.4800   -5.7140 C.2    61  GLU61       0.3649
     64  OE1        4.5320   -2.7050   -4.5780 O.co2  61  GLU61      -0.2457
     65  OE2        5.3610   -3.3890   -6.4990 O.co2  61  GLU61      -0.2457
     66  N          6.0390    3.3700   -4.0320 N.am   62  GLU62      -0.1963
     67  CA         6.6300    4.1150   -2.9320 C.3    62  GLU62       0.1733
     68  C          5.8290    5.3690   -2.6560 C.2    62  GLU62       0.2616
     69  O          5.2160    5.9400   -3.5560 O.2    62  GLU62      -0.2715
     70  CB         8.0840    4.5010   -3.2180 C.3    62  GLU62       0.0429
     71  CG         8.2500    5.5570   -4.2800 C.3    62  GLU62       0.1163
     72  CD         9.7260    5.7730   -4.6650 C.2    62  GLU62       0.3649
     73  OE1       10.6140    5.5990   -3.8060 O.co2  62  GLU62      -0.2457
     74  OE2        9.9850    6.1170   -5.8300 O.co2  62  GLU62      -0.2457
     75  N          5.8310    5.7820   -1.3970 N.am   63  TYR63      -0.1974
     76  CA         5.1040    6.9700   -1.0170 C.3    63  TYR63       0.1639
     77  C          6.0700    8.1500   -0.8740 C.2    63  TYR63       0.2290
     78  O          7.2450    7.9960   -0.5020 O.2    63  TYR63      -0.2864
     79  CB         4.2700    6.6360    0.2300 C.3    63  TYR63       0.0560
     80  CG         3.2550    5.5560   -0.1720 C.ar   63  TYR63      -0.0198
     81  CD1        1.9610    5.8900   -0.5960 C.ar   63  TYR63      -0.0009
     82  CD2        3.6290    4.2180   -0.2380 C.ar   63  TYR63      -0.0009
     83  CE1        1.0760    4.9110   -1.0000 C.ar   63  TYR63       0.0417
     84  CE2        2.7510    3.2500   -0.6470 C.ar   63  TYR63       0.0417
     85  CZ         1.4850    3.6020   -1.0300 C.ar   63  TYR63       0.1957
     86  OH         0.6120    2.6280   -1.4250 O.3    63  TYR63      -0.2866
     87  N          4.1000   13.1640   -3.7050 N.3    67  ARG67      -0.1231
     88  CA         3.2230   12.2570   -4.4340 C.3    67  ARG67       0.1694
     89  C          1.7970   12.3370   -3.9010 C.2    67  ARG67       0.2592
     90  O          0.8380   12.3790   -4.6770 O.2    67  ARG67      -0.2718
     91  CB         3.7580   10.8230   -4.3460 C.3    67  ARG67       0.0321
     92  CG         3.0980    9.8440   -5.3000 C.3    67  ARG67       0.0489
     93  CD         3.1780   10.3600   -6.7120 C.3    67  ARG67       0.2205
     94  NE         2.6840    9.4260   -7.7080 N.pl3  67  ARG67      -0.0865
     95  CZ         2.6790    9.6840   -9.0140 C.cat  67  ARG67       0.5346
     96  NH1        3.1510   10.8390   -9.4700 N.pl3  67  ARG67       0.1354
     97  NH2        2.2120    8.7890   -9.8650 N.pl3  67  ARG67       0.1354
     98  N          1.6430   12.3900   -2.5750 N.am   68  ASP68      -0.1974
     99  CA         0.3190   12.5470   -1.9790 C.3    68  ASP68       0.1709
    100  C         -0.3750   13.8040   -2.4910 C.2    68  ASP68       0.2293
    101  O         -1.5470   13.7640   -2.8830 O.2    68  ASP68      -0.2864
    102  CB         0.4390   12.5880   -0.4570 C.3    68  ASP68       0.1436
    103  CG         0.4430   11.2110    0.1630 C.2    68  ASP68       0.3671
    104  OD1        0.4640   10.2160   -0.5960 O.co2  68  ASP68      -0.2456
    105  OD2        0.4230   11.1200    1.4110 O.co2  68  ASP68      -0.2456
    106  N         -1.4370   13.4370   -6.2260 N.3    71  MET71      -0.1245
    107  CA        -2.6320   12.6230   -6.4090 C.3    71  MET71       0.1570
    108  C         -3.8730   13.3510   -5.9140 C.2    71  MET71       0.2261
    109  O         -4.9710   13.1550   -6.4550 O.2    71  MET71      -0.2867
    110  CB        -2.4420   11.2850   -5.6990 C.3    71  MET71       0.0387
    111  CG        -1.2970   10.4560   -6.2880 C.3    71  MET71       0.0595
    112  SD        -1.6100    9.8830   -7.9850 S.3    71  MET71      -0.1393
    113  CE        -3.0080    8.8210   -7.6910 C.3    71  MET71       0.0692
    114  N         -4.1310  -10.9840   -9.5130 N.3    87  LYS87      -0.1245
    115  CA        -3.4250  -10.1310   -8.5700 C.3    87  LYS87       0.1561
    116  C         -3.7490   -8.6660   -8.8030 C.2    87  LYS87       0.2260
    117  O         -3.8440   -7.8880   -7.8470 O.2    87  LYS87      -0.2867
    118  CB        -1.9160  -10.3510   -8.6730 C.3    87  LYS87       0.0271
    119  CG        -1.1170   -9.4200   -7.7750 C.3    87  LYS87       0.0035
    120  CD         0.3640   -9.7600   -7.7620 C.3    87  LYS87       0.0206
    121  CE         1.1130   -8.9230   -6.7280 C.3    87  LYS87       0.1093
    122  NZ         2.5890   -9.1300   -6.7910 N.3    87  LYS87      -0.1314
    123  N         -5.3030   -6.0720   -6.0140 N.3    91  ASP91      -0.1239
    124  CA        -4.6760   -4.7990   -5.6810 C.3    91  ASP91       0.1674
    125  C         -5.6570   -3.6300   -5.6840 C.2    91  ASP91       0.2266
    126  O         -5.3100   -2.5580   -5.1790 O.2    91  ASP91      -0.2867
    127  CB        -3.5540   -4.4770   -6.6760 C.3    91  ASP91       0.1410
    128  CG        -2.4580   -5.5240   -6.7110 C.2    91  ASP91       0.3668
    129  OD1       -2.2840   -6.2680   -5.7240 O.co2  91  ASP91      -0.2456
    130  OD2       -1.7490   -5.5690   -7.7430 O.co2  91  ASP91      -0.2456
    131  N         -6.2740   -1.8160   -2.4550 N.3    94  HIS94      -0.1226
    132  CA        -5.1780   -0.9630   -1.9960 C.3    94  HIS94       0.1752
    133  C         -5.1870    0.3900   -2.6950 C.2    94  HIS94       0.2596
    134  O         -4.9960    1.4310   -2.0460 O.2    94  HIS94      -0.2718
    135  CB        -3.8490   -1.6850   -2.2210 C.3    94  HIS94       0.0759
    136  CG        -2.6360   -0.8360   -1.9800 C.ar   94  HIS94       0.0818
    137  ND1       -2.2990   -0.3500   -0.7340 N.ar   94  HIS94      -0.2268
    138  CD2       -1.6560   -0.4210   -2.8210 C.ar   94  HIS94       0.1154
    139  CE1       -1.1770    0.3430   -0.8220 C.ar   94  HIS94       0.1986
    140  NE2       -0.7700    0.3230   -2.0780 N.ar   94  HIS94      -0.2212
    141  N         -5.3880    0.4000   -4.0180 N.am   95  TYR95      -0.1976
    142  CA        -5.4360    1.6660   -4.7480 C.3    95  TYR95       0.1639
    143  C         -6.5740    2.5340   -4.2370 C.2    95  TYR95       0.2290
    144  O         -6.3930    3.7330   -3.9920 O.2    95  TYR95      -0.2864
    145  CB        -5.5800    1.4130   -6.2570 C.3    95  TYR95       0.0560
    146  CG        -4.3450    0.7750   -6.8360 C.ar   95  TYR95      -0.0198
    147  CD1       -3.1410    1.4490   -6.8280 C.ar   95  TYR95      -0.0009
    148  CD2       -4.3790   -0.5100   -7.3500 C.ar   95  TYR95      -0.0009
    149  CE1       -1.9930    0.8620   -7.3250 C.ar   95  TYR95       0.0417
    150  CE2       -3.2360   -1.1120   -7.8430 C.ar   95  TYR95       0.0417
    151  CZ        -2.0490   -0.4200   -7.8270 C.ar   95  TYR95       0.1957
    152  OH        -0.9000   -1.0000   -8.3220 O.3    95  TYR95      -0.2866
    153  N         -5.6710    4.0450   -0.8750 N.3    98  GLN98      -0.1231
    154  CA        -4.7100    5.1420   -0.9500 C.3    98  GLN98       0.1698
    155  C         -5.3520    6.4050   -1.5120 C.2    98  GLN98       0.2592
    156  O         -5.0240    7.5170   -1.0860 O.2    98  GLN98      -0.2718
    157  CB        -3.4970    4.7310   -1.7890 C.3    98  GLN98       0.0381
    158  CG        -2.7020    3.5610   -1.2140 C.3    98  GLN98       0.0905
    159  CD        -2.2990    3.7830    0.2410 C.2    98  GLN98       0.2608
    160  OE1       -1.7990    4.8430    0.6060 O.2    98  GLN98      -0.2717
    161  NE2       -2.5130    2.7760    1.0660 N.am   98  GLN98      -0.0878
    162  N         -6.2810    6.2620   -2.4570 N.am   99  ILE99      -0.1980
    163  CA        -7.0020    7.4330   -2.9510 C.3    99  ILE99       0.1595
    164  C         -7.8480    8.0440   -1.8380 C.2    99  ILE99       0.2287
    165  O         -7.8370    9.2570   -1.6250 O.2    99  ILE99      -0.2864
    166  CB        -7.8630    7.0670   -4.1690 C.3    99  ILE99       0.0276
    167  CG1       -6.9760    6.6340   -5.3420 C.3    99  ILE99       0.0022
    168  CG2       -8.7280    8.2520   -4.5380 C.3    99  ILE99       0.0022
    169  CD1       -7.6920    5.8410   -6.4140 C.3    99  ILE99       0.0001
    170  N         -7.3640    7.8960    1.3020 N.3   101  ARG101     -0.1231
    171  CA        -6.4660    8.5210    2.2580 C.3   101  ARG101      0.1694
    172  C         -6.0700    9.9290    1.8200 C.2   101  ARG101      0.2591
    173  O         -6.2280   10.8870    2.5840 O.2   101  ARG101     -0.2718
    174  CB        -5.2230    7.6430    2.4630 C.3   101  ARG101      0.0321
    175  CG        -4.2430    8.2310    3.4510 C.3   101  ARG101      0.0489
    176  CD        -3.0220    7.3420    3.6810 C.3   101  ARG101      0.2205
    177  NE        -2.2130    7.1700    2.4770 N.pl3 101  ARG101     -0.0865
    178  CZ        -1.4280    8.1030    1.9490 C.cat 101  ARG101      0.5346
    179  NH1       -1.3270    9.3090    2.4950 N.pl3 101  ARG101      0.1354
    180  NH2       -0.7480    7.8250    0.8540 N.pl3 101  ARG101      0.1354
    181  N         -5.5420   10.0840    0.5970 N.am  102  VAL102     -0.1980
    182  CA        -5.0510   11.4040    0.2050 C.3   102  VAL102      0.1595
    183  C         -6.2050   12.3730   -0.0240 C.2   102  VAL102      0.2287
    184  O         -6.0850   13.5680    0.2710 O.2   102  VAL102     -0.2864
    185  CB        -4.1240   11.3330   -1.0280 C.3   102  VAL102      0.0276
    186  CG1       -2.9450   10.4170   -0.7730 C.3   102  VAL102      0.0022
    187  CG2       -4.8660   10.9080   -2.2960 C.3   102  VAL102      0.0022
@<TRIPOS>BOND
     1    26    25    2
     2    25    24    1
     3    23    24    1
     4    24    27    1
     5    27    28    1
     6    28    29    1
     7    43    40    1
     8    19    20    2
     9    19    18    1
    10    32    33    1
    11    31    30    1
    12    30    29    1
    13    35    34    2
    14    34    39   am
    15    34    33    1
    16    18    21    1
    17    18    17    1
    18    40    39    1
    19    40    41    1
    20    15    14    2
    21    33    36    1
    22    21    22    1
    23    41    44   am
    24    41    42    2
    25    14    17   am
    26    14    13    1
    27     1     2    1
    28    44    45    1
    29     4     3    2
    30    36    37    1
    31    36    38    1
    32     3     2    1
    33     3     8   am
    34    11    10    2
    35     2     5    1
    36    10    12   am
    37    10     9    1
    38    45    46    1
    39    12    13    1
    40     9     8    1
    41    13    16    1
    42    55    54    2
    43    47    46    2
    44    46    48   am
    45     5     6    1
    46     5     7    1
    47    97    95    1
    48    54    56   am
    49    54    53    1
    50   114   115    1
    51    96    95    1
    52    48    49    1
    53    95    94    2
    54   116   115    1
    55   116   117    2
    56   118   115    1
    57   118   119    1
    58    53    52    1
    59   152   151    1
    60    49    52    1
    61    49    50    1
    62   112   113    1
    63   112   111    1
    64   150   151   ar
    65   150   148   ar
    66   151   149   ar
    67   119   120    1
    68   120   121    1
    69   130   128   ar
    70    94    93    1
    71   148   146   ar
    72   149   147   ar
    73    50    51    2
    74    50    57   am
    75   146   147   ar
    76   146   145    1
    77   122   121    1
    78    93    92    1
    79   128   127    1
    80   128   129   ar
    81   127   124    1
    82    65    63   ar
    83   109   108    2
    84   169   167    1
    85    57    58    1
    86   107   106    1
    87   107   108    1
    88   107   110    1
    89   111   110    1
    90   145   142    1
    91    62    63    1
    92    62    61    1
    93   123   124    1
    94    74    72   ar
    95    63    64   ar
    96   125   124    1
    97   125   126    2
    98   167   166    1
    99    92    91    1
   100    58    61    1
   101    58    59    1
   102   142   143    1
   103   142   141    1
   104    90    89    2
   105    72    71    1
   106    72    73   ar
   107   168   166    1
   108    88    91    1
   109    88    89    1
   110    88    87    1
   111    71    70    1
   112   143   144    2
   113   166   163    1
   114    66    59   am
   115    66    67    1
   116    59    60    2
   117   141   133   am
   118    89    98   am
   119    69    68    2
   120    70    67    1
   121   163   162    1
   122   163   164    1
   123    67    68    1
   124   101   100    2
   125   138   140   ar
   126   138   136   ar
   127   133   134    2
   128   133   132    1
   129    68    75   am
   130    98    99    1
   131   100    99    1
   132   162   155   am
   133   131   132    1
   134   187   185    1
   135   135   132    1
   136   135   136    1
   137   140   139   ar
   138   136   137   ar
   139    99   102    1
   140   164   165    2
   141   157   158    1
   142   157   154    1
   143   155   156    2
   144   155   154    1
   145    86    85    1
   146    75    76    1
   147   158   159    1
   148    85    83   ar
   149    85    84   ar
   150   185   186    1
   151   185   182    1
   152    76    77    1
   153    76    79    1
   154    83    81   ar
   155   154   153    1
   156    77    78    2
   157   139   137   ar
   158    84    82   ar
   159   104   103   ar
   160    81    80   ar
   161   102   103    1
   162    82    80   ar
   163    80    79    1
   164   183   182    1
   165   183   184    2
   166   103   105   ar
   167   182   181    1
   168   159   160    2
   169   159   161   am
   170   181   172   am
   171   180   178    1
   172   170   171    1
   173   172   171    1
   174   172   173    2
   175   178   177    2
   176   178   179    1
   177   171   174    1
   178   174   175    1
   179   177   176    1
   180   175   176    1
