@<TRIPOS>MOLECULE
tmp/5v6zB00.pdb
 106 99 0 0 0
SMALL
GASTEIGER

@<TRIPOS>ATOM
      1  N         36.7420   -4.3870    5.5870 N.3    98  ASN98      -0.1240
      2  CA        38.0250   -4.5610    6.2480 C.3    98  ASN98       0.1653
      3  C         38.3730   -3.4920    7.3050 C.2    98  ASN98       0.2266
      4  O         39.3880   -3.6870    8.0100 O.2    98  ASN98      -0.2867
      5  CB        39.1720   -4.6110    5.2040 C.3    98  ASN98       0.1155
      6  CG        40.3100   -5.5270    5.5900 C.2    98  ASN98       0.2627
      7  OD1       40.0960   -6.6670    5.9990 O.2    98  ASN98      -0.2716
      8  ND2       41.5600   -5.0640    5.4230 N.am   98  ASN98      -0.0877
      9  N         40.5290   -3.5540   10.7090 N.3   109  ILE109     -0.1231
     10  CA        40.2300   -4.5480   11.7320 C.3   109  ILE109      0.1692
     11  C         41.4160   -5.4860   11.9240 C.2   109  ILE109      0.2591
     12  O         41.7180   -5.8980   13.0500 O.2   109  ILE109     -0.2718
     13  CB        38.9470   -5.3040   11.3380 C.3   109  ILE109      0.0266
     14  CG1       37.7540   -4.3310   11.3680 C.3   109  ILE109      0.0019
     15  CG2       38.7060   -6.5010   12.2420 C.3   109  ILE109      0.0020
     16  CD1       36.4090   -4.9410   10.9380 C.3   109  ILE109      0.0001
     17  N         42.1640   -5.7530   10.8590 N.am  110  LYS110     -0.1980
     18  CA        43.3210   -6.6300   10.9600 C.3   110  LYS110      0.1596
     19  C         44.3900   -6.0330   11.8400 C.2   110  LYS110      0.2287
     20  O         45.1070   -6.7690   12.5200 O.2   110  LYS110     -0.2864
     21  CB        43.9030   -6.9110    9.5860 C.3   110  LYS110      0.0298
     22  CG        44.9090   -8.0200    9.5610 C.3   110  LYS110      0.0038
     23  CD        45.3150   -8.3100    8.1370 C.3   110  LYS110      0.0206
     24  CE        46.0090   -9.6520    8.0020 C.3   110  LYS110      0.1093
     25  NZ        47.1850   -9.5570    7.0780 N.3   110  LYS110     -0.1314
     26  N         43.2050   -6.6850   15.6350 N.3   113  THR113     -0.1203
     27  CA        43.3230   -8.0600   16.1040 C.3   113  THR113      0.1994
     28  C         44.7420   -8.6050   16.0380 C.2   113  THR113      0.2617
     29  O         45.0230   -9.6040   16.7070 O.2   113  THR113     -0.2717
     30  CB        42.3980   -8.9890   15.3190 C.3   113  THR113      0.1784
     31  OG1       42.7670   -8.9730   13.9340 O.3   113  THR113     -0.2211
     32  CG2       40.9430   -8.5520   15.4850 C.3   113  THR113      0.0376
     33  N         45.6330   -7.9920   15.2530 N.am  114  ALA114     -0.1979
     34  CA        46.9890   -8.5180   15.1180 C.3   114  ALA114      0.1597
     35  C         47.7240   -8.5500   16.4560 C.2   114  ALA114      0.2287
     36  O         48.5610   -9.4320   16.6900 O.2   114  ALA114     -0.2864
     37  CB        47.7640   -7.6920   14.0960 C.3   114  ALA114      0.0319
     38  N         48.1810  -11.9320   18.0990 N.3   117  ARG117     -0.1245
     39  CA        48.7900  -13.0570   17.4050 C.3   117  ARG117      0.1563
     40  C         49.7530  -13.7810   18.3300 C.2   117  ARG117      0.2260
     41  O         50.3110  -13.1910   19.2580 O.2   117  ARG117     -0.2867
     42  CB        49.5130  -12.5860   16.1530 C.3   117  ARG117      0.0307
     43  CG        48.5640  -12.0540   15.1220 C.3   117  ARG117      0.0489
     44  CD        49.2980  -11.6070   13.8810 C.3   117  ARG117      0.2205
     45  NE        48.9900  -12.5350   12.7960 N.pl3 117  ARG117     -0.0865
     46  CZ        48.5770  -12.2140   11.5570 C.cat 117  ARG117      0.5346
     47  NH1       48.3750  -10.9410   11.1810 N.pl3 117  ARG117      0.1354
     48  NH2       48.3290  -13.2120   10.7060 N.pl3 117  ARG117      0.1354
     49  N         47.9440  -17.6120   13.5440 N.3   140  GLU140     -0.1245
     50  CA        46.5150  -17.3320   13.4170 C.3   140  GLU140      0.1567
     51  C         45.6180  -18.4400   13.9190 C.2   140  GLU140      0.2260
     52  O         44.3960  -18.2680   13.8740 O.2   140  GLU140     -0.2867
     53  CB        46.0600  -17.0890   11.9700 C.3   140  GLU140      0.0388
     54  CG        46.5000  -15.8410   11.2930 C.3   140  GLU140      0.1160
     55  CD        45.9210  -15.7530    9.8710 C.2   140  GLU140      0.3649
     56  OE1       45.7540  -16.8150    9.2220 O.co2 140  GLU140     -0.2457
     57  OE2       45.5710  -14.6240    9.4270 O.co2 140  GLU140     -0.2457
     58  N         41.9150  -18.1220   16.6500 N.3   143  PHE143     -0.1241
     59  CA        41.0940  -16.9240   16.5200 C.3   143  PHE143      0.1605
     60  C         39.6880  -17.3300   16.0910 C.2   143  PHE143      0.2264
     61  O         39.4890  -18.3680   15.4600 O.2   143  PHE143     -0.2867
     62  CB        41.6730  -15.9760   15.4760 C.3   143  PHE143      0.0534
     63  CG        42.7830  -15.1290   15.9770 C.ar  143  PHE143     -0.0203
     64  CD1       44.0270  -15.6780   16.2340 C.ar  143  PHE143     -0.0042
     65  CD2       42.6210  -13.7630   16.1140 C.ar  143  PHE143     -0.0042
     66  CE1       45.0760  -14.8860   16.6900 C.ar  143  PHE143     -0.0003
     67  CE2       43.6770  -12.9550   16.5750 C.ar  143  PHE143     -0.0003
     68  CZ        44.9040  -13.5210   16.8510 C.ar  143  PHE143     -0.0000
     69  N         36.1210  -14.9890   14.6550 N.3   145  PHE145     -0.1241
     70  CA        35.4350  -13.7330   14.3920 C.3   145  PHE145      0.1605
     71  C         33.9730  -14.0030   14.1110 C.2   145  PHE145      0.2264
     72  O         33.6430  -14.8420   13.2680 O.2   145  PHE145     -0.2867
     73  CB        36.0510  -13.0270   13.1870 C.3   145  PHE145      0.0534
     74  CG        37.5160  -12.7800   13.3240 C.ar  145  PHE145     -0.0203
     75  CD1       38.4370  -13.7760   13.0090 C.ar  145  PHE145     -0.0042
     76  CD2       37.9830  -11.5320   13.6960 C.ar  145  PHE145     -0.0042
     77  CE1       39.8040  -13.5390   13.1440 C.ar  145  PHE145     -0.0003
     78  CE2       39.3490  -11.2970   13.8190 C.ar  145  PHE145     -0.0003
     79  CZ        40.2540  -12.2950   13.5410 C.ar  145  PHE145     -0.0000
     80  N         31.1230  -11.7620   12.7620 N.3   147  TYR147     -0.1241
     81  CA        30.6910  -10.4900   12.1890 C.3   147  TYR147      0.1605
     82  C         29.1770  -10.4190   12.1790 C.2   147  TYR147      0.2264
     83  O         28.4970  -11.4200   11.9640 O.2   147  TYR147     -0.2867
     84  CB        31.1950  -10.2930   10.7710 C.3   147  TYR147      0.0534
     85  CG        32.6650  -10.0830   10.6450 C.ar  147  TYR147     -0.0201
     86  CD1       33.5540  -11.1750   10.5150 C.ar  147  TYR147     -0.0009
     87  CD2       33.1950   -8.7890   10.6380 C.ar  147  TYR147     -0.0009
     88  CE1       34.9790  -10.9820   10.3850 C.ar  147  TYR147      0.0417
     89  CE2       34.6120   -8.5750   10.5380 C.ar  147  TYR147      0.0417
     90  CZ        35.4920   -9.6760   10.4120 C.ar  147  TYR147      0.1957
     91  OH        36.8580   -9.4540   10.3020 O.3   147  TYR147     -0.2866
     92  N         33.9130  -16.7110   11.1770 N.3   200  VAL200     -0.1245
     93  CA        35.1910  -17.1930   10.6370 C.3   200  VAL200      0.1561
     94  C         35.9240  -17.8690   11.7760 C.2   200  VAL200      0.2260
     95  O         36.2640  -17.2160   12.7690 O.2   200  VAL200     -0.2867
     96  CB        36.0670  -16.0750   10.0500 C.3   200  VAL200      0.0252
     97  CG1       37.2810  -16.6710    9.3850 C.3   200  VAL200      0.0019
     98  CG2       35.3010  -15.2220    9.0380 C.3   200  VAL200      0.0019
     99  N         39.1530  -20.1210   13.1550 N.3   202  MET202     -0.1245
    100  CA        40.4880  -20.6970   13.0910 C.3   202  MET202      0.1570
    101  C         40.7320  -21.5230   14.3490 C.2   202  MET202      0.2261
    102  O         41.8880  -21.8180   14.6730 O.2   202  MET202     -0.2867
    103  CB        41.5410  -19.5970   13.0500 C.3   202  MET202      0.0387
    104  CG        42.1300  -18.9880   11.7660 C.3   202  MET202      0.0595
    105  SD        40.8650  -18.0870   10.9340 S.3   202  MET202     -0.1393
    106  CE        40.5280  -16.6060   11.8700 C.3   202  MET202      0.0692
@<TRIPOS>BOND
     1     5     6    1
     2     5     2    1
     3     8     6   am
     4     1     2    1
     5     6     7    2
     6     2     3    1
     7    25    24    1
     8     3     4    2
     9    24    23    1
    10    23    22    1
    11    98    96    1
    12    56    55   ar
    13    97    96    1
    14    57    55   ar
    15    22    21    1
    16    21    18    1
    17    55    54    1
    18    96    93    1
    19    91    90    1
    20    88    90   ar
    21    88    86   ar
    22    90    89   ar
    23    86    85   ar
    24    89    87   ar
    25    93    92    1
    26    93    94    1
    27    87    85   ar
    28    85    84    1
    29    48    46    1
    30     9    10    1
    31    84    81    1
    32    17    18    1
    33    17    11   am
    34   105   104    1
    35   105   106    1
    36    16    14    1
    37    18    19    1
    38    47    46    1
    39    54    53    1
    40    13    14    1
    41    13    10    1
    42    13    15    1
    43    46    45    2
    44    10    11    1
    45   104   103    1
    46    94    95    2
    47    19    20    2
    48    11    12    2
    49    83    82    2
    50    53    50    1
    51    82    81    1
    52    81    80    1
    53    45    44    1
    54    75    77   ar
    55    75    74   ar
    56   103   100    1
    57   100    99    1
    58   100   101    1
    59    77    79   ar
    60    73    74    1
    61    73    70    1
    62    72    71    2
    63    74    76   ar
    64    50    49    1
    65    50    51    1
    66    79    78   ar
    67    76    78   ar
    68    52    51    2
    69    44    43    1
    70    31    30    1
    71    37    34    1
    72    71    70    1
    73   101   102    2
    74    70    69    1
    75    34    33    1
    76    34    35    1
    77    43    42    1
    78    33    28   am
    79    30    32    1
    80    30    27    1
    81    61    60    2
    82    62    63    1
    83    62    59    1
    84    26    27    1
    85    63    65   ar
    86    63    64   ar
    87    28    27    1
    88    28    29    2
    89    60    59    1
    90    65    67   ar
    91    42    39    1
    92    64    66   ar
    93    35    36    2
    94    59    58    1
    95    67    68   ar
    96    66    68   ar
    97    39    38    1
    98    39    40    1
    99    40    41    2
