@<TRIPOS>MOLECULE
tmp/5v71F01.pdb
 127 120 0 0 0
SMALL
GASTEIGER

@<TRIPOS>ATOM
      1  N         -8.0190  116.8280    4.8710 N.3    10  VAL10      -0.1231
      2  CA        -6.9770  116.0770    4.1900 C.3    10  VAL10       0.1692
      3  C         -6.7780  114.7540    4.9210 C.2    10  VAL10       0.2592
      4  O         -7.2270  114.5640    6.0580 O.2    10  VAL10      -0.2718
      5  CB        -5.6500  116.8670    4.1060 C.3    10  VAL10       0.0266
      6  CG1       -5.8590  118.1890    3.3450 C.3    10  VAL10       0.0020
      7  CG2       -5.0770  117.1310    5.5110 C.3    10  VAL10       0.0020
      8  N         -6.1060  113.8390    4.2450 N.am   11  GLY11      -0.1957
      9  CA        -5.9320  112.4850    4.7370 C.3    11  GLY11       0.1869
     10  C         -5.8150  111.5240    3.5810 C.2    11  GLY11       0.2309
     11  O         -6.0530  111.8730    2.4310 O.2    11  GLY11      -0.2863
     12  N         -6.3870  108.2300    1.0570 N.3    13  CYS13      -0.1221
     13  CA        -7.5240  107.5730    0.4250 C.3    13  CYS13       0.1808
     14  C         -8.2730  106.6970    1.4200 C.2    13  CYS13       0.2601
     15  O         -7.6660  105.9720    2.2160 O.2    13  CYS13      -0.2717
     16  CB        -7.0730  106.6990   -0.7500 C.3    13  CYS13       0.0970
     17  SG        -6.8040  107.5940   -2.2580 S.3    13  CYS13      -0.0800
     18  N         -9.6050  106.7710    1.3610 N.am   14  GLY14      -0.1957
     19  CA       -10.4710  105.8530    2.0780 C.3    14  GLY14       0.1869
     20  C        -10.6440  106.1050    3.5660 C.2    14  GLY14       0.2309
     21  O        -11.3010  105.2970    4.2340 O.2    14  GLY14      -0.2863
     22  N        -12.8000  111.2410    4.4560 N.3    17  LYS17      -0.1245
     23  CA       -12.8790  112.6960    4.2830 C.3    17  LYS17       0.1561
     24  C        -14.2280  113.0870    3.6960 C.2    17  LYS17       0.2260
     25  O        -14.9410  113.9410    4.2470 O.2    17  LYS17      -0.2867
     26  CB       -11.7480  113.1980    3.3730 C.3    17  LYS17       0.0271
     27  CG       -10.3340  112.8300    3.7990 C.3    17  LYS17       0.0035
     28  CD        -9.2780  113.4380    2.8590 C.3    17  LYS17       0.0206
     29  CE        -9.3040  112.8010    1.4720 C.3    17  LYS17       0.1093
     30  NZ        -8.9900  111.3310    1.4610 N.3    17  LYS17      -0.1314
     31  N        -13.6420  108.6400   -5.1770 N.3    35  PRO35      -0.2116
     32  CA       -12.4610  109.1550   -4.4620 C.3    35  PRO35       0.1372
     33  C        -11.6820  110.2100   -5.2240 C.2    35  PRO35       0.2244
     34  O        -10.7760  110.8200   -4.6470 O.2    35  PRO35      -0.2868
     35  CB       -11.6060  107.9020   -4.2530 C.3    35  PRO35       0.0268
     36  CG       -12.0320  106.9680   -5.3730 C.3    35  PRO35       0.0207
     37  CD       -13.4960  107.2260   -5.5640 C.3    35  PRO35       0.0892
     38  N        -10.6630  117.3470    0.0480 N.3    59  THR59      -0.1203
     39  CA        -9.6130  117.0800   -0.9420 C.3    59  THR59       0.1994
     40  C         -9.6550  115.6330   -1.4470 C.2    59  THR59       0.2618
     41  O         -9.9880  114.7160   -0.7010 O.2    59  THR59      -0.2717
     42  CB        -8.2240  117.3730   -0.3590 C.3    59  THR59       0.1784
     43  OG1       -7.9860  116.5390    0.7780 O.3    59  THR59      -0.2211
     44  CG2       -8.1000  118.8240    0.0680 C.3    59  THR59       0.0376
     45  N         -9.2900  115.4310   -2.7190 N.am   60  ALA60      -0.1965
     46  CA        -9.2300  114.1000   -3.3130 C.3    60  ALA60       0.1728
     47  C         -7.8890  113.7930   -3.9620 C.2    60  ALA60       0.2617
     48  O         -7.7360  112.7140   -4.5520 O.2    60  ALA60      -0.2715
     49  CB       -10.3630  113.9100   -4.3340 C.3    60  ALA60       0.0334
     50  N         -6.9270  114.7120   -3.8750 N.am   61  GLY61      -0.1940
     51  CA        -5.5180  114.4350   -4.1120 C.3    61  GLY61       0.2014
     52  C         -5.1200  114.1890   -5.5490 C.2    61  GLY61       0.2638
     53  O         -4.0360  113.6480   -5.8070 O.2    61  GLY61      -0.2714
     54  N         -5.9740  114.5700   -6.4920 N.am   62  GLN62      -0.1977
     55  CA        -5.7800  114.2860   -7.9070 C.3    62  GLN62       0.1601
     56  C         -4.7030  115.1880   -8.4990 C.2    62  GLN62       0.2287
     57  O         -4.3670  116.2380   -7.9520 O.2    62  GLN62      -0.2864
     58  CB        -7.1050  114.4620   -8.6380 C.3    62  GLN62       0.0394
     59  CG        -8.1960  113.5570   -8.0460 C.3    62  GLN62       0.0908
     60  CD        -7.7180  112.1060   -7.9910 C.2    62  GLN62       0.2608
     61  OE1       -7.3990  111.4860   -9.0320 O.2    62  GLN62      -0.2717
     62  NE2       -7.6260  111.5680   -6.7790 N.am   62  GLN62      -0.0878
     63  N         -8.2960  124.5810   -5.3830 N.3    69  ARG69      -0.1245
     64  CA        -7.4760  123.8950   -4.3850 C.3    69  ARG69       0.1563
     65  C         -6.3360  124.7910   -3.9000 C.2    69  ARG69       0.2260
     66  O         -6.1570  124.9820   -2.6890 O.2    69  ARG69      -0.2867
     67  CB        -6.9500  122.5790   -4.9610 C.3    69  ARG69       0.0307
     68  CG        -5.7190  122.0130   -4.2620 C.3    69  ARG69       0.0489
     69  CD        -5.2070  120.7210   -4.9400 C.3    69  ARG69       0.2205
     70  NE        -5.8660  119.5540   -4.3780 N.pl3  69  ARG69      -0.0865
     71  CZ        -5.3980  118.3030   -4.4190 C.cat  69  ARG69       0.5346
     72  NH1       -6.0980  117.3430   -3.8190 N.pl3  69  ARG69       0.1354
     73  NH2       -4.2350  118.0060   -5.0220 N.pl3  69  ARG69       0.1354
     74  N         -5.6880  126.0780   -0.2070 N.3    73  MET73      -0.1245
     75  CA        -4.4390  125.8620    0.5160 C.3    73  MET73       0.1570
     76  C         -3.8400  127.1890    0.9570 C.2    73  MET73       0.2261
     77  O         -3.3290  127.3150    2.0750 O.2    73  MET73      -0.2867
     78  CB        -3.4470  125.0950   -0.3550 C.3    73  MET73       0.0387
     79  CG        -3.8880  123.6960   -0.6980 C.3    73  MET73       0.0595
     80  SD        -4.1330  122.7330    0.8040 S.3    73  MET73      -0.1393
     81  CE        -4.7140  121.1910    0.0930 C.3    73  MET73       0.0692
     82  N          3.0210  113.0630    6.9270 N.3    96  HIS96      -0.1226
     83  CA         3.1730  113.6360    5.5950 C.3    96  HIS96       0.1752
     84  C          2.2200  114.8100    5.3810 C.2    96  HIS96       0.2596
     85  O          2.6070  115.8370    4.8080 O.2    96  HIS96      -0.2718
     86  CB         2.9480  112.5620    4.5300 C.3    96  HIS96       0.0759
     87  CG         2.8040  113.1120    3.1430 C.ar   96  HIS96       0.0818
     88  ND1        3.8860  113.4580    2.3620 N.ar   96  HIS96      -0.2268
     89  CD2        1.7020  113.3970    2.4060 C.ar   96  HIS96       0.1154
     90  CE1        3.4590  113.9310    1.2030 C.ar   96  HIS96       0.1986
     91  NE2        2.1380  113.9010    1.2030 N.ar   96  HIS96      -0.2212
     92  N          0.9680  114.6820    5.8210 N.am   97  TYR97      -0.1976
     93  CA         0.0490  115.7970    5.6120 C.3    97  TYR97       0.1639
     94  C          0.3890  116.9840    6.5210 C.2    97  TYR97       0.2290
     95  O          0.2080  118.1430    6.1240 O.2    97  TYR97      -0.2864
     96  CB        -1.4050  115.3190    5.7850 C.3    97  TYR97       0.0560
     97  CG        -1.8070  114.3280    4.6960 C.ar   97  TYR97      -0.0198
     98  CD1       -2.2970  114.7610    3.4570 C.ar   97  TYR97      -0.0009
     99  CD2       -1.6410  112.9670    4.8860 C.ar   97  TYR97      -0.0009
    100  CE1       -2.6220  113.8440    2.4490 C.ar   97  TYR97       0.0417
    101  CE2       -1.9620  112.0630    3.9040 C.ar   97  TYR97       0.0417
    102  CZ        -2.4540  112.4990    2.6890 C.ar   97  TYR97       0.1957
    103  OH        -2.7820  111.5520    1.7300 O.3    97  TYR97      -0.2866
    104  N          3.2310  118.7560    4.7570 N.3   100  GLN100     -0.1231
    105  CA         2.6870  119.4690    3.6050 C.3   100  GLN100      0.1698
    106  C          1.9280  120.7220    4.0390 C.2   100  GLN100      0.2592
    107  O          2.0820  121.7950    3.4380 O.2   100  GLN100     -0.2718
    108  CB         1.8040  118.5290    2.7950 C.3   100  GLN100      0.0381
    109  CG         2.6110  117.6410    1.8830 C.3   100  GLN100      0.0905
    110  CD         3.5270  118.4620    1.0170 C.2   100  GLN100      0.2608
    111  OE1        4.7180  118.5910    1.3000 O.2   100  GLN100     -0.2717
    112  NE2        2.9710  119.0510   -0.0390 N.am  100  GLN100     -0.0878
    113  N          1.1480  120.6150    5.1140 N.am  101  ILE101     -0.1980
    114  CA         0.4270  121.7610    5.6540 C.3   101  ILE101      0.1595
    115  C          1.3960  122.8340    6.1640 C.2   101  ILE101      0.2287
    116  O          1.1890  124.0350    5.9460 O.2   101  ILE101     -0.2864
    117  CB        -0.5300  121.2740    6.7510 C.3   101  ILE101      0.0276
    118  CG1       -1.7140  120.5580    6.1220 C.3   101  ILE101      0.0022
    119  CG2       -1.0070  122.4260    7.6160 C.3   101  ILE101      0.0022
    120  CD1       -2.5340  119.7670    7.1120 C.3   101  ILE101      0.0001
    121  N          2.9580  124.8250    3.0450 N.3   104  VAL104     -0.1245
    122  CA         2.1000  125.7430    2.3040 C.3   104  VAL104      0.1561
    123  C          1.8410  127.0110    3.1150 C.2   104  VAL104      0.2260
    124  O          1.6870  128.0980    2.5520 O.2   104  VAL104     -0.2867
    125  CB         0.7940  125.0480    1.8760 C.3   104  VAL104      0.0252
    126  CG1       -0.1200  124.8260    3.0600 C.3   104  VAL104      0.0019
    127  CG2        0.0870  125.8770    0.8210 C.3   104  VAL104      0.0019
@<TRIPOS>BOND
     1    61    60    2
     2    58    59    1
     3    58    55    1
     4    56    57    2
     5    56    55    1
     6    59    60    1
     7    60    62   am
     8    55    54    1
     9    54    52   am
    10    53    52    2
    11    37    36    1
    12    37    31    1
    13    52    51    1
    14    63    64    1
    15    36    35    1
    16    33    34    2
    17    33    32    1
    18    31    32    1
    19    73    71    1
    20    67    64    1
    21    67    68    1
    22    69    70    1
    23    69    68    1
    24    48    47    2
    25    32    35    1
    26    71    70    2
    27    71    72    1
    28    64    65    1
    29    49    46    1
    30    51    50    1
    31    47    50   am
    32    47    46    1
    33    65    66    2
    34    46    45    1
    35    45    40   am
    36    17    16    1
    37    40    39    1
    38    40    41    2
    39    39    42    1
    40    39    38    1
    41    16    13    1
    42    79    78    1
    43    79    80    1
    44    42    44    1
    45    42    43    1
    46    78    75    1
    47    74    75    1
    48   112   110   am
    49    81    80    1
    50    13    12    1
    51    13    14    1
    52    75    76    1
    53   127   125    1
    54    76    77    2
    55   110   111    2
    56   110   109    1
    57    91    90   ar
    58    91    89   ar
    59    90    88   ar
    60    18    14   am
    61    18    19    1
    62    14    15    2
    63    30    29    1
    64    29    28    1
    65   103   102    1
    66   125   122    1
    67   125   126    1
    68   109   108    1
    69    19    20    1
    70   122   121    1
    71   122   123    1
    72    88    87   ar
    73    89    87   ar
    74    11    10    2
    75   100   102   ar
    76   100    98   ar
    77   124   123    2
    78   102   101   ar
    79   108   105    1
    80    28    27    1
    81    87    86    1
    82     6     5    1
    83    26    27    1
    84    26    23    1
    85   107   106    2
    86    98    97   ar
    87    20    21    2
    88    10     9    1
    89   105   106    1
    90   105   104    1
    91    24    25    2
    92    24    23    1
    93   101    99   ar
    94   106   113   am
    95     5     2    1
    96     5     7    1
    97     2     1    1
    98     2     3    1
    99     8     9    1
   100     8     3   am
   101    23    22    1
   102    86    83    1
   103    97    99   ar
   104    97    96    1
   105    85    84    2
   106     3     4    2
   107   113   114    1
   108    84    83    1
   109    84    92   am
   110    83    82    1
   111    93    96    1
   112    93    92    1
   113    93    94    1
   114   114   115    1
   115   114   117    1
   116   116   115    2
   117   118   117    1
   118   118   120    1
   119    95    94    2
   120   117   119    1
