@<TRIPOS>MOLECULE
tmp/5v72C00.pdb
 119 109 0 0 0
SMALL
GASTEIGER

@<TRIPOS>ATOM
      1  N         28.7750   82.1210   27.5490 N.3    69  GLY69      -0.1210
      2  CA        28.1340   81.3620   28.6370 C.3    69  GLY69       0.1956
      3  C         28.1740   79.8800   28.3650 C.2    69  GLY69       0.2612
      4  O         28.2970   79.4710   27.2200 O.2    69  GLY69      -0.2717
      5  N         28.1180   79.0750   29.4100 N.am   70  VAL70      -0.1965
      6  CA        28.0140   77.6160   29.2390 C.3    70  VAL70       0.1727
      7  C         26.6060   77.2620   28.7400 C.2    70  VAL70       0.2616
      8  O         26.4510   76.3630   27.9090 O.2    70  VAL70      -0.2715
      9  CB        28.4000   76.8390   30.5340 C.3    70  VAL70       0.0290
     10  CG1       27.4370   77.1120   31.6880 C.3    70  VAL70       0.0023
     11  CG2       28.4480   75.3460   30.3010 C.3    70  VAL70       0.0023
     12  N         25.5930   77.9820   29.2360 N.am   71  GLY71      -0.1955
     13  CA        24.2130   77.8610   28.7400 C.3    71  GLY71       0.1869
     14  C         24.0180   78.6040   27.4210 C.2    71  GLY71       0.2309
     15  O         24.4840   79.7350   27.2640 O.2    71  GLY71      -0.2863
     16  N         34.5040   78.4570   33.6410 N.3    94  LEU94      -0.1245
     17  CA        33.7000   79.0440   34.7350 C.3    94  LEU94       0.1561
     18  C         33.3380   78.0460   35.8180 C.2    94  LEU94       0.2260
     19  O         32.6790   78.4270   36.7880 O.2    94  LEU94      -0.2867
     20  CB        32.4010   79.6620   34.1700 C.3    94  LEU94       0.0270
     21  CG        31.5220   78.8850   33.1860 C.3    94  LEU94       0.0019
     22  CD1       31.1050   77.5150   33.6670 C.3    94  LEU94       0.0001
     23  CD2       30.3020   79.6850   32.8380 C.3    94  LEU94       0.0001
     24  N         31.7850   79.0570   39.5960 N.3    98  VAL98      -0.1245
     25  CA        30.3840   78.7400   39.8780 C.3    98  VAL98       0.1561
     26  C         30.2780   77.8960   41.1360 C.2    98  VAL98       0.2260
     27  O         29.3970   78.1260   41.9800 O.2    98  VAL98      -0.2867
     28  CB        29.7070   78.0520   38.6560 C.3    98  VAL98       0.0252
     29  CG1       28.3300   77.4790   39.0060 C.3    98  VAL98       0.0019
     30  CG2       29.5810   79.0650   37.5190 C.3    98  VAL98       0.0019
     31  N         30.4500   70.8980   37.1810 N.3   151  ILE151     -0.1245
     32  CA        30.1060   71.8070   38.2700 C.3   151  ILE151      0.1561
     33  C         29.7390   71.0180   39.5270 C.2   151  ILE151      0.2260
     34  O         30.2150   71.3530   40.6110 O.2   151  ILE151     -0.2867
     35  CB        29.0240   72.8470   37.8840 C.3   151  ILE151      0.0252
     36  CG1       29.5980   73.8000   36.8230 C.3   151  ILE151      0.0019
     37  CG2       28.6370   73.7180   39.0810 C.3   151  ILE151      0.0019
     38  CD1       28.5860   74.7070   36.0870 C.3   151  ILE151      0.0001
     39  N         21.8550   71.9590   40.4280 N.3   198  ILE198     -0.1245
     40  CA        22.8480   72.3330   39.4320 C.3   198  ILE198      0.1561
     41  C         22.5550   71.7800   38.0240 C.2   198  ILE198      0.2260
     42  O         23.2710   72.0460   37.0820 O.2   198  ILE198     -0.2867
     43  CB        24.2870   71.8400   39.8180 C.3   198  ILE198      0.0252
     44  CG1       24.2500   70.5120   40.5970 C.3   198  ILE198      0.0019
     45  CG2       24.9900   72.9030   40.6050 C.3   198  ILE198      0.0019
     46  CD1       25.5750   69.8850   40.6820 C.3   198  ILE198      0.0001
     47  N         21.6460   70.8060   34.3350 N.3   200  PRO200     -0.2116
     48  CA        21.2850   71.5520   33.1240 C.3   200  PRO200      0.1372
     49  C         19.7380   71.6620   32.9110 C.2   200  PRO200      0.2244
     50  O         18.9640   70.6620   32.8380 O.2   200  PRO200     -0.2868
     51  CB        22.0200   70.7840   31.9990 C.3   200  PRO200      0.0268
     52  CG        23.1730   70.1550   32.6790 C.3   200  PRO200      0.0207
     53  CD        22.6390   69.7520   34.0390 C.3   200  PRO200      0.0892
     54  N         21.5520   77.1680   42.0010 N.3   226  VAL226     -0.1231
     55  CA        22.5280   77.8030   41.1500 C.3   226  VAL226      0.1692
     56  C         22.4790   77.2300   39.7150 C.2   226  VAL226      0.2592
     57  O         23.4080   77.4420   38.9340 O.2   226  VAL226     -0.2718
     58  CB        23.9490   77.7110   41.7140 C.3   226  VAL226      0.0266
     59  CG1       24.0520   78.5280   43.0050 C.3   226  VAL226      0.0020
     60  CG2       24.3830   76.2570   41.8890 C.3   226  VAL226      0.0020
     61  N         21.3630   76.5760   39.3520 N.am  227  GLY227     -0.1957
     62  CA        21.1440   76.1100   37.9670 C.3   227  GLY227      0.1869
     63  C         20.3190   77.0670   37.0990 C.2   227  GLY227      0.2309
     64  O         20.7980   78.1320   36.7230 O.2   227  GLY227     -0.2863
     65  N         20.2880   81.9230   43.3350 N.3   252  ASP252     -0.1225
     66  CA        21.0290   82.7910   42.4190 C.3   252  ASP252      0.1805
     67  C         20.2670   82.9810   41.0880 C.2   252  ASP252      0.2597
     68  O         20.7110   83.7480   40.2310 O.2   252  ASP252     -0.2718
     69  CB        22.4070   82.1780   42.1570 C.3   252  ASP252      0.1424
     70  CG        23.3490   83.1200   41.3920 C.2   252  ASP252      0.3668
     71  OD1       23.4790   84.3050   41.8080 O.co2 252  ASP252     -0.2456
     72  OD2       23.9510   82.6860   40.3550 O.co2 252  ASP252     -0.2456
     73  N         19.1470   82.2560   40.9080 N.am  253  VAL253     -0.1980
     74  CA        18.4080   82.2380   39.6430 C.3   253  VAL253      0.1595
     75  C         16.9170   82.1600   39.9500 C.2   253  VAL253      0.2287
     76  O         16.5050   81.6570   41.0130 O.2   253  VAL253     -0.2864
     77  CB        18.8250   81.0280   38.7430 C.3   253  VAL253      0.0276
     78  CG1       20.1870   81.2590   38.1400 C.3   253  VAL253      0.0022
     79  CG2       18.7760   79.6930   39.4910 C.3   253  VAL253      0.0022
     80  N         21.9590   86.4460   39.9860 N.3   275  HIS275     -0.1241
     81  CA        22.6080   85.6060   38.9610 C.3   275  HIS275      0.1621
     82  C         24.0870   85.9160   38.8090 C.2   275  HIS275      0.2264
     83  O         24.5470   86.2140   37.7460 O.2   275  HIS275     -0.2867
     84  CB        21.8580   85.7270   37.6060 C.3   275  HIS275      0.0745
     85  CG        21.9850   84.5190   36.7430 C.ar  275  HIS275      0.0817
     86  ND1       20.9870   84.1090   35.8750 N.ar  275  HIS275     -0.2268
     87  CD2       22.9800   83.6000   36.6450 C.ar  275  HIS275      0.1154
     88  CE1       21.3820   82.9990   35.2660 C.ar  275  HIS275      0.1986
     89  NE2       22.5800   82.6650   35.7200 N.ar  275  HIS275     -0.2212
     90  N         26.6980   83.7670   39.6870 N.3   277  ALA277     -0.1231
     91  CA        27.5340   82.5580   39.7560 C.3   277  ALA277      0.1694
     92  C         28.9120   82.6430   39.0670 C.2   277  ALA277      0.2592
     93  O         29.8920   82.1770   39.6320 O.2   277  ALA277     -0.2718
     94  CB        26.7750   81.3560   39.2730 C.3   277  ALA277      0.0304
     95  N         29.0010   83.2590   37.8850 N.am  278  SER278     -0.1952
     96  CA        30.2730   83.4020   37.1690 C.3   278  SER278      0.1924
     97  C         30.8120   84.8370   37.1270 C.2   278  SER278      0.2314
     98  O         31.7890   85.1040   36.4210 O.2   278  SER278     -0.2863
     99  CB        30.1000   82.9050   35.7550 C.3   278  SER278      0.2116
    100  OG        29.3300   83.8160   34.9640 O.3   278  SER278     -0.2180
    101  N         34.7360   86.1370   33.8710 N.3   284  ARG284     -0.1245
    102  CA        34.1480   86.7000   32.6550 C.3   284  ARG284      0.1563
    103  C         35.2070   87.0650   31.6090 C.2   284  ARG284      0.2260
    104  O         34.9120   86.9650   30.4330 O.2   284  ARG284     -0.2867
    105  CB        33.2420   87.8990   32.9720 C.3   284  ARG284      0.0307
    106  CG        32.0020   87.5430   33.7910 C.3   284  ARG284      0.0489
    107  CD        31.0060   86.7070   33.0270 C.3   284  ARG284      0.2205
    108  NE        29.8470   86.3400   33.8180 N.pl3 284  ARG284     -0.0865
    109  CZ        28.8030   87.1340   34.0430 C.cat 284  ARG284      0.5346
    110  NH1       27.7990   86.6990   34.8040 N.pl3 284  ARG284      0.1354
    111  NH2       28.7570   88.3740   33.5760 N.pl3 284  ARG284      0.1354
    112  N         35.8710   83.7040   29.9610 N.3   287  MET287     -0.1245
    113  CA        34.7200   83.4280   29.1110 C.3   287  MET287      0.1570
    114  C         34.7790   84.2490   27.8130 C.2   287  MET287      0.2261
    115  O         34.5590   83.6800   26.7470 O.2   287  MET287     -0.2867
    116  CB        33.4030   83.7010   29.8590 C.3   287  MET287      0.0387
    117  CG        33.1500   82.6860   30.9710 C.3   287  MET287      0.0595
    118  SD        31.9020   83.1860   32.1620 S.3   287  MET287     -0.1393
    119  CE        30.4540   83.0310   31.1470 C.3   287  MET287      0.0692
@<TRIPOS>BOND
     1   115   114    2
     2     4     3    2
     3    15    14    2
     4    14    13    1
     5     1     2    1
     6   114   113    1
     7     8     7    2
     8     3     2    1
     9     3     5   am
    10     7    12   am
    11     7     6    1
    12    13    12    1
    13   113   116    1
    14   113   112    1
    15     6     5    1
    16     6     9    1
    17   116   117    1
    18    11     9    1
    19   104   103    2
    20     9    10    1
    21   117   118    1
    22   119   118    1
    23   103   102    1
    24    51    52    1
    25    51    48    1
    26   102   105    1
    27   102   101    1
    28    52    53    1
    29    50    49    2
    30    23    21    1
    31    49    48    1
    32   105   106    1
    33   107   106    1
    34   107   108    1
    35    48    47    1
    36    21    22    1
    37    21    20    1
    38   111   109    1
    39    16    17    1
    40   108   109    2
    41    53    47    1
    42   109   110    1
    43    20    17    1
    44    17    18    1
    45   100    99    1
    46    88    89   ar
    47    88    86   ar
    48    89    87   ar
    49    99    96    1
    50    18    19    2
    51    86    85   ar
    52    38    36    1
    53    98    97    2
    54    87    85   ar
    55    64    63    2
    56    85    84    1
    57    36    35    1
    58    42    41    2
    59    63    62    1
    60    97    96    1
    61    96    95    1
    62    31    32    1
    63    30    28    1
    64    84    81    1
    65    83    82    2
    66    35    32    1
    67    35    37    1
    68    95    92   am
    69    62    61    1
    70    41    40    1
    71    78    77    1
    72    32    33    1
    73    28    29    1
    74    28    25    1
    75    77    79    1
    76    77    74    1
    77    82    81    1
    78    57    56    2
    79    81    80    1
    80    92    93    2
    81    92    91    1
    82    94    91    1
    83    61    56   am
    84    40    43    1
    85    40    39    1
    86    33    34    2
    87    24    25    1
    88    74    75    1
    89    74    73    1
    90    90    91    1
    91    56    55    1
    92    43    44    1
    93    43    45    1
    94    25    26    1
    95    75    76    2
    96    68    67    2
    97    72    70   ar
    98    44    46    1
    99    73    67   am
   100    67    66    1
   101    26    27    2
   102    55    58    1
   103    55    54    1
   104    70    71   ar
   105    70    69    1
   106    58    60    1
   107    58    59    1
   108    69    66    1
   109    66    65    1
