@<TRIPOS>MOLECULE
tmp/5v79A00.pdb
 166 153 0 0 0
SMALL
GASTEIGER

@<TRIPOS>ATOM
      1  N        -14.1250    0.0150  103.2870 N.3    20  ILE20      -0.1245
      2  CA       -15.3310    0.1900  104.0970 C.3    20  ILE20       0.1561
      3  C        -15.7230   -1.1240  104.7740 C.2    20  ILE20       0.2260
      4  O        -15.9230   -2.1450  104.1120 O.2    20  ILE20      -0.2867
      5  CB       -16.5090    0.7260  103.2430 C.3    20  ILE20       0.0252
      6  CG1      -16.1630    2.1220  102.6910 C.3    20  ILE20       0.0019
      7  CG2      -17.7910    0.8530  104.0700 C.3    20  ILE20       0.0019
      8  CD1      -17.1080    2.6450  101.6300 C.3    20  ILE20       0.0001
      9  N        -25.8500    6.2220  107.3130 N.3    52  THR52      -0.1218
     10  CA       -26.0470    7.6560  107.0290 C.3    52  THR52       0.1862
     11  C        -27.1040    7.9750  105.9430 C.2    52  THR52       0.2287
     12  O        -27.1940    9.1180  105.4930 O.2    52  THR52      -0.2866
     13  CB       -24.7190    8.3340  106.6380 C.3    52  THR52       0.1770
     14  OG1      -24.3860    7.9710  105.2970 O.3    52  THR52      -0.2211
     15  CG2      -23.5870    7.9300  107.5840 C.3    52  THR52       0.0375
     16  N        -15.7850    5.4230  112.2940 N.3    86  ASP86      -0.1239
     17  CA       -16.7930    6.2390  111.6830 C.3    86  ASP86       0.1674
     18  C        -17.8960    6.4300  112.7390 C.2    86  ASP86       0.2266
     19  O        -18.8670    5.6800  112.8010 O.2    86  ASP86      -0.2867
     20  CB       -17.2420    5.5250  110.3720 C.3    86  ASP86       0.1410
     21  CG       -18.5770    5.9800  109.8700 C.2    86  ASP86       0.3668
     22  OD1      -18.9360    7.1480  110.1280 O.co2  86  ASP86      -0.2456
     23  OD2      -19.2680    5.1650  109.2200 O.co2  86  ASP86      -0.2456
     24  N        -13.0900    9.4230  112.2380 N.3   105  ASN105     -0.1240
     25  CA       -13.7300    9.8570  110.9950 C.3   105  ASN105      0.1653
     26  C        -15.1860   10.1710  111.2690 C.2   105  ASN105      0.2266
     27  O        -16.0400    9.2840  111.2610 O.2   105  ASN105     -0.2867
     28  CB       -13.6010    8.7680  109.9290 C.3   105  ASN105      0.1155
     29  CG       -14.3150    9.1160  108.6330 C.2   105  ASN105      0.2627
     30  OD1      -14.2950   10.2610  108.1930 O.2   105  ASN105     -0.2716
     31  ND2      -14.9610    8.1260  108.0230 N.am  105  ASN105     -0.0877
     32  N        -18.4780   12.1950  110.2090 N.3   107  ILE107     -0.1245
     33  CA       -19.2600   12.9210  109.2030 C.3   107  ILE107      0.1561
     34  C        -19.8540   14.2400  109.7190 C.2   107  ILE107      0.2260
     35  O        -20.1230   15.1240  108.9210 O.2   107  ILE107     -0.2867
     36  CB       -20.3940   12.0530  108.5820 C.3   107  ILE107      0.0252
     37  CG1      -21.3340   11.5000  109.6630 C.3   107  ILE107      0.0019
     38  CG2      -19.7930   10.9170  107.7650 C.3   107  ILE107      0.0019
     39  CD1      -22.7230   11.1550  109.1580 C.3   107  ILE107      0.0001
     40  N        -10.7240   13.5610  110.9980 N.3   127  CYS127     -0.1235
     41  CA       -11.2110   13.9610  109.6660 C.3   127  CYS127      0.1677
     42  C        -12.3640   14.9250  109.8510 C.2   127  CYS127      0.2270
     43  O        -13.2840   14.6510  110.6090 O.2   127  CYS127     -0.2867
     44  CB       -11.6600   12.7460  108.8320 C.3   127  CYS127      0.0956
     45  SG       -12.1000   13.1710  107.1170 S.3   127  CYS127     -0.0801
     46  N        -15.3350   16.5410  107.8460 N.3   129  MET129     -0.1245
     47  CA       -16.1340   16.4000  106.6140 C.3   129  MET129      0.1570
     48  C        -17.2170   17.4640  106.5240 C.2   129  MET129      0.2261
     49  O        -17.8190   17.8160  107.5310 O.2   129  MET129     -0.2867
     50  CB       -16.7900   15.0120  106.5410 C.3   129  MET129      0.0387
     51  CG       -17.2310   14.5920  105.1380 C.3   129  MET129      0.0595
     52  SD       -18.3890   13.1930  105.1270 S.3   129  MET129     -0.1393
     53  CE       -19.8790   14.0510  105.6280 C.3   129  MET129      0.0692
     54  N        -12.4150   16.7280  104.0820 N.3   175  ASP175     -0.1239
     55  CA       -13.2590   15.9020  103.1900 C.3   175  ASP175      0.1674
     56  C        -14.4740   16.7130  102.7880 C.2   175  ASP175      0.2266
     57  O        -15.2640   17.0980  103.6330 O.2   175  ASP175     -0.2867
     58  CB       -13.6790   14.6110  103.9120 C.3   175  ASP175      0.1410
     59  CG       -14.4440   13.6020  103.0040 C.2   175  ASP175      0.3668
     60  OD1      -15.1090   14.0110  102.0170 O.co2 175  ASP175     -0.2456
     61  OD2      -14.3680   12.3760  103.3090 O.co2 175  ASP175     -0.2456
     62  N        -18.8300   14.1300   99.7990 N.3   178  PHE178     -0.1241
     63  CA       -19.5950   13.9390   98.5800 C.3   178  PHE178      0.1605
     64  C        -20.9120   13.2430   98.9480 C.2   178  PHE178      0.2264
     65  O        -20.9190   12.2520   99.6840 O.2   178  PHE178     -0.2867
     66  CB       -18.8050   13.1480   97.5190 C.3   178  PHE178      0.0534
     67  CG       -17.6870   13.9240   96.8710 C.ar  178  PHE178     -0.0203
     68  CD1      -17.9550   14.8790   95.8990 C.ar  178  PHE178     -0.0042
     69  CD2      -16.3770   13.6820   97.2090 C.ar  178  PHE178     -0.0042
     70  CE1      -16.9370   15.5910   95.2980 C.ar  178  PHE178     -0.0003
     71  CE2      -15.3420   14.3880   96.6100 C.ar  178  PHE178     -0.0003
     72  CZ       -15.6240   15.3330   95.6410 C.ar  178  PHE178     -0.0000
     73  N        -23.3120   14.6470  100.8140 N.3   180  PHE180     -0.1241
     74  CA       -23.8510   15.0530  102.1130 C.3   180  PHE180      0.1605
     75  C        -24.4480   16.4600  102.0420 C.2   180  PHE180      0.2264
     76  O        -23.8260   17.4630  102.4440 O.2   180  PHE180     -0.2867
     77  CB       -22.8040   14.9050  103.2020 C.3   180  PHE180      0.0534
     78  CG       -22.4950   13.4600  103.5720 C.ar  180  PHE180     -0.0203
     79  CD1      -21.4840   12.7650  102.9350 C.ar  180  PHE180     -0.0042
     80  CD2      -23.1960   12.8170  104.5870 C.ar  180  PHE180     -0.0042
     81  CE1      -21.1730   11.4580  103.2900 C.ar  180  PHE180     -0.0003
     82  CE2      -22.8980   11.5130  104.9530 C.ar  180  PHE180     -0.0003
     83  CZ       -21.8820   10.8290  104.2960 C.ar  180  PHE180     -0.0000
     84  N         -9.2560   13.6690  102.1610 N.3   205  LEU205     -0.1245
     85  CA        -9.8860   12.3420  102.1430 C.3   205  LEU205      0.1561
     86  C        -11.1670   12.4930  101.3320 C.2   205  LEU205      0.2260
     87  O        -11.8340   13.5350  101.4150 O.2   205  LEU205     -0.2867
     88  CB       -10.1970   11.8800  103.5710 C.3   205  LEU205      0.0270
     89  CG       -10.5210   10.3950  103.8390 C.3   205  LEU205      0.0019
     90  CD1      -10.2300   10.0300  105.2890 C.3   205  LEU205      0.0001
     91  CD2      -11.9590   10.0280  103.5400 C.3   205  LEU205      0.0001
     92  N        -14.8130   10.3260   99.7150 N.3   207  GLY207     -0.1225
     93  CA       -15.6360    9.1370   99.6490 C.3   207  GLY207      0.1811
     94  C        -16.7120    9.2880   98.5940 C.2   207  GLY207      0.2280
     95  O        -17.6790   10.0150   98.7800 O.2   207  GLY207     -0.2866
     96  N        -17.4760    6.2210   96.6000 N.3   209  SER209     -0.1202
     97  CA       -17.7830    4.8800   96.1500 C.3   209  SER209      0.2020
     98  C        -19.2480    4.4540   96.0950 C.2   209  SER209      0.2619
     99  O        -19.9200    4.4280   97.0880 O.2   209  SER209     -0.2717
    100  CB       -16.9780    3.8910   96.9960 C.3   209  SER209      0.2103
    101  OG       -17.3390    2.5700   96.7240 O.3   209  SER209     -0.2182
    102  N        -19.6740    4.0780   94.8900 N.am  210  ARG210     -0.1965
    103  CA       -21.0350    3.5940   94.6000 C.3   210  ARG210      0.1729
    104  C        -22.1450    4.6000   94.9240 C.2   210  ARG210      0.2616
    105  O        -23.3040    4.2130   95.0430 O.2   210  ARG210     -0.2715
    106  CB       -21.3220    2.2560   95.3110 C.3   210  ARG210      0.0348
    107  CG       -20.4400    1.0820   94.8860 C.3   210  ARG210      0.0492
    108  CD       -20.8100   -0.1550   95.7020 C.3   210  ARG210      0.2205
    109  NE       -19.8980   -1.3030   95.5670 N.pl3 210  ARG210     -0.0865
    110  CZ       -19.8750   -2.3550   96.4080 C.cat 210  ARG210      0.5346
    111  NH1      -20.6980   -2.4210   97.4680 N.pl3 210  ARG210      0.1354
    112  NH2      -19.0050   -3.3500   96.2100 N.pl3 210  ARG210      0.1354
    113  N        -21.8050    5.8830   95.0260 N.am  211  LYS211     -0.1963
    114  CA       -22.7680    6.8800   95.4860 C.3   211  LYS211      0.1728
    115  C        -23.6980    7.3770   94.3900 C.2   211  LYS211      0.2616
    116  O        -23.4900    7.1600   93.2040 O.2   211  LYS211     -0.2715
    117  CB       -22.0620    8.0700   96.1460 C.3   211  LYS211      0.0311
    118  CG       -21.5940    7.7730   97.5440 C.3   211  LYS211      0.0038
    119  CD       -21.0340    9.0040   98.2380 C.3   211  LYS211      0.0206
    120  CE       -20.5090    8.5730   99.5910 C.3   211  LYS211      0.1093
    121  NZ       -20.1310    9.7140  100.4500 N.3   211  LYS211     -0.1314
    122  N        -24.7340    8.0690   94.8400 N.am  212  SER212     -0.1950
    123  CA       -25.7360    8.6820   93.9920 C.3   212  SER212      0.1924
    124  C        -25.1880    9.5510   92.8680 C.2   212  SER212      0.2314
    125  O        -25.7290    9.5160   91.7700 O.2   212  SER212     -0.2863
    126  CB       -26.7140    9.4640   94.8820 C.3   212  SER212      0.2116
    127  OG       -27.8110    9.9550   94.1300 O.3   212  SER212     -0.2180
    128  N        -26.6450    0.4450   92.8310 N.3   222  PRO222     -0.2116
    129  CA       -25.3660    0.4250   93.5490 C.3   222  PRO222      0.1372
    130  C        -24.3700   -0.6590   93.1340 C.2   222  PRO222      0.2244
    131  O        -23.1530   -0.4190   93.1490 O.2   222  PRO222     -0.2868
    132  CB       -25.7850    0.2350   95.0130 C.3   222  PRO222      0.0268
    133  CG       -27.1370    0.8280   95.1030 C.3   222  PRO222      0.0207
    134  CD       -27.7790    0.6320   93.7600 C.3   222  PRO222      0.0892
    135  N        -21.9920    0.1230   89.7660 N.3   225  ARG225     -0.1245
    136  CA       -21.3330    1.4480   89.7700 C.3   225  ARG225      0.1563
    137  C        -19.8200    1.4330   89.8480 C.2   225  ARG225      0.2260
    138  O        -19.2050    2.4830   90.0300 O.2   225  ARG225     -0.2867
    139  CB       -21.8780    2.2620   90.9410 C.3   225  ARG225      0.0307
    140  CG       -23.3390    2.5780   90.7420 C.3   225  ARG225      0.0489
    141  CD       -23.8830    3.3900   91.8850 C.3   225  ARG225      0.2205
    142  NE       -25.3280    3.4840   91.8070 N.pl3 225  ARG225     -0.0865
    143  CZ       -26.1050    4.0920   92.6990 C.cat 225  ARG225      0.5346
    144  NH1      -25.5890    4.7050   93.7670 N.pl3 225  ARG225      0.1354
    145  NH2      -27.4220    4.1000   92.5000 N.pl3 225  ARG225      0.1354
    146  N        -11.9300    6.5270  100.0930 N.3   245  ARG245     -0.1245
    147  CA       -12.7580    5.5910  100.8480 C.3   245  ARG245      0.1563
    148  C        -13.6290    4.7960   99.8850 C.2   245  ARG245      0.2260
    149  O        -14.4290    5.3870   99.1690 O.2   245  ARG245     -0.2867
    150  CB       -13.6250    6.3540  101.8680 C.3   245  ARG245      0.0307
    151  CG       -14.5100    5.4800  102.7630 C.3   245  ARG245      0.0489
    152  CD       -15.2730    6.3980  103.7160 C.3   245  ARG245      0.2205
    153  NE       -16.2300    5.6980  104.5610 N.pl3 245  ARG245     -0.0865
    154  CZ       -17.4480    5.3080  104.1850 C.cat 245  ARG245      0.5346
    155  NH1      -17.9010    5.5440  102.9590 N.pl3 245  ARG245      0.1354
    156  NH2      -18.2310    4.6820  105.0630 N.pl3 245  ARG245      0.1354
    157  N        -15.6310    0.7450   98.6130 N.3   247  HIS247     -0.1241
    158  CA       -16.1230   -0.6290   98.8140 C.3   247  HIS247      0.1621
    159  C        -15.2400   -1.6430   98.0990 C.2   247  HIS247      0.2264
    160  O        -14.9800   -2.7010   98.6290 O.2   247  HIS247     -0.2867
    161  CB       -17.5250   -0.8010   98.2830 C.3   247  HIS247      0.0745
    162  CG       -18.5250    0.0700   98.9460 C.ar  247  HIS247      0.0817
    163  ND1      -18.9760    1.2470   98.3790 N.ar  247  HIS247     -0.2268
    164  CD2      -19.1460   -0.0410  100.1410 C.ar  247  HIS247      0.1154
    165  CE1      -19.8600    1.8060   99.1880 C.ar  247  HIS247      0.1986
    166  NE2      -19.9660    1.0550  100.2720 N.ar  247  HIS247     -0.2212
@<TRIPOS>BOND
     1   135   136    1
     2   136   137    1
     3   136   139    1
     4   137   138    2
     5   140   139    1
     6   140   141    1
     7   125   124    2
     8   142   141    1
     9   142   143    2
    10   145   143    1
    11   143   144    1
    12   128   129    1
    13   128   134    1
    14   124   123    1
    15   130   131    2
    16   130   129    1
    17   116   115    2
    18   129   132    1
    19   134   133    1
    20   123   122    1
    21   123   126    1
    22   127   126    1
    23   115   122   am
    24   115   114    1
    25   103   102    1
    26   103   104    1
    27   103   106    1
    28   107   106    1
    29   107   108    1
    30   102    98   am
    31   104   113   am
    32   104   105    2
    33   132   133    1
    34   113   114    1
    35    70    72   ar
    36    70    68   ar
    37   114   117    1
    38   109   108    1
    39   109   110    2
    40    72    71   ar
    41    68    67   ar
    42    98    97    1
    43    98    99    2
    44   117   118    1
    45    97    96    1
    46    97   100    1
    47   112   110    1
    48   110   111    1
    49    71    69   ar
    50   101   100    1
    51    67    69   ar
    52    67    66    1
    53    66    63    1
    54   118   119    1
    55   159   160    2
    56   159   158    1
    57   119   120    1
    58   161   158    1
    59   161   162    1
    60   163   162   ar
    61   163   165   ar
    62    63    64    1
    63    63    62    1
    64    94    95    2
    65    94    93    1
    66   157   158    1
    67   162   164   ar
    68    64    65    2
    69   149   148    2
    70   165   166   ar
    71   120   121    1
    72    93    92    1
    73   148   147    1
    74   146   147    1
    75   164   166   ar
    76    73    74    1
    77   147   150    1
    78    86    87    2
    79    86    85    1
    80     8     6    1
    81   150   151    1
    82    60    59   ar
    83    75    74    1
    84    75    76    2
    85    74    77    1
    86    85    84    1
    87    85    88    1
    88     6     5    1
    89   151   152    1
    90    56    55    1
    91    56    57    2
    92    79    81   ar
    93    79    78   ar
    94   155   154    1
    95    59    61   ar
    96    59    58    1
    97    55    58    1
    98    55    54    1
    99    77    78    1
   100     5     7    1
   101     5     2    1
   102     1     2    1
   103    81    83   ar
   104    91    89    1
   105    88    89    1
   106    78    80   ar
   107   152   153    1
   108    89    90    1
   109     2     3    1
   110     4     3    2
   111   154   153    2
   112   154   156    1
   113    83    82   ar
   114    80    82   ar
   115    52    51    1
   116    52    53    1
   117    51    50    1
   118    14    13    1
   119    12    11    2
   120    11    10    1
   121    48    47    1
   122    48    49    2
   123    50    47    1
   124    47    46    1
   125    13    10    1
   126    13    15    1
   127    10     9    1
   128    45    44    1
   129    38    36    1
   130    31    29   am
   131    30    29    2
   132    36    33    1
   133    36    37    1
   134    29    28    1
   135    44    41    1
   136    35    34    2
   137    39    37    1
   138    33    34    1
   139    33    32    1
   140    23    21   ar
   141    41    42    1
   142    41    40    1
   143    42    43    2
   144    21    22   ar
   145    21    20    1
   146    28    25    1
   147    20    17    1
   148    25    26    1
   149    25    24    1
   150    27    26    2
   151    17    16    1
   152    17    18    1
   153    18    19    2
