@<TRIPOS>MOLECULE
tmp/5v7aB00.pdb
 155 143 0 0 0
SMALL
GASTEIGER

@<TRIPOS>ATOM
      1  N        -12.2700   -2.1660   69.5430 N.3    21  ILE21      -0.1245
      2  CA       -11.4240   -3.0040   68.7110 C.3    21  ILE21       0.1561
      3  C        -12.2370   -4.1930   68.1870 C.2    21  ILE21       0.2260
      4  O        -12.9060   -4.8630   68.9490 O.2    21  ILE21      -0.2867
      5  CB       -10.1970   -3.4760   69.5070 C.3    21  ILE21       0.0252
      6  CG1       -9.3690   -2.2420   69.9180 C.3    21  ILE21       0.0019
      7  CG2       -9.3540   -4.4680   68.6930 C.3    21  ILE21       0.0019
      8  CD1       -8.3570   -2.5010   71.0110 C.3    21  ILE21       0.0001
      9  N         -2.5900   -9.5090   62.2710 N.3    52  SER52      -0.1202
     10  CA        -2.6980   -9.4850   63.7420 C.3    52  SER52       0.2020
     11  C         -2.1150   -8.1900   64.3330 C.2    52  SER52       0.2619
     12  O         -2.5150   -7.7980   65.4290 O.2    52  SER52      -0.2717
     13  CB        -2.0850  -10.7130   64.4220 C.3    52  SER52       0.2103
     14  OG        -3.0570  -11.7240   64.6390 O.3    52  SER52      -0.2182
     15  N         -1.1740   -7.5420   63.6260 N.am   53  THR53      -0.1938
     16  CA        -0.7130   -6.1620   63.9400 C.3    53  THR53       0.2028
     17  C         -0.0030   -6.0410   65.3140 C.2    53  THR53       0.2642
     18  O          0.4330   -4.9520   65.6930 O.2    53  THR53      -0.2714
     19  CB        -1.8760   -5.1070   63.8660 C.3    53  THR53       0.1808
     20  OG1       -2.6210   -5.2510   62.6530 O.3    53  THR53      -0.2208
     21  CG2       -1.3660   -3.6680   63.9270 C.3    53  THR53       0.0379
     22  N          0.1400   -7.1540   66.0360 N.am   54  ARG54      -0.1963
     23  CA         0.7610   -7.1750   67.3570 C.3    54  ARG54       0.1714
     24  C          2.2690   -7.3290   67.0910 C.2    54  ARG54       0.2458
     25  O          2.6890   -7.1750   65.9330 O.2    54  ARG54      -0.2730
     26  CB         0.1690   -8.3150   68.2180 C.3    54  ARG54       0.0347
     27  CG        -1.3570   -8.3570   68.3080 C.3    54  ARG54       0.0492
     28  CD        -1.8540   -8.4340   69.7560 C.3    54  ARG54       0.2205
     29  NE        -3.2260   -8.9380   69.8720 N.pl3  54  ARG54      -0.0865
     30  CZ        -3.5870  -10.2260   69.8400 C.cat  54  ARG54       0.5346
     31  NH1       -2.6830  -11.1960   69.6860 N.pl3  54  ARG54       0.1354
     32  NH2       -4.8750  -10.5570   69.9580 N.pl3  54  ARG54       0.1354
     33  N          3.0650   -7.6130   68.1130 N.am   55  PRO55      -0.2727
     34  CA         4.5070   -7.7730   67.9000 C.3    55  PRO55       0.1402
     35  C          4.8340   -9.1470   67.3220 C.2    55  PRO55       0.2269
     36  O          4.3570  -10.1520   67.8490 O.2    55  PRO55      -0.2865
     37  CB         5.0820   -7.6440   69.3110 C.3    55  PRO55       0.0296
     38  CG         4.1200   -6.7550   70.0230 C.3    55  PRO55       0.0237
     39  CD         2.7580   -7.1400   69.5180 C.3    55  PRO55       0.0939
     40  N         -7.1580   -0.7020   60.3860 N.3    87  ASP87      -0.1239
     41  CA        -5.7240   -0.9480   60.6760 C.3    87  ASP87       0.1674
     42  C         -5.0240   -1.5410   59.4600 C.2    87  ASP87       0.2266
     43  O         -5.0650   -2.7520   59.2350 O.2    87  ASP87      -0.2867
     44  CB        -5.4880   -1.8840   61.8710 C.3    87  ASP87       0.1410
     45  CG        -6.2460   -1.4760   63.0930 C.2    87  ASP87       0.3668
     46  OD1       -6.4140   -0.2610   63.3330 O.co2  87  ASP87      -0.2456
     47  OD2       -6.6780   -2.3920   63.8110 O.co2  87  ASP87      -0.2456
     48  N         -6.0620    4.0860   59.9770 N.3   106  ASN106     -0.1240
     49  CA        -5.2810    3.9520   61.1760 C.3   106  ASN106      0.1653
     50  C         -4.0830    3.0780   60.8580 C.2   106  ASN106      0.2266
     51  O         -4.1980    1.8490   60.8560 O.2   106  ASN106     -0.2867
     52  CB        -6.1030    3.3460   62.2950 C.3   106  ASN106      0.1155
     53  CG        -5.2860    3.1370   63.5230 C.2   106  ASN106      0.2627
     54  OD1       -4.4390    3.9640   63.8610 O.2   106  ASN106     -0.2716
     55  ND2       -5.4890    2.0250   64.1800 N.am  106  ASN106     -0.0877
     56  N         -0.3950    2.0430   61.8920 N.3   108  ILE108     -0.1245
     57  CA         0.6220    2.0630   62.9360 C.3   108  ILE108      0.1561
     58  C          2.0050    2.4270   62.3890 C.2   108  ILE108      0.2260
     59  O          2.8340    2.9700   63.1250 O.2   108  ILE108     -0.2867
     60  CB         0.6570    0.7440   63.7390 C.3   108  ILE108      0.0252
     61  CG1        0.9240   -0.4720   62.8420 C.3   108  ILE108      0.0019
     62  CG2       -0.6660    0.5760   64.4820 C.3   108  ILE108      0.0019
     63  CD1        1.3410   -1.7050   63.5960 C.3   108  ILE108      0.0001
     64  N         -4.5670    8.6720   61.0100 N.3   128  CYS128     -0.1235
     65  CA        -3.8770    8.6490   62.2820 C.3   128  CYS128      0.1677
     66  C         -2.3870    8.3310   62.0710 C.2   128  CYS128      0.2270
     67  O         -2.0480    7.3370   61.4340 O.2   128  CYS128     -0.2867
     68  CB        -4.5320    7.6400   63.2120 C.3   128  CYS128      0.0956
     69  SG        -3.8260    7.6670   64.8730 S.3   128  CYS128     -0.0801
     70  N          0.8410    7.3160   64.1200 N.3   130  MET130     -0.1245
     71  CA         1.3020    6.7630   65.3950 C.3   130  MET130      0.1570
     72  C          2.8140    6.6280   65.4140 C.2   130  MET130      0.2261
     73  O          3.3890    6.2710   64.4010 O.2   130  MET130     -0.2867
     74  CB         0.6830    5.4030   65.6560 C.3   130  MET130      0.0387
     75  CG         0.9040    4.8870   67.0660 C.3   130  MET130      0.0595
     76  SD         0.5220    3.1320   67.1930 S.3   130  MET130     -0.1393
     77  CE         2.1080    2.4300   66.7440 C.3   130  MET130      0.0692
     78  N         -1.0080    9.9100   67.5600 N.3   164  ASP164     -0.1239
     79  CA        -1.0170    8.8710   68.5720 C.3   164  ASP164      0.1674
     80  C          0.4240    8.6110   69.0160 C.2   164  ASP164      0.2266
     81  O          1.2350    8.1790   68.1990 O.2   164  ASP164     -0.2867
     82  CB        -1.6390    7.6020   68.0000 C.3   164  ASP164      0.1410
     83  CG        -1.7780    6.5110   69.0290 C.2   164  ASP164      0.3668
     84  OD1       -1.0020    6.4870   69.9760 O.co2 164  ASP164     -0.2456
     85  OD2       -2.6640    5.6630   68.8850 O.co2 164  ASP164     -0.2456
     86  N          1.5630    3.8860   72.5020 N.3   167  PHE167     -0.1241
     87  CA         1.9140    3.1580   73.7250 C.3   167  PHE167      0.1605
     88  C          2.1880    1.7080   73.3570 C.2   167  PHE167      0.2264
     89  O          1.5690    1.1820   72.4430 O.2   167  PHE167     -0.2867
     90  CB         0.8140    3.2760   74.7930 C.3   167  PHE167      0.0534
     91  CG         0.6500    4.6790   75.3260 C.ar  167  PHE167     -0.0203
     92  CD1        1.4720    5.1550   76.3350 C.ar  167  PHE167     -0.0042
     93  CD2       -0.3040    5.5480   74.7820 C.ar  167  PHE167     -0.0042
     94  CE1        1.3400    6.4610   76.7860 C.ar  167  PHE167     -0.0003
     95  CE2       -0.4350    6.8510   75.2400 C.ar  167  PHE167     -0.0003
     96  CZ         0.3830    7.3040   76.2470 C.ar  167  PHE167     -0.0000
     97  N          4.5820   -1.3090   71.7650 N.3   169  PHE169     -0.1241
     98  CA         5.4270   -1.4090   70.5550 C.3   169  PHE169      0.1605
     99  C          6.9220   -1.3450   70.9120 C.2   169  PHE169      0.2264
    100  O          7.6820   -0.5090   70.3880 O.2   169  PHE169     -0.2867
    101  CB         5.0210   -0.3450   69.5030 C.3   169  PHE169      0.0534
    102  CG         3.6050   -0.4990   69.0310 C.ar  169  PHE169     -0.0203
    103  CD1        3.2540   -1.5780   68.2140 C.ar  169  PHE169     -0.0042
    104  CD2        2.6030    0.3860   69.4490 C.ar  169  PHE169     -0.0042
    105  CE1        1.9460   -1.7550   67.7990 C.ar  169  PHE169     -0.0003
    106  CE2        1.2940    0.1980   69.0480 C.ar  169  PHE169     -0.0003
    107  CZ         0.9700   -0.8670   68.2120 C.ar  169  PHE169     -0.0000
    108  N         -5.2920   10.4150   69.6360 N.3   194  LEU194     -0.1245
    109  CA        -5.8000    9.0930   69.7890 C.3   194  LEU194      0.1561
    110  C         -4.7750    8.3630   70.6380 C.2   194  LEU194      0.2260
    111  O         -3.5640    8.6020   70.5130 O.2   194  LEU194     -0.2867
    112  CB        -5.9120    8.4510   68.4160 C.3   194  LEU194      0.0270
    113  CG        -6.6600    7.1260   68.2710 C.3   194  LEU194      0.0019
    114  CD1       -7.2260    7.0280   66.8610 C.3   194  LEU194      0.0001
    115  CD2       -5.7730    5.9190   68.5380 C.3   194  LEU194      0.0001
    116  N         -4.0090    4.3140   72.5380 N.3   196  GLY196     -0.1225
    117  CA        -4.3530    2.9000   72.6940 C.3   196  GLY196      0.1811
    118  C         -3.4490    2.2700   73.7420 C.2   196  GLY196      0.2280
    119  O         -2.2920    1.9870   73.4600 O.2   196  GLY196     -0.2866
    120  N         -5.2200   -0.1030   76.0380 N.3   198  SER198     -0.1217
    121  CA        -6.0050   -1.2220   76.5450 C.3   198  SER198      0.1889
    122  C         -5.2360   -2.5600   76.5990 C.2   198  SER198      0.2288
    123  O         -4.7110   -3.0130   75.6050 O.2   198  SER198     -0.2866
    124  CB        -7.2480   -1.3900   75.7100 C.3   198  SER198      0.2089
    125  OG        -8.0210   -2.4570   76.1990 O.3   198  SER198     -0.2183
    126  N         -2.3960   -3.5450   77.5160 N.3   200  LYS200     -0.1245
    127  CA        -0.9930   -3.6090   77.0800 C.3   200  LYS200      0.1561
    128  C          0.0330   -3.9340   78.1900 C.2   200  LYS200      0.2260
    129  O         -0.3000   -4.0030   79.3870 O.2   200  LYS200     -0.2867
    130  CB        -0.6120   -2.3200   76.3470 C.3   200  LYS200      0.0271
    131  CG        -1.2020   -2.2760   74.9480 C.3   200  LYS200      0.0035
    132  CD        -0.6860   -1.1020   74.1490 C.3   200  LYS200      0.0206
    133  CE        -1.2920   -1.1420   72.7530 C.3   200  LYS200      0.1093
    134  NZ        -0.9130    0.0530   71.9650 N.3   200  LYS200     -0.1314
    135  N         -8.8630    3.9570   72.3180 N.3   234  ARG234     -0.1245
    136  CA        -8.9950    2.7060   71.5940 C.3   234  ARG234      0.1563
    137  C         -8.9060    1.6000   72.6070 C.2   234  ARG234      0.2260
    138  O         -7.9000    1.5070   73.3070 O.2   234  ARG234     -0.2867
    139  CB        -7.8500    2.5920   70.5660 C.3   234  ARG234      0.0307
    140  CG        -7.7870    1.2900   69.7930 C.3   234  ARG234      0.0489
    141  CD        -6.6600    1.3110   68.7870 C.3   234  ARG234      0.2205
    142  NE        -6.6650    0.0720   68.0040 N.pl3 234  ARG234     -0.0865
    143  CZ        -6.1290   -1.0990   68.3780 C.cat 234  ARG234      0.5346
    144  NH1       -5.4890   -1.2290   69.5400 N.pl3 234  ARG234      0.1354
    145  NH2       -6.2540   -2.1620   67.5670 N.pl3 234  ARG234      0.1354
    146  N        -10.4570   -2.6060   74.1250 N.3   236  HIS236     -0.1241
    147  CA       -11.1950   -3.8720   74.0360 C.3   236  HIS236      0.1621
    148  C        -12.5170   -3.8220   74.8150 C.2   236  HIS236      0.2264
    149  O        -13.5680   -4.2620   74.3180 O.2   236  HIS236     -0.2867
    150  CB       -10.3490   -5.0320   74.5890 C.3   236  HIS236      0.0745
    151  CG        -9.0530   -5.2410   73.8770 C.ar  236  HIS236      0.0817
    152  ND1       -7.8870   -4.6140   74.2590 N.ar  236  HIS236     -0.2268
    153  CD2       -8.7290   -6.0320   72.8250 C.ar  236  HIS236      0.1154
    154  CE1       -6.9000   -5.0050   73.4680 C.ar  236  HIS236      0.1986
    155  NE2       -7.3860   -5.8650   72.5910 N.ar  236  HIS236     -0.2212
@<TRIPOS>BOND
     1    43    42    2
     2    42    41    1
     3    48    49    1
     4    40    41    1
     5    41    44    1
     6    51    50    2
     7    50    49    1
     8    64    65    1
     9    49    52    1
    10    67    66    2
    11    44    45    1
    12    56    57    1
    13    66    65    1
    14     9    10    1
    15    65    68    1
    16    52    53    1
    17    58    57    1
    18    58    59    2
    19    20    19    1
    20    61    63    1
    21    61    60    1
    22    57    60    1
    23    45    46   ar
    24    45    47   ar
    25    68    69    1
    26    53    54    2
    27    53    55   am
    28    15    16    1
    29    15    11   am
    30    60    62    1
    31    10    11    1
    32    10    13    1
    33    19    21    1
    34    19    16    1
    35    16    17    1
    36    70    71    1
    37    11    12    2
    38    73    72    2
    39    13    14    1
    40    17    18    2
    41    17    22   am
    42    71    72    1
    43    71    74    1
    44    74    75    1
    45    25    24    2
    46    22    23    1
    47    77    76    1
    48   114   113    1
    49    75    76    1
    50    24    23    1
    51    24    33   am
    52    35    36    2
    53    35    34    1
    54    23    26    1
    55    78    79    1
    56   145   143    1
    57   105   107   ar
    58   105   103   ar
    59    34    33    1
    60    34    37    1
    61    82    79    1
    62    82    83    1
    63   142   143    2
    64   142   141    1
    65    33    39    1
    66     3     2    1
    67     3     4    2
    68    81    80    2
    69   107   106   ar
    70   103   102   ar
    71    26    27    1
    72   113   112    1
    73   113   115    1
    74    27    28    1
    75   143   144    1
    76   112   109    1
    77    79    80    1
    78     7     5    1
    79     2     5    1
    80     2     1    1
    81   141   140    1
    82    85    83   ar
    83    83    84   ar
    84   102   104   ar
    85   102   101    1
    86   106   104   ar
    87    37    38    1
    88   101    98    1
    89     5     6    1
    90    39    38    1
    91   108   109    1
    92    31    30    1
    93    28    29    1
    94   109   110    1
    95   140   139    1
    96    30    29    2
    97    30    32    1
    98     6     8    1
    99   100    99    2
   100   111   110    2
   101    98    99    1
   102    98    97    1
   103   139   136    1
   104   136   135    1
   105   136   137    1
   106   134   133    1
   107    89    88    2
   108    86    87    1
   109   116   117    1
   110   155   153   ar
   111   155   154   ar
   112   137   138    2
   113   117   118    1
   114   133   132    1
   115   153   151   ar
   116    88    87    1
   117   119   118    2
   118   154   152   ar
   119    87    90    1
   120   151   152   ar
   121   151   150    1
   122   147   146    1
   123   147   150    1
   124   147   148    1
   125   132   131    1
   126   149   148    2
   127    93    95   ar
   128    93    91   ar
   129    90    91    1
   130   131   130    1
   131    95    96   ar
   132    91    92   ar
   133   123   122    2
   134   124   125    1
   135   124   121    1
   136   120   121    1
   137    96    94   ar
   138    92    94   ar
   139   130   127    1
   140   121   122    1
   141   127   126    1
   142   127   128    1
   143   128   129    2
