@<TRIPOS>MOLECULE
tmp/5v7iA00.pdb
 137 131 0 0 0
SMALL
GASTEIGER

@<TRIPOS>ATOM
      1  N        -41.2550   66.9660   -2.7600 N.3   124  LEU124     -0.1231
      2  CA       -40.9430   67.0590   -1.3390 C.3   124  LEU124      0.1678
      3  C        -42.1850   66.8300   -0.4490 C.2   124  LEU124      0.2434
      4  O        -42.1420   65.9710    0.4320 O.2   124  LEU124     -0.2733
      5  CB       -40.2420   68.3900   -1.0370 C.3   124  LEU124      0.0284
      6  CG       -39.7810   68.6750    0.3960 C.3   124  LEU124      0.0019
      7  CD1      -38.6320   67.7620    0.7920 C.3   124  LEU124      0.0001
      8  CD2      -39.3690   70.1330    0.5340 C.3   124  LEU124      0.0001
      9  N        -43.2990   67.5560   -0.6960 N.am  125  PRO125     -0.2729
     10  CA       -44.5070   67.2680    0.0970 C.3   125  PRO125      0.1401
     11  C        -45.1120   65.8650   -0.1270 C.2   125  PRO125      0.2269
     12  O        -45.8450   65.3710    0.7300 O.2   125  PRO125     -0.2865
     13  CB       -45.4910   68.3690   -0.3360 C.3   125  PRO125      0.0296
     14  CG       -44.9850   68.8560   -1.6470 C.3   125  PRO125      0.0237
     15  CD       -43.5030   68.7040   -1.6000 C.3   125  PRO125      0.0939
     16  N        -43.1910   63.2400   -0.1990 N.3   127  GLY127     -0.1210
     17  CA       -42.3150   62.3460    0.5540 C.3   127  GLY127      0.1956
     18  C        -40.9030   62.1520    0.0250 C.2   127  GLY127      0.2612
     19  O        -40.1740   61.2920    0.5270 O.2   127  GLY127     -0.2717
     20  N        -40.5010   62.9310   -0.9770 N.am  128  GLY128     -0.1942
     21  CA       -39.1110   62.9260   -1.4360 C.3   128  GLY128      0.2014
     22  C        -38.2290   63.7600   -0.5250 C.2   128  GLY128      0.2639
     23  O        -38.7140   64.3920    0.4070 O.2   128  GLY128     -0.2714
     24  N        -36.9310   63.7580   -0.8100 N.am  129  HIS129     -0.1959
     25  CA       -35.9370   64.5150   -0.0450 C.3   129  HIS129      0.1787
     26  C        -35.5720   65.8250   -0.7690 C.2   129  HIS129      0.2620
     27  O        -35.6770   65.9100   -2.0000 O.2   129  HIS129     -0.2715
     28  CB       -34.6970   63.6340    0.1790 C.3   129  HIS129      0.0785
     29  CG       -33.7800   64.1410    1.2490 C.ar  129  HIS129      0.0821
     30  ND1      -32.5550   64.7020    0.9680 N.ar  129  HIS129     -0.2267
     31  CD2      -33.9130   64.1850    2.5970 C.ar  129  HIS129      0.1154
     32  CE1      -31.9820   65.0870    2.0910 C.ar  129  HIS129      0.1986
     33  NE2      -32.7800   64.7740    3.0960 N.ar  129  HIS129     -0.2212
     34  N        -35.1600   66.8410   -0.0070 N.am  130  LEU130     -0.1977
     35  CA       -34.6940   68.1310   -0.5690 C.3   130  LEU130      0.1596
     36  C        -33.6580   67.9680   -1.6790 C.2   130  LEU130      0.2287
     37  O        -33.7340   68.6370   -2.6940 O.2   130  LEU130     -0.2864
     38  CB       -34.0970   69.0400    0.5170 C.3   130  LEU130      0.0297
     39  CG       -35.0220   70.0890    1.1300 C.3   130  LEU130      0.0022
     40  CD1      -34.3790   70.6780    2.3730 C.3   130  LEU130      0.0001
     41  CD2      -35.3530   71.1850    0.1310 C.3   130  LEU130      0.0001
     42  N        -35.9870   70.6460   -5.3410 N.3   134  TYR134     -0.1241
     43  CA       -37.1170   71.3400   -4.7760 C.3   134  TYR134      0.1605
     44  C        -37.0310   72.8000   -5.1630 C.2   134  TYR134      0.2264
     45  O        -35.9940   73.4250   -4.9710 O.2   134  TYR134     -0.2867
     46  CB       -37.1820   71.1840   -3.2460 C.3   134  TYR134      0.0534
     47  CG       -38.4450   71.7790   -2.6590 C.ar  134  TYR134     -0.0201
     48  CD1      -39.7060   71.3560   -3.0890 C.ar  134  TYR134     -0.0009
     49  CD2      -38.3840   72.7770   -1.6900 C.ar  134  TYR134     -0.0009
     50  CE1      -40.8690   71.9110   -2.5680 C.ar  134  TYR134      0.0417
     51  CE2      -39.5390   73.3330   -1.1590 C.ar  134  TYR134      0.0417
     52  CZ       -40.7770   72.8990   -1.6010 C.ar  134  TYR134      0.1957
     53  OH       -41.9140   73.4500   -1.0670 O.3   134  TYR134     -0.2866
     54  N        -34.7130   76.2320   -4.1410 N.3   141  ILE141     -0.1245
     55  CA       -34.4340   76.0320   -2.7190 C.3   141  ILE141      0.1561
     56  C        -33.2750   75.0580   -2.5380 C.2   141  ILE141      0.2260
     57  O        -32.3130   75.3680   -1.8410 O.2   141  ILE141     -0.2867
     58  CB       -35.7190   75.6030   -1.9670 C.3   141  ILE141      0.0252
     59  CG1      -36.6660   76.8090   -1.8970 C.3   141  ILE141      0.0019
     60  CG2      -35.4070   75.1130   -0.5610 C.3   141  ILE141      0.0019
     61  CD1      -38.0570   76.5170   -1.3920 C.3   141  ILE141      0.0001
     62  N        -38.0900   60.0980    1.8410 N.3   184  SER184     -0.1202
     63  CA       -37.9840   60.4460    3.2500 C.3   184  SER184      0.2020
     64  C        -39.2290   60.1060    4.0540 C.2   184  SER184      0.2618
     65  O        -39.1170   59.6890    5.2070 O.2   184  SER184     -0.2717
     66  CB       -37.6590   61.9220    3.4000 C.3   184  SER184      0.2103
     67  OG       -36.3450   62.1460    2.9320 O.3   184  SER184     -0.2182
     68  N        -40.4040   60.3050    3.4650 N.am  185  ALA185     -0.1979
     69  CA       -41.6680   60.0390    4.1410 C.3   185  ALA185      0.1597
     70  C        -42.5610   59.1840    3.2490 C.2   185  ALA185      0.2287
     71  O        -43.4050   59.7100    2.5260 O.2   185  ALA185     -0.2864
     72  CB       -42.3480   61.3500    4.4880 C.3   185  ALA185      0.0319
     73  N        -47.6190   67.5740   16.8470 N.3   354  GLU354     -0.1245
     74  CA       -46.1570   67.5790   16.9980 C.3   354  GLU354      0.1567
     75  C        -45.6940   68.3380   18.2400 C.2   354  GLU354      0.2260
     76  O        -44.8300   67.8610   18.9770 O.2   354  GLU354     -0.2867
     77  CB       -45.5290   68.1930   15.7380 C.3   354  GLU354      0.0388
     78  CG       -44.0110   68.3090   15.6760 C.3   354  GLU354      0.1160
     79  CD       -43.5540   69.0030   14.4000 C.2   354  GLU354      0.3649
     80  OE1      -42.5990   68.5220   13.7480 O.co2 354  GLU354     -0.2457
     81  OE2      -44.1610   70.0320   14.0340 O.co2 354  GLU354     -0.2457
     82  N        -42.5010   64.1400   13.7260 N.3   365  ASN365     -0.1225
     83  CA       -42.6150   65.3280   12.8760 C.3   365  ASN365      0.1785
     84  C        -43.8530   65.3550   12.0000 C.2   365  ASN365      0.2597
     85  O        -44.3740   64.3120   11.5910 O.2   365  ASN365     -0.2718
     86  CB       -41.3470   65.5660   12.0470 C.3   365  ASN365      0.1169
     87  CG       -41.0470   64.4400   11.0760 C.2   365  ASN365      0.2627
     88  OD1      -40.6130   63.3620   11.4780 O.2   365  ASN365     -0.2716
     89  ND2      -41.2410   64.6990    9.7870 N.am  365  ASN365     -0.0877
     90  N        -44.3240   66.5740   11.7460 N.am  366  LYS366     -0.1966
     91  CA       -45.4880   66.8020   10.9040 C.3   366  LYS366      0.1728
     92  C        -45.1420   66.4790    9.4600 C.2   366  LYS366      0.2616
     93  O        -43.9800   66.5850    9.0400 O.2   366  LYS366     -0.2715
     94  CB       -46.0000   68.2400   11.0370 C.3   366  LYS366      0.0311
     95  CG       -45.1030   69.3100   10.4270 C.3   366  LYS366      0.0038
     96  CD       -45.4630   70.7020   10.9300 C.3   366  LYS366      0.0206
     97  CE       -44.3690   71.7060   10.6120 C.3   366  LYS366      0.1093
     98  NZ       -43.1110   71.4290   11.3630 N.3   366  LYS366     -0.1314
     99  N        -46.1720   66.0890    8.7190 N.am  367  ASN367     -0.1958
    100  CA       -46.0260   65.5670    7.3760 C.3   367  ASN367      0.1819
    101  C        -47.2650   65.8710    6.5570 C.2   367  ASN367      0.2621
    102  O        -48.3880   65.7210    7.0450 O.2   367  ASN367     -0.2715
    103  CB       -45.8160   64.0560    7.4360 C.3   367  ASN367      0.1195
    104  CG       -45.3800   63.4800    6.1070 C.2   367  ASN367      0.2630
    105  OD1      -44.2420   63.6790    5.6820 O.2   367  ASN367     -0.2716
    106  ND2      -46.2800   62.7670    5.4390 N.am  367  ASN367     -0.0877
    107  N        -47.0500   66.3000    5.3160 N.am  368  THR368     -0.1951
    108  CA       -48.1360   66.6290    4.3940 C.3   368  THR368      0.1897
    109  C        -48.8310   65.3480    3.9390 C.2   368  THR368      0.2313
    110  O        -48.1760   64.3280    3.7070 O.2   368  THR368     -0.2863
    111  CB       -47.5940   67.3970    3.1720 C.3   368  THR368      0.1794
    112  OG1      -46.9760   68.6090    3.6130 O.3   368  THR368     -0.2208
    113  CG2      -48.7040   67.7330    2.1700 C.3   368  THR368      0.0378
    114  N        -49.0000   72.2660   -0.1930 N.3   374  SER374     -0.1217
    115  CA       -47.9360   72.4560    0.8010 C.3   374  SER374      0.1889
    116  C        -48.1150   73.7360    1.6450 C.2   374  SER374      0.2288
    117  O        -47.6380   73.7970    2.7830 O.2   374  SER374     -0.2866
    118  CB       -46.5600   72.4420    0.1150 C.3   374  SER374      0.2089
    119  OG       -45.5170   72.1870    1.0370 O.3   374  SER374     -0.2183
    120  N        -49.9260   71.1750    7.6130 N.3   378  PRO378     -0.2116
    121  CA       -49.9240   69.7420    7.2780 C.3   378  PRO378      0.1372
    122  C        -50.7740   68.8990    8.2110 C.2   378  PRO378      0.2244
    123  O        -50.6500   69.0160    9.4280 O.2   378  PRO378     -0.2868
    124  CB       -48.4470   69.3510    7.3970 C.3   378  PRO378      0.0268
    125  CG       -47.8660   70.3550    8.3150 C.3   378  PRO378      0.0207
    126  CD       -48.5830   71.6310    8.0140 C.3   378  PRO378      0.0892
    127  N        -45.5160   61.8310   10.7950 N.3   382  ARG382     -0.1245
    128  CA       -44.6070   60.7260   10.5080 C.3   382  ARG382      0.1563
    129  C        -44.1110   60.1330   11.8300 C.2   382  ARG382      0.2260
    130  O        -43.7450   60.8720   12.7360 O.2   382  ARG382     -0.2867
    131  CB       -43.4250   61.2120    9.6620 C.3   382  ARG382      0.0307
    132  CG       -42.5560   60.0950    9.1050 C.3   382  ARG382      0.0489
    133  CD       -41.3830   60.6230    8.2920 C.3   382  ARG382      0.2205
    134  NE       -40.3980   61.3090    9.1310 N.pl3 382  ARG382     -0.0865
    135  CZ       -39.2040   61.7440    8.7250 C.cat 382  ARG382      0.5346
    136  NH1      -38.7940   61.5720    7.4660 N.pl3 382  ARG382      0.1354
    137  NH2      -38.4010   62.3580    9.5930 N.pl3 382  ARG382      0.1354
@<TRIPOS>BOND
     1    42    43    1
     2    44    45    2
     3    44    43    1
     4    43    46    1
     5    54    55    1
     6    46    47    1
     7    48    47   ar
     8    48    50   ar
     9     1     2    1
    10    55    56    1
    11    55    58    1
    12    37    36    2
    13    47    49   ar
    14    50    52   ar
    15    56    57    2
    16    27    26    2
    17    58    59    1
    18    58    60    1
    19    59    61    1
    20    49    51   ar
    21    36    35    1
    22    14    15    1
    23    14    13    1
    24    52    51   ar
    25    52    53    1
    26    15     9    1
    27    21    20    1
    28    21    22    1
    29     2     5    1
    30     2     3    1
    31     5     6    1
    32    20    18   am
    33    24    22   am
    34    24    25    1
    35    26    25    1
    36    26    34   am
    37     9     3   am
    38     9    10    1
    39    35    34    1
    40    35    38    1
    41    22    23    2
    42     3     4    2
    43    13    10    1
    44    16    17    1
    45   114   115    1
    46    11    10    1
    47    11    12    2
    48    25    28    1
    49    18    19    2
    50    18    17    1
    51   118   115    1
    52   118   119    1
    53    41    39    1
    54    28    29    1
    55     6     8    1
    56     6     7    1
    57    38    39    1
    58   115   116    1
    59    30    29   ar
    60    30    32   ar
    61    39    40    1
    62    29    31   ar
    63   116   117    2
    64    62    63    1
    65    32    33   ar
    66   113   111    1
    67    71    70    2
    68    31    33   ar
    69    67    66    1
    70   111   112    1
    71   111   108    1
    72    70    69    1
    73    63    66    1
    74    63    64    1
    75    68    64   am
    76    68    69    1
    77   110   109    2
    78   109   108    1
    79    64    65    2
    80    69    72    1
    81   108   107    1
    82   107   101   am
    83   106   104   am
    84   105   104    2
    85   104   103    1
    86   101   102    2
    87   101   100    1
    88   121   124    1
    89   121   120    1
    90   121   122    1
    91   100   103    1
    92   100    99    1
    93   124   125    1
    94   136   135    1
    95   120   126    1
    96   126   125    1
    97   122   123    2
    98   133   132    1
    99   133   134    1
   100    99    92   am
   101   135   134    2
   102   135   137    1
   103    93    92    2
   104   132   131    1
   105    92    91    1
   106   131   128    1
   107    89    87   am
   108    95    96    1
   109    95    94    1
   110   128   127    1
   111   128   129    1
   112    97    96    1
   113    97    98    1
   114    91    94    1
   115    91    90    1
   116    87    88    2
   117    87    86    1
   118    85    84    2
   119    90    84   am
   120   129   130    2
   121    84    83    1
   122    86    83    1
   123    83    82    1
   124    80    79   ar
   125    81    79   ar
   126    79    78    1
   127    78    77    1
   128    77    74    1
   129    73    74    1
   130    74    75    1
   131    75    76    2
