@<TRIPOS>MOLECULE
tmp/5v7iA01.pdb
 104 102 0 0 0
SMALL
GASTEIGER

@<TRIPOS>ATOM
      1  N        -24.2760   44.6690    1.9180 N.3    85  PHE85      -0.1227
      2  CA       -25.3180   44.6860    0.9060 C.3    85  PHE85       0.1736
      3  C        -25.1830   43.5430   -0.1080 C.2    85  PHE85       0.2595
      4  O        -25.8710   43.5310   -1.1300 O.2    85  PHE85      -0.2718
      5  CB       -25.3510   46.0710    0.2610 C.3    85  PHE85       0.0547
      6  CG       -25.7670   47.1470    1.2230 C.ar   85  PHE85      -0.0202
      7  CD1      -27.1110   47.4060    1.4410 C.ar   85  PHE85      -0.0042
      8  CD2      -24.8260   47.8570    1.9580 C.ar   85  PHE85      -0.0042
      9  CE1      -27.5150   48.3720    2.3500 C.ar   85  PHE85      -0.0003
     10  CE2      -25.2200   48.8280    2.8670 C.ar   85  PHE85      -0.0003
     11  CZ       -26.5690   49.0890    3.0640 C.ar   85  PHE85      -0.0000
     12  N        -24.3170   42.5740    0.2070 N.am   86  ASP86      -0.1960
     13  CA       -24.1700   41.3240   -0.5410 C.3    86  ASP86       0.1840
     14  C        -23.8850   41.5720   -2.0220 C.2    86  ASP86       0.2622
     15  O        -24.5560   41.0360   -2.9090 O.2    86  ASP86      -0.2715
     16  CB       -25.4050   40.4310   -0.3290 C.3    86  ASP86       0.1450
     17  CG       -25.2100   39.0030   -0.8470 C.2    86  ASP86       0.3671
     18  OD1      -24.0580   38.5040   -0.8740 O.co2  86  ASP86      -0.2456
     19  OD2      -26.2230   38.3790   -1.2310 O.co2  86  ASP86      -0.2456
     20  N        -22.8770   42.4000   -2.2680 N.am   87  LEU87      -0.1963
     21  CA       -22.5450   42.8500   -3.6100 C.3    87  LEU87       0.1728
     22  C        -21.2720   42.1760   -4.0790 C.2    87  LEU87       0.2616
     23  O        -20.3330   42.0130   -3.3040 O.2    87  LEU87      -0.2715
     24  CB       -22.3630   44.3670   -3.6220 C.3    87  LEU87       0.0311
     25  CG       -23.5090   45.2100   -3.0610 C.3    87  LEU87       0.0022
     26  CD1      -23.1070   46.6750   -2.9880 C.3    87  LEU87       0.0001
     27  CD2      -24.7650   45.0360   -3.9010 C.3    87  LEU87       0.0001
     28  N        -21.2570   41.7820   -5.3490 N.am   88  ASP88      -0.1971
     29  CA       -20.0750   41.2210   -5.9890 C.3    88  ASP88       0.1709
     30  C        -19.1120   42.3880   -6.2770 C.2    88  ASP88       0.2293
     31  O        -19.5090   43.3390   -6.9580 O.2    88  ASP88      -0.2864
     32  CB       -20.4960   40.5190   -7.2920 C.3    88  ASP88       0.1436
     33  CG       -19.3970   39.6470   -7.9020 C.2    88  ASP88       0.3671
     34  OD1      -18.2520   39.6180   -7.3960 O.co2  88  ASP88      -0.2456
     35  OD2      -19.6950   38.9760   -8.9150 O.co2  88  ASP88      -0.2456
     36  N        -18.9170   43.3120   -9.8290 N.3    91  GLN91      -0.1231
     37  CA       -20.0950   44.0380  -10.3370 C.3    91  GLN91       0.1698
     38  C        -20.3710   45.3970   -9.6910 C.2    91  GLN91       0.2592
     39  O        -21.0180   46.2370  -10.3130 O.2    91  GLN91      -0.2718
     40  CB       -21.3530   43.1850  -10.1640 C.3    91  GLN91       0.0381
     41  CG       -21.2990   41.8370  -10.8610 C.3    91  GLN91       0.0905
     42  CD       -22.6570   41.1550  -10.9340 C.2    91  GLN91       0.2608
     43  OE1      -23.5680   41.4580  -10.1570 O.2    91  GLN91      -0.2717
     44  NE2      -22.7980   40.2230  -11.8730 N.am   91  GLN91      -0.0878
     45  N        -19.9220   45.5960   -8.4500 N.am   92  TRP92      -0.1976
     46  CA       -20.2030   46.8200   -7.6830 C.3    92  TRP92       0.1640
     47  C        -18.9410   47.3680   -7.0250 C.2    92  TRP92       0.2290
     48  O        -18.1000   46.6050   -6.5490 O.2    92  TRP92      -0.2864
     49  CB       -21.2430   46.5450   -6.5870 C.3    92  TRP92       0.0576
     50  CG       -22.6470   46.4360   -7.0910 C.ar   92  TRP92       0.0006
     51  CD1      -23.3150   45.2930   -7.4060 C.ar   92  TRP92       0.0946
     52  CD2      -23.5550   47.5140   -7.3320 C.ar   92  TRP92       0.0152
     53  NE1      -24.5870   45.5920   -7.8360 N.ar   92  TRP92      -0.2442
     54  CE2      -24.7610   46.9490   -7.8020 C.ar   92  TRP92       0.0810
     55  CE3      -23.4690   48.9020   -7.1980 C.ar   92  TRP92       0.0012
     56  CZ2      -25.8730   47.7270   -8.1440 C.ar   92  TRP92       0.0191
     57  CZ3      -24.5760   49.6820   -7.5450 C.ar   92  TRP92       0.0001
     58  CH2      -25.7640   49.0860   -8.0090 C.ar   92  TRP92       0.0015
     59  N        -31.7120   42.2170    4.5670 N.3   220  LYS220     -0.1245
     60  CA       -32.4960   41.4050    3.6260 C.3   220  LYS220      0.1561
     61  C        -33.9400   41.1810    4.0940 C.2   220  LYS220      0.2260
     62  O        -34.5240   40.1400    3.8010 O.2   220  LYS220     -0.2867
     63  CB       -31.8190   40.0550    3.3220 C.3   220  LYS220      0.0271
     64  CG       -30.3750   40.1100    2.8370 C.3   220  LYS220      0.0035
     65  CD       -29.7250   38.7440    3.0290 C.3   220  LYS220      0.0206
     66  CE       -28.3770   38.6100    2.3340 C.3   220  LYS220      0.1093
     67  NZ       -28.4890   38.6260    0.8450 N.3   220  LYS220     -0.1314
     68  N        -34.1160   44.5850   -2.3790 N.3   224  SER224     -0.1217
     69  CA       -32.9310   45.4200   -2.5470 C.3   224  SER224      0.1889
     70  C        -33.0430   46.2820   -3.8080 C.2   224  SER224      0.2288
     71  O        -33.3610   45.7530   -4.8710 O.2   224  SER224     -0.2866
     72  CB       -31.6860   44.5330   -2.6530 C.3   224  SER224      0.2089
     73  OG       -30.5260   45.3030   -2.8850 O.3   224  SER224     -0.2183
     74  N        -30.4650   47.4080   -5.2520 N.3   226  PHE226     -0.1227
     75  CA       -29.2640   47.0440   -6.0040 C.3   226  PHE226      0.1736
     76  C        -29.5420   46.1130   -7.1860 C.2   226  PHE226      0.2595
     77  O        -28.7280   46.0300   -8.1000 O.2   226  PHE226     -0.2718
     78  CB       -28.2110   46.4220   -5.0780 C.3   226  PHE226      0.0547
     79  CG       -27.5880   47.4060   -4.1310 C.ar  226  PHE226     -0.0202
     80  CD1      -28.1700   47.6880   -2.9040 C.ar  226  PHE226     -0.0042
     81  CD2      -26.4140   48.0620   -4.4740 C.ar  226  PHE226     -0.0042
     82  CE1      -27.5980   48.6040   -2.0420 C.ar  226  PHE226     -0.0003
     83  CE2      -25.8320   48.9700   -3.6120 C.ar  226  PHE226     -0.0003
     84  CZ       -26.4220   49.2460   -2.3950 C.ar  226  PHE226     -0.0000
     85  N        -30.6790   45.4170   -7.1800 N.am  227  LYS227     -0.1980
     86  CA       -31.0370   44.5540   -8.3050 C.3   227  LYS227      0.1596
     87  C        -31.5060   45.3300   -9.5300 C.2   227  LYS227      0.2287
     88  O        -31.5240   44.7700  -10.6200 O.2   227  LYS227     -0.2864
     89  CB       -32.0750   43.5040   -7.8850 C.3   227  LYS227      0.0298
     90  CG       -31.5460   42.6210   -6.7610 C.3   227  LYS227      0.0038
     91  CD       -32.2890   41.3090   -6.5900 C.3   227  LYS227      0.0206
     92  CE       -31.5860   40.4630   -5.5370 C.3   227  LYS227      0.1093
     93  NZ       -32.3200   39.2080   -5.2170 N.3   227  LYS227     -0.1314
     94  N        -22.3370   50.5690  -10.1990 N.3   250  ARG250     -0.1245
     95  CA       -22.0550   49.4250  -11.0560 C.3   250  ARG250      0.1563
     96  C        -20.6630   49.5460  -11.6680 C.2   250  ARG250      0.2260
     97  O        -20.1900   50.6510  -11.9300 O.2   250  ARG250     -0.2867
     98  CB       -23.0900   49.3310  -12.1810 C.3   250  ARG250      0.0307
     99  CG       -24.3930   48.6620  -11.7820 C.3   250  ARG250      0.0489
    100  CD       -24.2830   47.1540  -11.9210 C.3   250  ARG250      0.2205
    101  NE       -25.5370   46.4740  -11.6080 N.pl3 250  ARG250     -0.0865
    102  CZ       -25.7460   45.1640  -11.7470 C.cat 250  ARG250      0.5346
    103  NH1      -26.9320   44.6470  -11.4240 N.pl3 250  ARG250      0.1354
    104  NH2      -24.7820   44.3610  -12.2030 N.pl3 250  ARG250      0.1354
@<TRIPOS>BOND
     1   104   102    1
     2    98    99    1
     3    98    95    1
     4    97    96    2
     5   100    99    1
     6   100   101    1
     7    44    42   am
     8   102   101    2
     9   102   103    1
    10    96    95    1
    11    95    94    1
    12    42    41    1
    13    42    43    2
    14    41    40    1
    15    88    87    2
    16    37    40    1
    17    37    36    1
    18    37    38    1
    19    39    38    2
    20    38    45   am
    21    87    86    1
    22    35    33   ar
    23    45    46    1
    24    86    89    1
    25    86    85    1
    26    56    58   ar
    27    56    54   ar
    28    77    76    2
    29    58    57   ar
    30    33    34   ar
    31    33    32    1
    32    89    90    1
    33    53    54   ar
    34    53    51   ar
    35    54    52   ar
    36    46    47    1
    37    46    49    1
    38    57    55   ar
    39    51    50   ar
    40    52    55   ar
    41    52    50   ar
    42    32    29    1
    43    76    85   am
    44    76    75    1
    45    50    49    1
    46    47    48    2
    47    31    30    2
    48    90    91    1
    49    91    92    1
    50    30    29    1
    51    75    74    1
    52    75    78    1
    53    29    28    1
    54    92    93    1
    55    28    22   am
    56    78    79    1
    57    71    70    2
    58    81    79   ar
    59    81    83   ar
    60    79    80   ar
    61    22    21    1
    62    22    23    2
    63    27    25    1
    64    70    69    1
    65    24    21    1
    66    24    25    1
    67    83    84   ar
    68    21    20    1
    69    25    26    1
    70    15    14    2
    71    80    82   ar
    72    73    72    1
    73    72    69    1
    74    69    68    1
    75    84    82   ar
    76    20    14   am
    77    14    13    1
    78    19    17   ar
    79     4     3    2
    80    18    17   ar
    81    17    16    1
    82    13    16    1
    83    13    12    1
    84     3    12   am
    85     3     2    1
    86     5     2    1
    87     5     6    1
    88    67    66    1
    89     2     1    1
    90     6     7   ar
    91     6     8   ar
    92     7     9   ar
    93     8    10   ar
    94    66    65    1
    95     9    11   ar
    96    64    65    1
    97    64    63    1
    98    10    11   ar
    99    63    60    1
   100    60    61    1
   101    60    59    1
   102    62    61    2
