@<TRIPOS>MOLECULE
tmp/5v7jA05.pdb
 81 76 0 0 0
SMALL
GASTEIGER

@<TRIPOS>ATOM
      1  N        -46.1920  -21.4810  -41.5510 N.3   101  THR101     -0.1203
      2  CA       -44.7520  -21.2050  -41.4760 C.3   101  THR101      0.1994
      3  C        -44.5670  -19.8590  -40.7680 C.2   101  THR101      0.2617
      4  O        -45.4870  -19.3430  -40.1270 O.2   101  THR101     -0.2717
      5  CB       -44.0570  -21.2260  -42.8550 C.3   101  THR101      0.1784
      6  OG1      -44.4500  -20.0860  -43.6330 O.3   101  THR101     -0.2211
      7  CG2      -44.3430  -22.5000  -43.6340 C.3   101  THR101      0.0376
      8  N        -43.3820  -19.2610  -40.9330 N.am  102  ASN102     -0.1974
      9  CA       -42.9070  -18.1700  -40.0790 C.3   102  ASN102      0.1688
     10  C        -43.8680  -16.9800  -40.0670 C.2   102  ASN102      0.2292
     11  O        -44.7430  -16.8360  -40.9260 O.2   102  ASN102     -0.2864
     12  CB       -41.5230  -17.6870  -40.5280 C.3   102  ASN102      0.1181
     13  CG       -40.4850  -18.7970  -40.5430 C.2   102  ASN102      0.2629
     14  OD1      -40.7120  -19.8760  -39.9980 O.2   102  ASN102     -0.2716
     15  ND2      -39.3330  -18.5270  -41.1640 N.am  102  ASN102     -0.0877
     16  N        -36.2390  -10.9110  -41.4980 N.3   107  ILE107     -0.1231
     17  CA       -35.7070  -12.1740  -40.9970 C.3   107  ILE107      0.1692
     18  C        -34.5130  -11.9310  -40.0800 C.2   107  ILE107      0.2593
     19  O        -33.3760  -11.7700  -40.5390 O.2   107  ILE107     -0.2718
     20  CB       -35.3590  -13.0990  -42.1790 C.3   107  ILE107      0.0266
     21  CG1      -36.6440  -13.5030  -42.9080 C.3   107  ILE107      0.0019
     22  CG2      -34.6080  -14.3310  -41.7200 C.3   107  ILE107      0.0020
     23  CD1      -37.8470  -13.6950  -41.9890 C.3   107  ILE107      0.0001
     24  N        -34.7720  -11.9010  -38.7700 N.am  108  THR108     -0.1939
     25  CA       -33.7410  -11.5780  -37.7860 C.3   108  THR108      0.2028
     26  C        -33.5600  -12.6960  -36.7680 C.2   108  THR108      0.2642
     27  O        -32.5590  -13.4130  -36.8260 O.2   108  THR108     -0.2714
     28  CB       -34.0690  -10.2620  -37.0790 C.3   108  THR108      0.1808
     29  OG1      -34.3830   -9.2550  -38.0460 O.3   108  THR108     -0.2208
     30  CG2      -32.8860   -9.8050  -36.2360 C.3   108  THR108      0.0379
     31  N        -34.4960  -12.8720  -35.8420 N.am  109  ASP109     -0.1971
     32  CA       -34.2030  -13.5470  -34.5820 C.3   109  ASP109      0.1709
     33  C        -34.7770  -14.9510  -34.4550 C.2   109  ASP109      0.2293
     34  O        -34.9750  -15.4400  -33.3400 O.2   109  ASP109     -0.2864
     35  CB       -34.7180  -12.6910  -33.4290 C.3   109  ASP109      0.1436
     36  CG       -33.6480  -11.8090  -32.8460 C.2   109  ASP109      0.3671
     37  OD1      -32.4890  -12.2610  -32.7510 O.co2 109  ASP109     -0.2456
     38  OD2      -33.9660  -10.6580  -32.4960 O.co2 109  ASP109     -0.2456
     39  N        -36.7080  -19.9060  -33.8720 N.3   110  GLY110     -0.1210
     40  CA       -38.1420  -20.1120  -33.8790 C.3   110  GLY110      0.1956
     41  C        -38.8650  -19.0640  -33.0660 C.2   110  GLY110      0.2611
     42  O        -39.4090  -19.3560  -31.9990 O.2   110  GLY110     -0.2717
     43  N        -38.8540  -17.8340  -33.5820 N.am  111  GLU111     -0.1979
     44  CA       -39.5180  -16.7240  -32.9100 C.3   111  GLU111      0.1602
     45  C        -40.9640  -17.0770  -32.5760 C.2   111  GLU111      0.2287
     46  O        -41.3650  -17.0740  -31.4070 O.2   111  GLU111     -0.2864
     47  CB       -39.4450  -15.4700  -33.7880 C.3   111  GLU111      0.0415
     48  CG       -38.2210  -15.3970  -34.7020 C.3   111  GLU111      0.1163
     49  CD       -38.1450  -14.0880  -35.4800 C.2   111  GLU111      0.3649
     50  OE1      -37.0350  -13.6900  -35.8930 O.co2 111  GLU111     -0.2457
     51  OE2      -39.2000  -13.4520  -35.6800 O.co2 111  GLU111     -0.2457
     52  N        -45.0360  -18.4790  -34.8570 N.3   113  LYS113     -0.1245
     53  CA       -45.6790  -18.9460  -36.0840 C.3   113  LYS113      0.1561
     54  C        -47.0940  -18.3810  -36.1770 C.2   113  LYS113      0.2260
     55  O        -47.5510  -17.6370  -35.3040 O.2   113  LYS113     -0.2867
     56  CB       -45.7190  -20.4780  -36.1510 C.3   113  LYS113      0.0271
     57  CG       -44.3860  -21.1700  -35.9150 C.3   113  LYS113      0.0035
     58  CD       -43.4260  -20.9270  -37.0600 C.3   113  LYS113      0.0206
     59  CE       -42.1640  -21.7480  -36.8970 C.3   113  LYS113      0.1093
     60  NZ       -42.0580  -22.7800  -37.9580 N.3   113  LYS113     -0.1314
     61  N        -45.2230  -25.3190  -44.9280 N.3   146  LYS146     -0.1245
     62  CA       -45.0690  -26.6390  -44.3170 C.3   146  LYS146      0.1561
     63  C        -46.1190  -26.7990  -43.2230 C.2   146  LYS146      0.2260
     64  O        -46.9530  -25.9140  -43.0360 O.2   146  LYS146     -0.2867
     65  CB       -43.6620  -26.8130  -43.7390 C.3   146  LYS146      0.0271
     66  CG       -42.5390  -26.4100  -44.6830 C.3   146  LYS146      0.0035
     67  CD       -41.5400  -27.5450  -44.8550 C.3   146  LYS146      0.0206
     68  CE       -40.1870  -27.0330  -45.3220 C.3   146  LYS146      0.1093
     69  NZ       -39.0960  -28.0070  -45.0370 N.3   146  LYS146     -0.1314
     70  N        -46.7040  -28.8080  -39.1040 N.3   148  TYR148     -0.1241
     71  CA       -46.1580  -29.5190  -37.9610 C.3   148  TYR148      0.1605
     72  C        -47.2990  -30.1500  -37.1540 C.2   148  TYR148      0.2264
     73  O        -48.4440  -30.2160  -37.6040 O.2   148  TYR148     -0.2867
     74  CB       -45.3200  -28.5530  -37.1180 C.3   148  TYR148      0.0534
     75  CG       -44.3830  -27.6690  -37.9210 C.ar  148  TYR148     -0.0201
     76  CD1      -43.8520  -28.0950  -39.1280 C.ar  148  TYR148     -0.0009
     77  CD2      -44.0270  -26.4110  -37.4680 C.ar  148  TYR148     -0.0009
     78  CE1      -43.0020  -27.3090  -39.8620 C.ar  148  TYR148      0.0417
     79  CE2      -43.1710  -25.6100  -38.1990 C.ar  148  TYR148      0.0417
     80  CZ       -42.6620  -26.0660  -39.3970 C.ar  148  TYR148      0.1957
     81  OH       -41.8090  -25.2790  -40.1360 O.3   148  TYR148     -0.2866
@<TRIPOS>BOND
     1    68    69    1
     2    68    67    1
     3    61    62    1
     4    67    66    1
     5    66    65    1
     6    62    65    1
     7    62    63    1
     8     7     5    1
     9     6     5    1
    10    63    64    2
    11    21    20    1
    12    21    23    1
    13     5     2    1
    14    20    22    1
    15    20    17    1
    16     1     2    1
    17    16    17    1
    18     2     3    1
    19    15    13   am
    20    17    18    1
    21     8     3   am
    22     8     9    1
    23    11    10    2
    24     3     4    2
    25    13    12    1
    26    13    14    2
    27    19    18    2
    28    12     9    1
    29    81    80    1
    30    18    24   am
    31     9    10    1
    32    78    80   ar
    33    78    76   ar
    34    80    79   ar
    35    76    75   ar
    36    70    71    1
    37    24    25    1
    38    79    77   ar
    39    29    28    1
    40    71    72    1
    41    71    74    1
    42    60    59    1
    43    75    77   ar
    44    75    74    1
    45    25    28    1
    46    25    26    1
    47    73    72    2
    48    28    30    1
    49    58    59    1
    50    58    57    1
    51    27    26    2
    52    26    31   am
    53    54    53    1
    54    54    55    2
    55    56    53    1
    56    56    57    1
    57    53    52    1
    58    50    49   ar
    59    31    32    1
    60    51    49   ar
    61    49    48    1
    62    48    47    1
    63    32    33    1
    64    32    35    1
    65    33    34    2
    66    40    39    1
    67    40    41    1
    68    47    44    1
    69    43    41   am
    70    43    44    1
    71    35    36    1
    72    41    42    2
    73    44    45    1
    74    36    37   ar
    75    36    38   ar
    76    45    46    2
