@<TRIPOS>MOLECULE
tmp/5v7nA01.pdb
 97 90 0 0 0
SMALL
GASTEIGER

@<TRIPOS>ATOM
      1  N         68.3010   72.9200   24.3490 N.3    49  SER49      -0.1202
      2  CA        68.1820   71.4950   24.2910 C.3    49  SER49       0.2020
      3  C         69.0790   70.8910   25.4070 C.2    49  SER49       0.2619
      4  O         70.3020   71.1780   25.4720 O.2    49  SER49      -0.2717
      5  CB        68.6620   70.9580   22.9570 C.3    49  SER49       0.2103
      6  OG        68.6300   69.5240   22.9990 O.3    49  SER49      -0.2182
      7  N         68.4890   70.0340   26.2140 N.am   50  GLY50      -0.1956
      8  CA        69.1580   69.3010   27.2530 C.3    50  GLY50       0.1869
      9  C         69.1330   70.0100   28.5900 C.2    50  GLY50       0.2309
     10  O         68.0870   70.4420   29.0420 O.2    50  GLY50      -0.2863
     11  N         63.6200   72.4880   23.8950 N.3    69  PHE69      -0.1227
     12  CA        63.6250   71.7240   22.6500 C.3    69  PHE69       0.1736
     13  C         63.4750   70.2430   23.0180 C.2    69  PHE69       0.2596
     14  O         64.4070   69.6180   23.5360 O.2    69  PHE69      -0.2718
     15  CB        64.9490   71.9720   21.9200 C.3    69  PHE69       0.0547
     16  CG        65.0310   71.3400   20.5680 C.ar   69  PHE69      -0.0202
     17  CD1       65.3900   70.0060   20.4170 C.ar   69  PHE69      -0.0042
     18  CD2       64.7920   72.0840   19.4220 C.ar   69  PHE69      -0.0042
     19  CE1       65.4950   69.4370   19.1490 C.ar   69  PHE69      -0.0003
     20  CE2       64.8430   71.4910   18.1620 C.ar   69  PHE69      -0.0003
     21  CZ        65.2060   70.1850   18.0380 C.ar   69  PHE69      -0.0000
     22  N         62.3040   69.7040   22.7410 N.am   70  GLY70      -0.1942
     23  CA        61.9530   68.3630   23.2000 C.3    70  GLY70       0.2014
     24  C         60.6900   68.3640   24.0290 C.2    70  GLY70       0.2639
     25  O         60.3360   69.3680   24.6680 O.2    70  GLY70      -0.2714
     26  N         59.9780   67.2540   23.9830 N.am   71  VAL71      -0.1963
     27  CA        58.8020   67.0580   24.8420 C.3    71  VAL71       0.1727
     28  C         59.1980   66.7930   26.3130 C.2    71  VAL71       0.2616
     29  O         58.5160   67.2370   27.2200 O.2    71  VAL71      -0.2715
     30  CB        57.7940   66.0310   24.2740 C.3    71  VAL71       0.0290
     31  CG1       58.3880   64.6380   24.2250 C.3    71  VAL71       0.0023
     32  CG2       56.4640   66.0440   25.0620 C.3    71  VAL71       0.0023
     33  N         60.2920   66.0760   26.5300 N.am   72  GLY72      -0.1955
     34  CA        60.9190   65.9400   27.8320 C.3    72  GLY72       0.1869
     35  C         61.6520   67.2160   28.1840 C.2    72  GLY72       0.2309
     36  O         62.3930   67.7650   27.3570 O.2    72  GLY72      -0.2863
     37  N         56.3680   65.4540   17.5190 N.3    95  LEU95      -0.1245
     38  CA        57.2910   64.3460   17.4520 C.3    95  LEU95       0.1561
     39  C         56.6670   63.0180   17.8220 C.2    95  LEU95       0.2260
     40  O         57.3670   62.0120   17.8770 O.2    95  LEU95      -0.2867
     41  CB        58.5240   64.6170   18.3540 C.3    95  LEU95       0.0270
     42  CG        58.2930   65.1800   19.7490 C.3    95  LEU95       0.0019
     43  CD1       57.4160   64.2770   20.5950 C.3    95  LEU95       0.0001
     44  CD2       59.6180   65.3950   20.4270 C.3    95  LEU95       0.0001
     45  N         58.5650   59.3480   17.2060 N.3    99  VAL99      -0.1245
     46  CA        59.1050   58.6240   18.3580 C.3    99  VAL99       0.1561
     47  C         58.4680   57.2340   18.4610 C.2    99  VAL99       0.2260
     48  O         59.1790   56.2320   18.6880 O.2    99  VAL99      -0.2867
     49  CB        58.9680   59.4270   19.6670 C.3    99  VAL99       0.0252
     50  CG1       59.3810   58.5910   20.8800 C.3    99  VAL99       0.0019
     51  CG2       59.8350   60.6770   19.6020 C.3    99  VAL99       0.0019
     52  N         63.5110   58.0990   29.2610 N.3   229  ARG229     -0.1245
     53  CA        64.7260   58.6670   29.7860 C.3   229  ARG229      0.1563
     54  C         65.5300   57.5500   30.4460 C.2   229  ARG229      0.2260
     55  O         64.9560   56.6330   31.1220 O.2   229  ARG229     -0.2867
     56  CB        64.4140   59.7720   30.8050 C.3   229  ARG229      0.0307
     57  CG        63.8790   61.0370   30.1800 C.3   229  ARG229      0.0489
     58  CD        65.0050   61.7760   29.5050 C.3   229  ARG229      0.2205
     59  NE        64.6260   63.0430   28.8780 N.pl3 229  ARG229     -0.0865
     60  CZ        64.1790   63.1810   27.6300 C.cat 229  ARG229      0.5346
     61  NH1       64.0320   62.1330   26.8010 N.pl3 229  ARG229      0.1354
     62  NH2       63.9320   64.4200   27.1760 N.pl3 229  ARG229      0.1354
     63  N         70.0910   58.1220   21.2600 N.3   276  HIS276     -0.1241
     64  CA        69.0030   59.0490   21.4950 C.3   276  HIS276      0.1621
     65  C         68.4550   59.6370   20.1730 C.2   276  HIS276      0.2264
     66  O         68.4540   60.8600   19.9670 O.2   276  HIS276     -0.2867
     67  CB        69.4550   60.0940   22.5000 C.3   276  HIS276      0.0745
     68  CG        68.3440   60.7900   23.2220 C.ar  276  HIS276      0.0817
     69  ND1       68.5520   61.5190   24.3780 N.ar  276  HIS276     -0.2268
     70  CD2       67.0310   60.9230   22.9310 C.ar  276  HIS276      0.1154
     71  CE1       67.3910   61.9940   24.8110 C.ar  276  HIS276      0.1986
     72  NE2       66.4610   61.6890   23.9400 N.ar  276  HIS276     -0.2212
     73  N         63.4260   60.8890   17.9700 N.3   279  SER279     -0.1217
     74  CA        62.8470   62.0270   17.2010 C.3   279  SER279      0.1889
     75  C         63.7290   62.5960   16.0780 C.2   279  SER279      0.2288
     76  O         63.3600   63.5740   15.4430 O.2   279  SER279     -0.2866
     77  CB        62.4800   63.1670   18.1400 C.3   279  SER279      0.2089
     78  OG        63.6400   63.8350   18.6190 O.3   279  SER279     -0.2183
     79  N         62.7150   67.1230   13.5840 N.3   285  ARG285     -0.1245
     80  CA        63.5430   68.1160   14.2490 C.3   285  ARG285      0.1563
     81  C         63.2860   69.5210   13.7510 C.2   285  ARG285      0.2260
     82  O         63.3520   70.4520   14.5690 O.2   285  ARG285     -0.2867
     83  CB        65.0260   67.7650   14.1720 C.3   285  ARG285      0.0307
     84  CG        65.3430   66.5370   15.0320 C.3   285  ARG285      0.0489
     85  CD        65.2460   66.7990   16.5300 C.3   285  ARG285      0.2205
     86  NE        65.5130   65.6120   17.3570 N.pl3 285  ARG285     -0.0865
     87  CZ        66.6960   65.2520   17.8510 C.cat 285  ARG285      0.5346
     88  NH1       67.7810   65.9410   17.5710 N.pl3 285  ARG285      0.1354
     89  NH2       66.7880   64.1630   18.6100 N.pl3 285  ARG285      0.1354
     90  N         60.0740   70.4260   15.5930 N.3   288  MET288     -0.1245
     91  CA        60.4410   70.7830   16.9620 C.3   288  MET288      0.1570
     92  C         61.0750   72.1620   17.0510 C.2   288  MET288      0.2261
     93  O         60.7150   72.9880   17.9090 O.2   288  MET288     -0.2867
     94  CB        61.3720   69.7120   17.5250 C.3   288  MET288      0.0387
     95  CG        60.6860   68.3820   17.7760 C.3   288  MET288      0.0595
     96  SD        61.8510   67.0420   17.9860 S.3   288  MET288     -0.1393
     97  CE        62.6430   67.4340   19.5060 C.3   288  MET288      0.0692
@<TRIPOS>BOND
     1    79    80    1
     2    81    80    1
     3    81    82    2
     4    83    80    1
     5    83    84    1
     6    84    85    1
     7    76    75    2
     8    90    91    1
     9    75    74    1
    10    85    86    1
    11    91    92    1
    12    91    94    1
    13    92    93    2
    14    74    73    1
    15    74    77    1
    16    45    46    1
    17    86    87    2
    18    38    37    1
    19    38    39    1
    20    38    41    1
    21    94    95    1
    22    88    87    1
    23    95    96    1
    24    39    40    2
    25    87    89    1
    26    96    97    1
    27    21    20   ar
    28    21    19   ar
    29    77    78    1
    30    20    18   ar
    31    41    42    1
    32    46    47    1
    33    46    49    1
    34    47    48    2
    35    19    17   ar
    36    18    16   ar
    37    51    49    1
    38    49    50    1
    39    42    44    1
    40    42    43    1
    41    66    65    2
    42    65    64    1
    43    17    16   ar
    44    16    15    1
    45    63    64    1
    46    64    67    1
    47    15    12    1
    48    67    68    1
    49    12    13    1
    50    12    11    1
    51    22    13   am
    52    22    23    1
    53    70    68   ar
    54    70    72   ar
    55     5     6    1
    56     5     2    1
    57    13    14    2
    58    23    24    1
    59    68    69   ar
    60    72    71   ar
    61    26    24   am
    62    26    27    1
    63    24    25    2
    64    31    30    1
    65    30    27    1
    66    30    32    1
    67     2     1    1
    68     2     3    1
    69    69    71   ar
    70    27    28    1
    71     3     4    2
    72     3     7   am
    73     7     8    1
    74    28    33   am
    75    28    29    2
    76    33    34    1
    77    61    60    1
    78    62    60    1
    79     8     9    1
    80    36    35    2
    81    60    59    2
    82    34    35    1
    83     9    10    2
    84    59    58    1
    85    52    53    1
    86    58    57    1
    87    53    54    1
    88    53    56    1
    89    57    56    1
    90    54    55    2
