@<TRIPOS>MOLECULE
tmp/5v7pA01.pdb
 95 90 0 0 0
SMALL
GASTEIGER

@<TRIPOS>ATOM
      1  N         20.0770   70.2630   57.8490 N.3     1  LEU1       -0.1245
      2  CA        20.6010   69.2690   58.7770 C.3     1  LEU1        0.1561
      3  C         21.6640   69.8900   59.6820 C.2     1  LEU1        0.2260
      4  O         21.6810   71.1020   59.8860 O.2     1  LEU1       -0.2867
      5  CB        21.1700   68.0710   58.0060 C.3     1  LEU1        0.0270
      6  CG        22.3810   68.3090   57.0970 C.3     1  LEU1        0.0019
      7  CD1       23.1350   67.0070   56.8960 C.3     1  LEU1        0.0001
      8  CD2       21.9600   68.8810   55.7500 C.3     1  LEU1        0.0001
      9  N         25.0590   71.4460   61.3560 N.3     3  PRO3       -0.2116
     10  CA        25.9430   72.4810   60.7850 C.3     3  PRO3        0.1372
     11  C         27.0520   71.9040   59.9230 C.2     3  PRO3        0.2244
     12  O         27.2220   72.3240   58.7720 O.2     3  PRO3       -0.2868
     13  CB        26.4840   73.2040   62.0300 C.3     3  PRO3        0.0268
     14  CG        26.2460   72.2650   63.1700 C.3     3  PRO3        0.0207
     15  CD        25.0030   71.5190   62.8240 C.3     3  PRO3        0.0892
     16  N         25.6390   70.7950   56.6720 N.3     6  LYS6       -0.1231
     17  CA        25.3360   71.8550   55.7170 C.3     6  LYS6        0.1693
     18  C         26.6020   72.4130   55.0810 C.2     6  LYS6        0.2591
     19  O         26.5870   72.7930   53.9050 O.2     6  LYS6       -0.2718
     20  CB        24.5460   72.9720   56.3980 C.3     6  LYS6        0.0285
     21  CG        23.1570   72.5600   56.8610 C.3     6  LYS6        0.0035
     22  CD        22.2770   73.7740   57.1180 C.3     6  LYS6        0.0206
     23  CE        20.9280   73.3780   57.7020 C.3     6  LYS6        0.1093
     24  NZ        20.0310   74.5490   57.9100 N.3     6  LYS6       -0.1314
     25  N         27.7020   72.4710   55.8350 N.am    7  ILE7       -0.1980
     26  CA        28.9690   72.9330   55.2720 C.3     7  ILE7        0.1595
     27  C         29.3870   72.0340   54.1160 C.2     7  ILE7        0.2287
     28  O         29.7610   72.5100   53.0380 O.2     7  ILE7       -0.2864
     29  CB        30.0530   72.9880   56.3650 C.3     7  ILE7        0.0276
     30  CG1       29.6480   73.9470   57.4950 C.3     7  ILE7        0.0022
     31  CG2       31.4070   73.3860   55.7780 C.3     7  ILE7        0.0022
     32  CD1       29.1980   75.3130   57.0340 C.3     7  ILE7        0.0001
     33  N         26.9260   72.5520   51.0420 N.3    10  GLN10      -0.1231
     34  CA        27.1560   73.8000   50.3240 C.3    10  GLN10       0.1698
     35  C         28.4350   73.7330   49.4990 C.2    10  GLN10       0.2592
     36  O         28.4570   74.1470   48.3340 O.2    10  GLN10      -0.2718
     37  CB        27.2200   74.9650   51.3100 C.3    10  GLN10       0.0381
     38  CG        25.9070   75.2590   52.0140 C.3    10  GLN10       0.0905
     39  CD        26.0640   76.2620   53.1410 C.2    10  GLN10       0.2608
     40  OE1       27.0190   76.1990   53.9170 O.2    10  GLN10      -0.2717
     41  NE2       25.1290   77.2000   53.2320 N.am   10  GLN10      -0.0878
     42  N         29.5130   73.2090   50.0860 N.am   11  SER11      -0.1952
     43  CA        30.7930   73.1640   49.3860 C.3    11  SER11       0.1924
     44  C         30.7720   72.1450   48.2530 C.2    11  SER11       0.2314
     45  O         31.3390   72.3900   47.1820 O.2    11  SER11      -0.2863
     46  CB        31.9130   72.8420   50.3750 C.3    11  SER11       0.2116
     47  OG        31.8770   73.7220   51.4820 O.3    11  SER11      -0.2180
     48  N         28.3100   73.5760   45.4910 N.3    14  GLY14      -0.1210
     49  CA        28.9180   74.7890   44.9680 C.3    14  GLY14       0.1956
     50  C         30.1300   74.4960   44.1060 C.2    14  GLY14       0.2612
     51  O         30.2640   75.0210   42.9980 O.2    14  GLY14      -0.2717
     52  N         31.0330   73.6480   44.6050 N.am   15  SER15      -0.1952
     53  CA        32.1870   73.2470   43.8090 C.3    15  SER15       0.1924
     54  C         31.7500   72.5050   42.5530 C.2    15  SER15       0.2314
     55  O         32.3090   72.7140   41.4710 O.2    15  SER15      -0.2863
     56  CB        33.1270   72.3800   44.6480 C.3    15  SER15       0.2116
     57  OG        34.2330   71.9360   43.8810 O.3    15  SER15      -0.2180
     58  N         30.5530   75.1540   40.1180 N.3    18  VAL18      -0.1245
     59  CA        31.6430   75.9540   39.5610 C.3    18  VAL18       0.1561
     60  C         32.3010   75.2150   38.4020 C.2    18  VAL18       0.2260
     61  O         32.3900   75.7260   37.2790 O.2    18  VAL18      -0.2867
     62  CB        32.6640   76.3050   40.6580 C.3    18  VAL18       0.0252
     63  CG1       33.9760   76.8220   40.0620 C.3    18  VAL18       0.0019
     64  CG2       32.0800   77.3460   41.6020 C.3    18  VAL18       0.0019
     65  N         37.5380   79.3470   50.3200 N.3    52  LEU52      -0.1245
     66  CA        37.0040   78.5640   51.4290 C.3    52  LEU52       0.1561
     67  C         37.7950   78.8070   52.7070 C.2    52  LEU52       0.2260
     68  O         37.2100   78.9490   53.7870 O.2    52  LEU52      -0.2867
     69  CB        37.0040   77.0770   51.0730 C.3    52  LEU52       0.0270
     70  CG        36.0060   76.6120   50.0070 C.3    52  LEU52       0.0019
     71  CD1       36.1630   75.1180   49.7610 C.3    52  LEU52       0.0001
     72  CD2       34.5720   76.9280   50.4020 C.3    52  LEU52       0.0001
     73  N         36.5010   81.9740   54.3470 N.3    55  PHE55      -0.1227
     74  CA        35.1560   81.9900   54.9080 C.3    55  PHE55       0.1736
     75  C         34.9320   80.9550   56.0010 C.2    55  PHE55       0.2595
     76  O         33.8670   80.9650   56.6280 O.2    55  PHE55      -0.2718
     77  CB        34.1220   81.7630   53.7950 C.3    55  PHE55       0.0547
     78  CG        33.8870   82.9600   52.9150 C.ar   55  PHE55      -0.0202
     79  CD1       34.0560   84.2480   53.3980 C.ar   55  PHE55      -0.0042
     80  CD2       33.4830   82.7920   51.6010 C.ar   55  PHE55      -0.0042
     81  CE1       33.8320   85.3380   52.5900 C.ar   55  PHE55      -0.0003
     82  CE2       33.2590   83.8840   50.7890 C.ar   55  PHE55      -0.0003
     83  CZ        33.4360   85.1570   51.2880 C.ar   55  PHE55      -0.0000
     84  N         35.8890   80.0710   56.2470 N.am   56  TYR56      -0.1976
     85  CA        35.7190   79.0110   57.2240 C.3    56  TYR56       0.1639
     86  C         36.8930   78.9990   58.1870 C.2    56  TYR56       0.2290
     87  O         38.0190   79.3550   57.8270 O.2    56  TYR56      -0.2864
     88  CB        35.5950   77.6390   56.5500 C.3    56  TYR56       0.0560
     89  CG        34.2940   77.4440   55.8120 C.ar   56  TYR56      -0.0198
     90  CD1       33.0860   77.4740   56.4880 C.ar   56  TYR56      -0.0009
     91  CD2       34.2730   77.2170   54.4410 C.ar   56  TYR56      -0.0009
     92  CE1       31.8970   77.2950   55.8290 C.ar   56  TYR56       0.0417
     93  CE2       33.0810   77.0340   53.7700 C.ar   56  TYR56       0.0417
     94  CZ        31.8950   77.0720   54.4710 C.ar   56  TYR56       0.1957
     95  OH        30.6990   76.8900   53.8190 O.3    56  TYR56      -0.2866
@<TRIPOS>BOND
     1    61    60    2
     2    60    59    1
     3    59    58    1
     4    59    62    1
     5    63    62    1
     6    62    64    1
     7    55    54    2
     8    54    53    1
     9    51    50    2
    10    53    52    1
    11    53    56    1
    12    57    56    1
    13    50    52   am
    14    50    49    1
    15    49    48    1
    16    45    44    2
    17    44    43    1
    18    36    35    2
    19    43    42    1
    20    43    46    1
    21    35    42   am
    22    35    34    1
    23    71    70    1
    24    70    72    1
    25    70    69    1
    26    65    66    1
    27    34    33    1
    28    34    37    1
    29    46    47    1
    30    82    83   ar
    31    82    80   ar
    32    69    66    1
    33    83    81   ar
    34    37    38    1
    35    66    67    1
    36    80    78   ar
    37    38    39    1
    38    81    79   ar
    39    67    68    2
    40    78    79   ar
    41    78    77    1
    42    28    27    2
    43    39    41   am
    44    39    40    2
    45    93    91   ar
    46    93    94   ar
    47    77    74    1
    48    95    94    1
    49    19    18    2
    50    27    26    1
    51    73    74    1
    52    91    89   ar
    53    94    92   ar
    54    74    75    1
    55    18    17    1
    56    18    25   am
    57    26    25    1
    58    26    29    1
    59    17    20    1
    60    17    16    1
    61     8     6    1
    62    31    29    1
    63    89    90   ar
    64    89    88    1
    65    92    90   ar
    66    75    84   am
    67    75    76    2
    68    84    85    1
    69    29    30    1
    70    20    21    1
    71    88    85    1
    72    21    22    1
    73     7     6    1
    74    32    30    1
    75     6     5    1
    76    22    23    1
    77    85    86    1
    78    23    24    1
    79    87    86    2
    80     1     2    1
    81     5     2    1
    82    12    11    2
    83     2     3    1
    84     3     4    2
    85    11    10    1
    86    10     9    1
    87    10    13    1
    88     9    15    1
    89    13    14    1
    90    15    14    1
