@<TRIPOS>MOLECULE
tmp/5v7pA06.pdb
 174 170 0 0 0
SMALL
GASTEIGER

@<TRIPOS>ATOM
      1  N         34.2340   55.8380   36.7400 N.3    94  TYR94      -0.1241
      2  CA        34.8440   55.3400   37.9680 C.3    94  TYR94       0.1605
      3  C         35.1450   56.4820   38.9310 C.2    94  TYR94       0.2264
      4  O         34.8530   56.3940   40.1290 O.2    94  TYR94      -0.2867
      5  CB        36.1150   54.5610   37.6280 C.3    94  TYR94       0.0534
      6  CG        37.1040   54.4590   38.7660 C.ar   94  TYR94      -0.0201
      7  CD1       36.9860   53.4660   39.7260 C.ar   94  TYR94      -0.0009
      8  CD2       38.1630   55.3530   38.8750 C.ar   94  TYR94      -0.0009
      9  CE1       37.8890   53.3680   40.7660 C.ar   94  TYR94       0.0417
     10  CE2       39.0720   55.2630   39.9140 C.ar   94  TYR94       0.0417
     11  CZ        38.9300   54.2680   40.8570 C.ar   94  TYR94       0.1957
     12  OH        39.8280   54.1660   41.8950 O.3    94  TYR94      -0.2866
     13  N         33.4460   57.0000   42.7000 N.3    98  MET98      -0.1245
     14  CA        34.2850   57.1200   43.8850 C.3    98  MET98       0.1570
     15  C         33.9570   58.3830   44.6670 C.2    98  MET98       0.2261
     16  O         33.8360   58.3490   45.8970 O.2    98  MET98      -0.2867
     17  CB        35.7550   57.1180   43.4710 C.3    98  MET98       0.0387
     18  CG        36.2070   55.8220   42.8240 C.3    98  MET98       0.0595
     19  SD        36.6480   54.5780   44.0440 S.3    98  MET98      -0.1393
     20  CE        38.1470   55.3000   44.7130 C.3    98  MET98       0.0692
     21  N         37.0740   62.0900   59.2000 N.3   120  ASP120     -0.1239
     22  CA        37.1040   60.6380   59.0840 C.3   120  ASP120      0.1674
     23  C         35.8130   60.0890   58.4930 C.2   120  ASP120      0.2266
     24  O         35.8160   58.9790   57.9490 O.2   120  ASP120     -0.2867
     25  CB        37.3540   60.0110   60.4550 C.3   120  ASP120      0.1410
     26  CG        38.5800   60.5790   61.1410 C.2   120  ASP120      0.3668
     27  OD1       39.6250   60.7160   60.4720 O.co2 120  ASP120     -0.2456
     28  OD2       38.4950   60.8980   62.3460 O.co2 120  ASP120     -0.2456
     29  N         35.6400   58.7250   55.1630 N.3   123  VAL123     -0.1231
     30  CA        36.0920   57.3390   55.0640 C.3   123  VAL123      0.1692
     31  C         37.1830   57.1790   54.0090 C.2   123  VAL123      0.2592
     32  O         37.2460   56.1620   53.3100 O.2   123  VAL123     -0.2718
     33  CB        34.8950   56.3960   54.8000 C.3   123  VAL123      0.0266
     34  CG1       34.3940   56.4210   53.3420 C.3   123  VAL123      0.0020
     35  CG2       35.2240   54.9820   55.2360 C.3   123  VAL123      0.0020
     36  N         38.0800   58.1570   53.9200 N.am  124  ILE124     -0.1966
     37  CA        39.1830   58.1130   52.9650 C.3   124  ILE124      0.1727
     38  C         40.4190   57.5350   53.6480 C.2   124  ILE124      0.2616
     39  O         40.8320   58.0020   54.7150 O.2   124  ILE124     -0.2715
     40  CB        39.4730   59.5110   52.3890 C.3   124  ILE124      0.0290
     41  CG1       38.1840   60.1400   51.8440 C.3   124  ILE124      0.0022
     42  CG2       40.5270   59.4150   51.2870 C.3   124  ILE124      0.0023
     43  CD1       38.3440   61.5560   51.3090 C.3   124  ILE124      0.0001
     44  N         40.9990   56.5080   53.0340 N.am  125  ASN125     -0.1972
     45  CA        42.2790   55.9340   53.4350 C.3   125  ASN125      0.1688
     46  C         43.2680   56.2660   52.3280 C.2   125  ASN125      0.2292
     47  O         43.0380   55.8690   51.1820 O.2   125  ASN125     -0.2864
     48  CB        42.1590   54.4210   53.6300 C.3   125  ASN125      0.1181
     49  CG        42.5490   53.9670   55.0200 C.2   125  ASN125      0.2629
     50  OD1       42.8920   54.7730   55.8820 O.2   125  ASN125     -0.2716
     51  ND2       42.4840   52.6610   55.2490 N.am  125  ASN125     -0.0877
     52  N         46.2830   50.3200   51.3220 N.3   130  TYR130     -0.1241
     53  CA        45.0400   50.6670   50.6420 C.3   130  TYR130      0.1605
     54  C         45.2900   51.6490   49.5040 C.2   130  TYR130      0.2264
     55  O         44.6990   51.5250   48.4250 O.2   130  TYR130     -0.2867
     56  CB        44.0580   51.2530   51.6540 C.3   130  TYR130      0.0534
     57  CG        42.7160   51.6730   51.0970 C.ar  130  TYR130     -0.0201
     58  CD1       42.5290   52.9460   50.5800 C.ar  130  TYR130     -0.0009
     59  CD2       41.6290   50.8100   51.1200 C.ar  130  TYR130     -0.0009
     60  CE1       41.3060   53.3440   50.0840 C.ar  130  TYR130      0.0417
     61  CE2       40.4010   51.1990   50.6260 C.ar  130  TYR130      0.0417
     62  CZ        40.2440   52.4670   50.1130 C.ar  130  TYR130      0.1957
     63  OH        39.0200   52.8580   49.6190 O.3   130  TYR130     -0.2866
     64  N         46.8130   49.8140   46.5570 N.3   133  ALA133     -0.1231
     65  CA        45.7800   49.0850   45.8300 C.3   133  ALA133      0.1694
     66  C         44.9900   50.0150   44.9200 C.2   133  ALA133      0.2591
     67  O         44.6890   49.6650   43.7730 O.2   133  ALA133     -0.2718
     68  CB        44.8460   48.3790   46.8130 C.3   133  ALA133      0.0304
     69  N         44.6510   51.2080   45.4130 N.am  134  ALA134     -0.1980
     70  CA        43.8940   52.1580   44.6060 C.3   134  ALA134      0.1597
     71  C         44.7170   52.6490   43.4220 C.2   134  ALA134      0.2287
     72  O         44.2370   52.6620   42.2830 O.2   134  ALA134     -0.2864
     73  CB        43.4400   53.3330   45.4710 C.3   134  ALA134      0.0319
     74  N         45.2020   50.1190   40.6520 N.3   137  SER137     -0.1217
     75  CA        44.0870   49.9800   39.7220 C.3   137  SER137      0.1889
     76  C         44.0930   51.0880   38.6790 C.2   137  SER137      0.2288
     77  O         43.5790   50.8950   37.5720 O.2   137  SER137     -0.2866
     78  CB        42.7550   49.9700   40.4770 C.3   137  SER137      0.2089
     79  OG        42.3490   51.2770   40.8460 O.3   137  SER137     -0.2183
     80  N         29.1410   47.5900   50.7030 N.3   214  TRP214     -0.1241
     81  CA        30.5320   47.9830   50.5160 C.3   214  TRP214      0.1605
     82  C         31.3100   46.9020   49.7760 C.2   214  TRP214      0.2264
     83  O         32.1020   47.2020   48.8750 O.2   214  TRP214     -0.2867
     84  CB        31.1670   48.2740   51.8760 C.3   214  TRP214      0.0550
     85  CG        32.3810   49.1450   51.8160 C.ar  214  TRP214      0.0003
     86  CD1       33.2270   49.3050   50.7580 C.ar  214  TRP214      0.0946
     87  CD2       32.8830   49.9860   52.8610 C.ar  214  TRP214      0.0152
     88  NE1       34.2260   50.1900   51.0810 N.ar  214  TRP214     -0.2442
     89  CE2       34.0370   50.6230   52.3670 C.ar  214  TRP214      0.0810
     90  CE3       32.4690   50.2600   54.1690 C.ar  214  TRP214      0.0012
     91  CZ2       34.7820   51.5180   53.1320 C.ar  214  TRP214      0.0191
     92  CZ3       33.2090   51.1470   54.9270 C.ar  214  TRP214      0.0001
     93  CH2       34.3530   51.7650   54.4080 C.ar  214  TRP214      0.0015
     94  N         30.1400   46.8690   46.0900 N.3   217  TRP217     -0.1227
     95  CA        30.5180   48.1480   45.5010 C.3   217  TRP217      0.1737
     96  C         31.9970   48.1610   45.1430 C.2   217  TRP217      0.2596
     97  O         32.3770   48.5580   44.0360 O.2   217  TRP217     -0.2718
     98  CB        30.1880   49.2870   46.4650 C.3   217  TRP217      0.0564
     99  CG        30.6370   50.6320   45.9780 C.ar  217  TRP217      0.0003
    100  CD1       29.9280   51.5000   45.2040 C.ar  217  TRP217      0.0946
    101  CD2       31.8990   51.2640   46.2360 C.ar  217  TRP217      0.0152
    102  NE1       30.6660   52.6330   44.9630 N.ar  217  TRP217     -0.2442
    103  CE2       31.8800   52.5130   45.5850 C.ar  217  TRP217      0.0810
    104  CE3       33.0400   50.8970   46.9570 C.ar  217  TRP217      0.0012
    105  CZ2       32.9560   53.3960   45.6320 C.ar  217  TRP217      0.0191
    106  CZ3       34.1080   51.7760   47.0020 C.ar  217  TRP217      0.0001
    107  CH2       34.0580   53.0100   46.3420 C.ar  217  TRP217      0.0015
    108  N         32.8500   47.7160   46.0680 N.am  218  SER218     -0.1952
    109  CA        34.2860   47.7620   45.8180 C.3   218  SER218      0.1924
    110  C         34.6660   46.8930   44.6270 C.2   218  SER218      0.2314
    111  O         35.4800   47.2970   43.7880 O.2   218  SER218     -0.2863
    112  CB        35.0530   47.3210   47.0620 C.3   218  SER218      0.2116
    113  OG        34.7860   45.9640   47.3900 O.3   218  SER218     -0.2180
    114  N         33.6240   48.7060   41.3650 N.3   221  THR221     -0.1203
    115  CA        34.5040   49.7470   40.8430 C.3   221  THR221      0.1994
    116  C         35.4840   49.1780   39.8260 C.2   221  THR221      0.2617
    117  O         35.7630   49.8080   38.8000 O.2   221  THR221     -0.2717
    118  CB        35.2660   50.4280   41.9820 C.3   221  THR221      0.1784
    119  OG1       36.1100   49.4770   42.6380 O.3   221  THR221     -0.2211
    120  CG2       34.3020   51.0450   42.9920 C.3   221  THR221      0.0376
    121  N         36.0130   47.9840   40.0920 N.am  222  GLN222     -0.1979
    122  CA        36.9630   47.3660   39.1770 C.3   222  GLN222      0.1601
    123  C         36.2880   46.7180   37.9790 C.2   222  GLN222      0.2287
    124  O         36.9370   46.5340   36.9440 O.2   222  GLN222     -0.2864
    125  CB        37.8100   46.3360   39.9290 C.3   222  GLN222      0.0394
    126  CG        38.6000   46.9420   41.0750 C.3   222  GLN222      0.0908
    127  CD        39.3830   48.1650   40.6420 C.2   222  GLN222      0.2608
    128  OE1       40.2470   48.0830   39.7710 O.2   222  GLN222     -0.2717
    129  NE2       39.0640   49.3140   41.2290 N.am  222  GLN222     -0.0878
    130  N         40.7380   42.7390   44.4740 N.3   234  TYR234     -0.1241
    131  CA        39.8060   43.5090   45.2920 C.3   234  TYR234      0.1605
    132  C         38.8050   42.5990   45.9930 C.2   234  TYR234      0.2264
    133  O         38.4790   42.8100   47.1680 O.2   234  TYR234     -0.2867
    134  CB        39.0750   44.5360   44.4260 C.3   234  TYR234      0.0534
    135  CG        39.8190   45.8410   44.2490 C.ar  234  TYR234     -0.0201
    136  CD1       41.1780   45.8610   43.9590 C.ar  234  TYR234     -0.0009
    137  CD2       39.1570   47.0550   44.3610 C.ar  234  TYR234     -0.0009
    138  CE1       41.8560   47.0570   43.7990 C.ar  234  TYR234      0.0417
    139  CE2       39.8240   48.2530   44.2010 C.ar  234  TYR234      0.0417
    140  CZ        41.1730   48.2490   43.9190 C.ar  234  TYR234      0.1957
    141  OH        41.8380   49.4440   43.7610 O.3   234  TYR234     -0.2866
    142  N         40.7680   40.7680   48.9260 N.3   237  ALA237     -0.1231
    143  CA        41.1410   41.7180   49.9680 C.3   237  ALA237      0.1694
    144  C         39.9050   42.2180   50.7020 C.2   237  ALA237      0.2592
    145  O         39.8730   42.2590   51.9380 O.2   237  ALA237     -0.2718
    146  CB        41.9160   42.8850   49.3590 C.3   237  ALA237      0.0304
    147  N         38.8750   42.6060   49.9470 N.am  238  SER238     -0.1952
    148  CA        37.6070   42.9950   50.5570 C.3   238  SER238      0.1924
    149  C         37.0660   41.8860   51.4500 C.2   238  SER238      0.2314
    150  O         36.6490   42.1370   52.5870 O.2   238  SER238     -0.2863
    151  CB        36.5880   43.3340   49.4650 C.3   238  SER238      0.2116
    152  OG        35.3520   43.7730   50.0050 O.3   238  SER238     -0.2180
    153  N         38.9840   41.2660   54.8030 N.3   241  PHE241     -0.1227
    154  CA        38.8500   42.3710   55.7450 C.3   241  PHE241      0.1736
    155  C         37.5160   42.3080   56.4770 C.2   241  PHE241      0.2595
    156  O         37.4600   42.5180   57.6940 O.2   241  PHE241     -0.2718
    157  CB        39.0010   43.7060   55.0170 C.3   241  PHE241      0.0547
    158  CG        38.8110   44.9030   55.9060 C.ar  241  PHE241     -0.0202
    159  CD1       39.8240   45.3210   56.7570 C.ar  241  PHE241     -0.0042
    160  CD2       37.6210   45.6120   55.8910 C.ar  241  PHE241     -0.0042
    161  CE1       39.6520   46.4220   57.5750 C.ar  241  PHE241     -0.0003
    162  CE2       37.4430   46.7140   56.7080 C.ar  241  PHE241     -0.0003
    163  CZ        38.4590   47.1190   57.5510 C.ar  241  PHE241     -0.0000
    164  N         36.4330   42.0140   55.7580 N.am  242  PHE242     -0.1976
    165  CA        35.1210   41.9500   56.3910 C.3   242  PHE242      0.1639
    166  C         34.9380   40.6720   57.1980 C.2   242  PHE242      0.2290
    167  O         34.1650   40.6630   58.1620 O.2   242  PHE242     -0.2864
    168  CB        34.0200   42.0820   55.3340 C.3   242  PHE242      0.0560
    169  CG        33.8510   43.4840   54.8090 C.ar  242  PHE242     -0.0200
    170  CD1       33.6800   44.5480   55.6810 C.ar  242  PHE242     -0.0042
    171  CD2       33.8780   43.7400   53.4460 C.ar  242  PHE242     -0.0042
    172  CE1       33.5290   45.8350   55.2060 C.ar  242  PHE242     -0.0003
    173  CE2       33.7270   45.0280   52.9660 C.ar  242  PHE242     -0.0003
    174  CZ        33.5540   46.0760   53.8470 C.ar  242  PHE242     -0.0000
@<TRIPOS>BOND
     1     1     2    1
     2   124   123    2
     3    77    76    2
     4     5     2    1
     5     5     6    1
     6     2     3    1
     7   123   122    1
     8    76    75    1
     9     6     8   ar
    10     6     7   ar
    11   117   116    2
    12     8    10   ar
    13     3     4    2
    14   122   125    1
    15   122   121    1
    16    75    78    1
    17    75    74    1
    18     7     9   ar
    19   128   127    2
    20   116   121   am
    21   116   115    1
    22    10    11   ar
    23   125   126    1
    24    78    79    1
    25   127   126    1
    26   127   129   am
    27     9    11   ar
    28   115   114    1
    29   115   118    1
    30    11    12    1
    31   118   119    1
    32   118   120    1
    33    72    71    2
    34    13    14    1
    35    18    17    1
    36    18    19    1
    37    71    70    1
    38    17    14    1
    39   141   140    1
    40    67    66    2
    41   111   110    2
    42   138   140   ar
    43   138   136   ar
    44    14    15    1
    45   140   139   ar
    46   136   135   ar
    47    97    96    2
    48    19    20    1
    49   139   137   ar
    50   135   137   ar
    51   135   134    1
    52   134   131    1
    53   130   131    1
    54    70    69    1
    55    70    73    1
    56   110   109    1
    57    15    16    2
    58    66    69   am
    59    66    65    1
    60   102   100   ar
    61   102   103   ar
    62    96    95    1
    63    96   108   am
    64   100    99   ar
    65   131   132    1
    66    95    94    1
    67    95    98    1
    68   103   105   ar
    69   103   101   ar
    70   105   107   ar
    71   109   108    1
    72   109   112    1
    73    65    64    1
    74    65    68    1
    75    99   101   ar
    76    99    98    1
    77   132   133    2
    78   101   104   ar
    79   107   106   ar
    80   104   106   ar
    81   112   113    1
    82    55    54    2
    83    83    82    2
    84   142   143    1
    85   146   143    1
    86   151   152    1
    87   151   148    1
    88    54    53    1
    89    63    62    1
    90    82    81    1
    91   147   148    1
    92   147   144   am
    93   143   144    1
    94    60    62   ar
    95    60    58   ar
    96    62    61   ar
    97    81    80    1
    98    81    84    1
    99   148   149    1
   100    58    57   ar
   101    61    59   ar
   102    53    52    1
   103    53    56    1
   104   144   145    2
   105    86    88   ar
   106    86    85   ar
   107    88    89   ar
   108    57    59   ar
   109    57    56    1
   110    47    46    2
   111    42    40    1
   112    43    41    1
   113   149   150    2
   114    85    84    1
   115    85    87   ar
   116    41    40    1
   117    46    45    1
   118    89    87   ar
   119    89    91   ar
   120    40    37    1
   121    87    90   ar
   122    37    38    1
   123    37    36    1
   124   173   171   ar
   125   173   174   ar
   126    44    45    1
   127    44    38   am
   128    91    93   ar
   129    32    31    2
   130    34    33    1
   131    45    48    1
   132   171   169   ar
   133    48    49    1
   134    38    39    2
   135   174   172   ar
   136    36    31   am
   137    31    30    1
   138    90    92   ar
   139    93    92   ar
   140    33    30    1
   141    33    35    1
   142   153   154    1
   143   169   168    1
   144   169   170   ar
   145   157   154    1
   146   157   158    1
   147    49    51   am
   148    49    50    2
   149    30    29    1
   150   172   170   ar
   151   168   165    1
   152   154   155    1
   153   164   165    1
   154   164   155   am
   155   160   158   ar
   156   160   162   ar
   157   158   159   ar
   158   165   166    1
   159   155   156    2
   160   162   163   ar
   161   159   161   ar
   162   166   167    2
   163   163   161   ar
   164    24    23    2
   165    23    22    1
   166    22    21    1
   167    22    25    1
   168    25    26    1
   169    27    26   ar
   170    26    28   ar
