@<TRIPOS>MOLECULE
tmp/5v7pA14.pdb
 100 99 0 0 0
SMALL
GASTEIGER

@<TRIPOS>ATOM
      1  N         36.5530   69.1670   47.0350 N.3    69  PHE69      -0.1241
      2  CA        37.4140   68.3120   46.2270 C.3    69  PHE69       0.1605
      3  C         36.6240   67.1630   45.6160 C.2    69  PHE69       0.2264
      4  O         36.8150   66.8240   44.4420 O.2    69  PHE69      -0.2867
      5  CB        38.5680   67.7800   47.0780 C.3    69  PHE69       0.0534
      6  CG        39.3160   66.6410   46.4450 C.ar   69  PHE69      -0.0203
      7  CD1       40.2540   66.8760   45.4530 C.ar   69  PHE69      -0.0042
      8  CD2       39.0830   65.3360   46.8440 C.ar   69  PHE69      -0.0042
      9  CE1       40.9440   65.8290   44.8700 C.ar   69  PHE69      -0.0003
     10  CE2       39.7680   64.2850   46.2650 C.ar   69  PHE69      -0.0003
     11  CZ        40.7010   64.5320   45.2760 C.ar   69  PHE69      -0.0000
     12  N         33.4460   57.0000   42.7000 N.3    98  MET98      -0.1245
     13  CA        34.2850   57.1200   43.8850 C.3    98  MET98       0.1570
     14  C         33.9570   58.3830   44.6670 C.2    98  MET98       0.2261
     15  O         33.8360   58.3490   45.8970 O.2    98  MET98      -0.2867
     16  CB        35.7550   57.1180   43.4710 C.3    98  MET98       0.0387
     17  CG        36.2070   55.8220   42.8240 C.3    98  MET98       0.0595
     18  SD        36.6480   54.5780   44.0440 S.3    98  MET98      -0.1393
     19  CE        38.1470   55.3000   44.7130 C.3    98  MET98       0.0692
     20  N         32.3640   58.5670   48.7380 N.3   102  HIS102     -0.1241
     21  CA        33.0060   59.1620   49.9040 C.3   102  HIS102      0.1621
     22  C         32.2010   60.3350   50.4500 C.2   102  HIS102      0.2264
     23  O         32.1220   60.5220   51.6690 O.2   102  HIS102     -0.2867
     24  CB        34.4290   59.5930   49.5520 C.3   102  HIS102      0.0745
     25  CG        35.3690   58.4450   49.3420 C.ar  102  HIS102      0.0817
     26  ND1       35.8410   57.6720   50.3810 N.ar  102  HIS102     -0.2268
     27  CD2       35.9170   57.9340   48.2140 C.ar  102  HIS102      0.1154
     28  CE1       36.6410   56.7360   49.9020 C.ar  102  HIS102      0.1986
     29  NE2       36.7040   56.8730   48.5900 N.ar  102  HIS102     -0.2212
     30  N         38.0800   58.1570   53.9200 N.3   124  ILE124     -0.1231
     31  CA        39.1830   58.1130   52.9650 C.3   124  ILE124      0.1692
     32  C         40.4190   57.5350   53.6480 C.2   124  ILE124      0.2592
     33  O         40.8320   58.0020   54.7150 O.2   124  ILE124     -0.2718
     34  CB        39.4730   59.5110   52.3890 C.3   124  ILE124      0.0266
     35  CG1       38.1840   60.1400   51.8440 C.3   124  ILE124      0.0019
     36  CG2       40.5270   59.4150   51.2870 C.3   124  ILE124      0.0020
     37  CD1       38.3440   61.5560   51.3090 C.3   124  ILE124      0.0001
     38  N         40.9990   56.5080   53.0340 N.am  125  ASN125     -0.1960
     39  CA        42.2790   55.9340   53.4350 C.3   125  ASN125      0.1819
     40  C         43.2680   56.2660   52.3280 C.2   125  ASN125      0.2621
     41  O         43.0380   55.8690   51.1820 O.2   125  ASN125     -0.2715
     42  CB        42.1590   54.4210   53.6300 C.3   125  ASN125      0.1195
     43  CG        42.5490   53.9670   55.0200 C.2   125  ASN125      0.2630
     44  OD1       42.8920   54.7730   55.8820 O.2   125  ASN125     -0.2716
     45  ND2       42.4840   52.6610   55.2490 N.am  125  ASN125     -0.0877
     46  N         44.3660   56.9740   52.6270 N.am  126  HIS126     -0.1973
     47  CA        44.9870   57.2410   53.9320 C.3   126  HIS126      0.1656
     48  C         45.3210   55.9410   54.6750 C.2   126  HIS126      0.2291
     49  O         45.1730   55.8500   55.8930 O.2   126  HIS126     -0.2864
     50  CB        44.1500   58.1900   54.8110 C.3   126  HIS126      0.0771
     51  CG        44.0360   59.5780   54.2680 C.ar  126  HIS126      0.0820
     52  ND1       43.6540   59.8460   52.9710 N.ar  126  HIS126     -0.2267
     53  CD2       44.2510   60.7800   54.8520 C.ar  126  HIS126      0.1154
     54  CE1       43.6480   61.1520   52.7740 C.ar  126  HIS126      0.1986
     55  NE2       44.0070   61.7420   53.9000 N.ar  126  HIS126     -0.2212
     56  N         46.2830   50.3200   51.3220 N.3   130  TYR130     -0.1227
     57  CA        45.0400   50.6670   50.6420 C.3   130  TYR130      0.1736
     58  C         45.2900   51.6490   49.5040 C.2   130  TYR130      0.2596
     59  O         44.6990   51.5250   48.4250 O.2   130  TYR130     -0.2718
     60  CB        44.0580   51.2530   51.6540 C.3   130  TYR130      0.0548
     61  CG        42.7160   51.6730   51.0970 C.ar  130  TYR130     -0.0200
     62  CD1       42.5290   52.9460   50.5800 C.ar  130  TYR130     -0.0009
     63  CD2       41.6290   50.8100   51.1200 C.ar  130  TYR130     -0.0009
     64  CE1       41.3060   53.3440   50.0840 C.ar  130  TYR130      0.0417
     65  CE2       40.4010   51.1990   50.6260 C.ar  130  TYR130      0.0417
     66  CZ        40.2440   52.4670   50.1130 C.ar  130  TYR130      0.1957
     67  OH        39.0200   52.8580   49.6190 O.3   130  TYR130     -0.2866
     68  N         46.1600   52.6380   49.7290 N.am  131  THR131     -0.1953
     69  CA        46.4680   53.6050   48.6810 C.3   131  THR131      0.1897
     70  C         47.1760   52.9340   47.5120 C.2   131  THR131      0.2313
     71  O         46.9140   53.2610   46.3490 O.2   131  THR131     -0.2863
     72  CB        47.3230   54.7400   49.2510 C.3   131  THR131      0.1794
     73  OG1       46.5800   55.4350   50.2610 O.3   131  THR131     -0.2208
     74  CG2       47.7310   55.7340   48.1610 C.3   131  THR131      0.0378
     75  N         44.6510   51.2080   45.4130 N.3   134  ALA134     -0.1231
     76  CA        43.8940   52.1580   44.6060 C.3   134  ALA134      0.1694
     77  C         44.7170   52.6490   43.4220 C.2   134  ALA134      0.2591
     78  O         44.2370   52.6620   42.2830 O.2   134  ALA134     -0.2718
     79  CB        43.4400   53.3330   45.4710 C.3   134  ALA134      0.0304
     80  N         45.9620   53.0630   43.6750 N.am  135  VAL135     -0.1980
     81  CA        46.8270   53.5220   42.5900 C.3   135  VAL135      0.1595
     82  C         47.0930   52.3880   41.6100 C.2   135  VAL135      0.2287
     83  O         47.1370   52.5970   40.3910 O.2   135  VAL135     -0.2864
     84  CB        48.1400   54.0940   43.1580 C.3   135  VAL135      0.0276
     85  CG1       49.1140   54.4480   42.0360 C.3   135  VAL135      0.0022
     86  CG2       47.8600   55.3200   44.0120 C.3   135  VAL135      0.0022
     87  N         44.6700   52.2450   39.0070 N.3   138  TRP138     -0.1241
     88  CA        44.8230   53.3000   38.0120 C.3   138  TRP138      0.1605
     89  C         45.8870   52.9320   36.9870 C.2   138  TRP138      0.2264
     90  O         45.7000   53.1520   35.7850 O.2   138  TRP138     -0.2867
     91  CB        45.1850   54.6230   38.6870 C.3   138  TRP138      0.0550
     92  CG        44.2220   55.0720   39.7350 C.ar  138  TRP138      0.0003
     93  CD1       42.9590   54.6020   39.9530 C.ar  138  TRP138      0.0946
     94  CD2       44.4490   56.0860   40.7200 C.ar  138  TRP138      0.0152
     95  NE1       42.3860   55.2630   41.0130 N.ar  138  TRP138     -0.2442
     96  CE2       43.2810   56.1780   41.5020 C.ar  138  TRP138      0.0810
     97  CE3       45.5270   56.9240   41.0170 C.ar  138  TRP138      0.0012
     98  CZ2       43.1610   57.0760   42.5600 C.ar  138  TRP138      0.0191
     99  CZ3       45.4070   57.8150   42.0670 C.ar  138  TRP138      0.0001
    100  CH2       44.2320   57.8830   42.8260 C.ar  138  TRP138      0.0015
@<TRIPOS>BOND
     1    90    89    2
     2    89    88    1
     3    88    91    1
     4    88    87    1
     5    91    92    1
     6    92    93   ar
     7    92    94   ar
     8    93    95   ar
     9    83    82    2
    10    94    97   ar
    11    94    96   ar
    12    95    96   ar
    13    97    99   ar
    14    96    98   ar
    15    82    81    1
    16    85    84    1
    17    99   100   ar
    18    78    77    2
    19    98   100   ar
    20    81    84    1
    21    81    80    1
    22    12    13    1
    23    17    16    1
    24    17    18    1
    25    84    86    1
    26    77    80   am
    27    77    76    1
    28    16    13    1
    29    13    14    1
    30    18    19    1
    31     4     3    2
    32    76    75    1
    33    76    79    1
    34    14    15    2
    35     9    11   ar
    36     9     7   ar
    37    11    10   ar
    38     7     6   ar
    39     3     2    1
    40     2     1    1
    41     2     5    1
    42    10     8   ar
    43    71    70    2
    44     6     8   ar
    45     6     5    1
    46    70    69    1
    47    74    72    1
    48    27    29   ar
    49    27    25   ar
    50    59    58    2
    51    29    28   ar
    52    69    72    1
    53    69    68    1
    54    20    21    1
    55    72    73    1
    56    25    24    1
    57    25    26   ar
    58    58    68   am
    59    58    57    1
    60    24    21    1
    61    67    66    1
    62    28    26   ar
    63    21    22    1
    64    64    66   ar
    65    64    62   ar
    66    66    65   ar
    67    22    23    2
    68    62    61   ar
    69    65    63   ar
    70    57    56    1
    71    57    60    1
    72    61    63   ar
    73    61    60    1
    74    41    40    2
    75    36    34    1
    76    37    35    1
    77    35    34    1
    78    40    46   am
    79    40    39    1
    80    34    31    1
    81    46    47    1
    82    54    52   ar
    83    54    55   ar
    84    31    32    1
    85    31    30    1
    86    52    51   ar
    87    38    39    1
    88    38    32   am
    89    39    42    1
    90    42    43    1
    91    32    33    2
    92    55    53   ar
    93    47    48    1
    94    47    50    1
    95    51    50    1
    96    51    53   ar
    97    48    49    2
    98    43    45   am
    99    43    44    2
