@<TRIPOS>MOLECULE
tmp/5v7pA05.pdb
 81 76 0 0 0
SMALL
GASTEIGER

@<TRIPOS>ATOM
      1  N         28.3100   73.5760   45.4910 N.3    14  GLY14      -0.1225
      2  CA        28.9180   74.7890   44.9680 C.3    14  GLY14       0.1811
      3  C         30.1300   74.4960   44.1060 C.2    14  GLY14       0.2280
      4  O         30.2640   75.0210   42.9980 O.2    14  GLY14      -0.2866
      5  N         28.9890   72.9660   40.9480 N.3    17  LEU17      -0.1231
      6  CA        28.4290   73.9510   40.0280 C.3    17  LEU17       0.1693
      7  C         29.5300   74.7620   39.3560 C.2    17  LEU17       0.2591
      8  O         29.4620   75.0300   38.1510 O.2    17  LEU17      -0.2718
      9  CB        27.4630   74.8710   40.7740 C.3    17  LEU17       0.0284
     10  CG        26.6480   75.8410   39.9150 C.3    17  LEU17       0.0019
     11  CD1       25.6200   75.0880   39.0840 C.3    17  LEU17       0.0001
     12  CD2       25.9740   76.8940   40.7860 C.3    17  LEU17       0.0001
     13  N         30.5530   75.1540   40.1180 N.am   18  VAL18      -0.1980
     14  CA        31.6430   75.9540   39.5610 C.3    18  VAL18       0.1595
     15  C         32.3010   75.2150   38.4020 C.2    18  VAL18       0.2287
     16  O         32.3900   75.7260   37.2790 O.2    18  VAL18      -0.2864
     17  CB        32.6640   76.3050   40.6580 C.3    18  VAL18       0.0276
     18  CG1       33.9760   76.8220   40.0620 C.3    18  VAL18       0.0022
     19  CG2       32.0800   77.3460   41.6020 C.3    18  VAL18       0.0022
     20  N         30.3410   74.6540   35.2340 N.3    21  VAL21      -0.1231
     21  CA        30.3910   75.7940   34.3250 C.3    21  VAL21       0.1692
     22  C         31.7020   75.7960   33.5480 C.2    21  VAL21       0.2591
     23  O         31.7230   76.0570   32.3390 O.2    21  VAL21      -0.2718
     24  CB        30.1920   77.1060   35.1080 C.3    21  VAL21       0.0266
     25  CG1       30.3950   78.3230   34.2080 C.3    21  VAL21       0.0020
     26  CG2       28.8040   77.1420   35.7340 C.3    21  VAL21       0.0020
     27  N         32.8140   75.5040   34.2260 N.am   22  ILE22      -0.1980
     28  CA        34.1180   75.5130   33.5650 C.3    22  ILE22       0.1595
     29  C         34.1510   74.4810   32.4450 C.2    22  ILE22       0.2287
     30  O         34.5760   74.7700   31.3200 O.2    22  ILE22      -0.2864
     31  CB        35.2410   75.2690   34.5910 C.3    22  ILE22       0.0276
     32  CG1       35.2680   76.4010   35.6230 C.3    22  ILE22       0.0022
     33  CG2       36.5980   75.1540   33.8920 C.3    22  ILE22       0.0022
     34  CD1       36.1790   76.1410   36.8020 C.3    22  ILE22       0.0001
     35  N         32.0060   75.4480   29.5060 N.3    25  PHE25      -0.1227
     36  CA        32.6880   76.4520   28.6950 C.3    25  PHE25       0.1736
     37  C         33.7760   75.8170   27.8390 C.2    25  PHE25       0.2595
     38  O         33.8980   76.1150   26.6460 O.2    25  PHE25      -0.2718
     39  CB        33.2900   77.5370   29.5950 C.3    25  PHE25       0.0547
     40  CG        32.3450   78.6620   29.9300 C.ar   25  PHE25      -0.0202
     41  CD1       31.5340   79.2280   28.9600 C.ar   25  PHE25      -0.0042
     42  CD2       32.2850   79.1670   31.2200 C.ar   25  PHE25      -0.0042
     43  CE1       30.6760   80.2650   29.2720 C.ar   25  PHE25      -0.0003
     44  CE2       31.4280   80.2040   31.5370 C.ar   25  PHE25      -0.0003
     45  CZ        30.6240   80.7530   30.5610 C.ar   25  PHE25      -0.0000
     46  N         34.5820   74.9360   28.4350 N.am   26  ASN26      -0.1974
     47  CA        35.6810   74.3240   27.6970 C.3    26  ASN26       0.1688
     48  C         35.1810   73.4210   26.5790 C.2    26  ASN26       0.2292
     49  O         35.8750   73.2440   25.5710 O.2    26  ASN26      -0.2864
     50  CB        36.5730   73.5340   28.6520 C.3    26  ASN26       0.1181
     51  CG        37.3920   74.4290   29.5560 C.2    26  ASN26       0.2629
     52  OD1       37.2130   75.6480   29.5720 O.2    26  ASN26      -0.2716
     53  ND2       38.2970   73.8280   30.3190 N.am   26  ASN26      -0.0877
     54  N         37.9730   73.7060   23.5730 N.3    31  ILE31      -0.1245
     55  CA        39.1750   73.6070   24.3940 C.3    31  ILE31       0.1561
     56  C         39.3820   72.1370   24.7340 C.2    31  ILE31       0.2260
     57  O         38.7690   71.6130   25.6720 O.2    31  ILE31      -0.2867
     58  CB        39.0830   74.4690   25.6680 C.3    31  ILE31       0.0252
     59  CG1       38.7680   75.9250   25.3070 C.3    31  ILE31       0.0019
     60  CG2       40.3980   74.3890   26.4540 C.3    31  ILE31       0.0019
     61  CD1       38.5450   76.8320   26.5010 C.3    31  ILE31       0.0001
     62  N         43.3550   74.9150   33.5330 N.3    40  ILE40      -0.1245
     63  CA        42.1480   75.6870   33.8130 C.3    40  ILE40       0.1561
     64  C         41.4980   75.1960   35.1000 C.2    40  ILE40       0.2260
     65  O         41.0660   75.9960   35.9400 O.2    40  ILE40      -0.2867
     66  CB        41.1710   75.6180   32.6230 C.3    40  ILE40       0.0252
     67  CG1       41.7430   76.3870   31.4290 C.3    40  ILE40       0.0019
     68  CG2       39.7950   76.1830   33.0120 C.3    40  ILE40       0.0019
     69  CD1       40.8940   76.3160   30.1660 C.3    40  ILE40       0.0001
     70  N         41.3590   77.2810   38.9290 N.3    44  TYR44      -0.1241
     71  CA        40.1810   77.5390   39.7490 C.3    44  TYR44       0.1605
     72  C         40.1540   76.6770   41.0050 C.2    44  TYR44       0.2264
     73  O         39.5380   77.0690   42.0020 O.2    44  TYR44      -0.2867
     74  CB        38.9110   77.3270   38.9240 C.3    44  TYR44       0.0534
     75  CG        38.5690   78.5190   38.0580 C.ar   44  TYR44      -0.0201
     76  CD1       38.1640   79.7180   38.6310 C.ar   44  TYR44      -0.0009
     77  CD2       38.6560   78.4510   36.6730 C.ar   44  TYR44      -0.0009
     78  CE1       37.8560   80.8120   37.8530 C.ar   44  TYR44       0.0417
     79  CE2       38.3460   79.5440   35.8850 C.ar   44  TYR44       0.0417
     80  CZ        37.9470   80.7220   36.4830 C.ar   44  TYR44       0.1957
     81  OH        37.6360   81.8170   35.7120 O.3    44  TYR44      -0.2866
@<TRIPOS>BOND
     1    54    55    1
     2    55    56    1
     3    55    58    1
     4    56    57    2
     5    59    58    1
     6    59    61    1
     7    49    48    2
     8    58    60    1
     9    48    47    1
    10    38    37    2
    11    47    46    1
    12    47    50    1
    13    37    46   am
    14    37    36    1
    15    50    51    1
    16    36    35    1
    17    36    39    1
    18    41    43   ar
    19    41    40   ar
    20    43    45   ar
    21    51    52    2
    22    51    53   am
    23    39    40    1
    24    40    42   ar
    25    69    67    1
    26    45    44   ar
    27    42    44   ar
    28    30    29    2
    29    67    66    1
    30    23    22    2
    31    29    28    1
    32    66    68    1
    33    66    63    1
    34    62    63    1
    35    22    27   am
    36    22    21    1
    37    28    27    1
    38    28    31    1
    39    63    64    1
    40    33    31    1
    41    25    24    1
    42    21    24    1
    43    21    20    1
    44    31    32    1
    45    64    65    2
    46    24    26    1
    47    32    34    1
    48    81    80    1
    49    79    80   ar
    50    79    77   ar
    51    80    78   ar
    52    77    75   ar
    53    16    15    2
    54    78    76   ar
    55    75    76   ar
    56    75    74    1
    57     8     7    2
    58    15    14    1
    59    74    71    1
    60    70    71    1
    61    11    10    1
    62     7     6    1
    63     7    13   am
    64    14    13    1
    65    14    17    1
    66    71    72    1
    67    10     9    1
    68    10    12    1
    69     6     9    1
    70     6     5    1
    71    18    17    1
    72    17    19    1
    73    72    73    2
    74     4     3    2
    75     3     2    1
    76     2     1    1
