@<TRIPOS>MOLECULE
tmp/5v7pA11.pdb
 83 78 0 0 0
SMALL
GASTEIGER

@<TRIPOS>ATOM
      1  N         48.0830   51.9990   47.8010 N.3   132  ILE132     -0.1231
      2  CA        48.7600   51.2670   46.7340 C.3   132  ILE132      0.1692
      3  C         47.7420   50.5070   45.8950 C.2   132  ILE132      0.2591
      4  O         47.7820   50.5350   44.6600 O.2   132  ILE132     -0.2718
      5  CB        49.8290   50.3260   47.3220 C.3   132  ILE132      0.0266
      6  CG1       51.0220   51.1450   47.8260 C.3   132  ILE132      0.0019
      7  CG2       50.2850   49.2890   46.2840 C.3   132  ILE132      0.0020
      8  CD1       52.0840   50.3350   48.5470 C.3   132  ILE132      0.0001
      9  N         46.8130   49.8140   46.5570 N.am  133  ALA133     -0.1980
     10  CA        45.7800   49.0850   45.8300 C.3   133  ALA133      0.1597
     11  C         44.9900   50.0150   44.9200 C.2   133  ALA133      0.2287
     12  O         44.6890   49.6650   43.7730 O.2   133  ALA133     -0.2864
     13  CB        44.8460   48.3790   46.8130 C.3   133  ALA133      0.0319
     14  N         47.2740   51.1680   42.1210 N.3   136  SER136     -0.1217
     15  CA        47.5780   50.0450   41.2430 C.3   136  SER136      0.1889
     16  C         46.4350   49.7700   40.2760 C.2   136  SER136      0.2288
     17  O         46.6620   49.2340   39.1850 O.2   136  SER136     -0.2866
     18  CB        47.8900   48.7970   42.0690 C.3   136  SER136      0.2089
     19  OG        46.7090   48.2240   42.5970 O.3   136  SER136     -0.2183
     20  N         47.0140   52.3770   37.4410 N.3   139  VAL139     -0.1231
     21  CA        48.0910   52.0540   36.5140 C.3   139  VAL139      0.1692
     22  C         47.6890   50.8860   35.6230 C.2   139  VAL139      0.2591
     23  O         47.9910   50.8720   34.4240 O.2   139  VAL139     -0.2718
     24  CB        49.4020   51.7700   37.2750 C.3   139  VAL139      0.0266
     25  CG1       49.7220   52.9100   38.2360 C.3   139  VAL139      0.0020
     26  CG2       49.3360   50.4450   38.0150 C.3   139  VAL139      0.0020
     27  N         46.9930   49.8940   36.1840 N.am  140  GLU140     -0.1979
     28  CA        46.5140   48.7890   35.3610 C.3   140  GLU140      0.1602
     29  C         45.6280   49.3050   34.2380 C.2   140  GLU140      0.2287
     30  O         45.8100   48.9410   33.0700 O.2   140  GLU140     -0.2864
     31  CB        45.7510   47.7670   36.2060 C.3   140  GLU140      0.0415
     32  CG        45.2220   46.6010   35.3700 C.3   140  GLU140      0.1163
     33  CD        44.3910   45.6100   36.1520 C.2   140  GLU140      0.3649
     34  OE1       44.3170   45.7290   37.3910 O.co2 140  GLU140     -0.2457
     35  OE2       43.8050   44.7100   35.5180 O.co2 140  GLU140     -0.2457
     36  N         47.8170   51.3630   31.6640 N.3   143  ILE143     -0.1231
     37  CA        48.7160   50.4610   30.9500 C.3   143  ILE143      0.1692
     38  C         47.9150   49.5510   30.0280 C.2   143  ILE143      0.2591
     39  O         48.2740   49.3480   28.8620 O.2   143  ILE143     -0.2718
     40  CB        49.5750   49.6530   31.9430 C.3   143  ILE143      0.0266
     41  CG1       50.5880   50.5770   32.6260 C.3   143  ILE143      0.0019
     42  CG2       50.2960   48.5000   31.2320 C.3   143  ILE143      0.0020
     43  CD1       51.4750   49.8950   33.6630 C.3   143  ILE143      0.0001
     44  N         46.8110   48.9960   30.5340 N.am  144  GLU144     -0.1979
     45  CA        45.9820   48.1170   29.7160 C.3   144  GLU144      0.1602
     46  C         45.2750   48.8900   28.6110 C.2   144  GLU144      0.2287
     47  O         45.0820   48.3660   27.5080 O.2   144  GLU144     -0.2864
     48  CB        44.9620   47.3890   30.5890 C.3   144  GLU144      0.0415
     49  CG        45.5520   46.2630   31.4200 C.3   144  GLU144      0.1163
     50  CD        44.5390   45.6430   32.3580 C.2   144  GLU144      0.3649
     51  OE1       43.4420   46.2180   32.5140 O.co2 144  GLU144     -0.2457
     52  OE2       44.8390   44.5810   32.9420 O.co2 144  GLU144     -0.2457
     53  N         42.9760   42.1500   36.5590 N.3   229  LEU229     -0.1231
     54  CA        43.8350   41.8140   37.6890 C.3   229  LEU229      0.1693
     55  C         43.2660   42.3090   39.0140 C.2   229  LEU229      0.2592
     56  O         43.3560   41.6070   40.0270 O.2   229  LEU229     -0.2718
     57  CB        45.2370   42.3960   37.4810 C.3   229  LEU229      0.0284
     58  CG        45.9920   41.9450   36.2270 C.3   229  LEU229      0.0019
     59  CD1       47.3480   42.6340   36.1580 C.3   229  LEU229      0.0001
     60  CD2       46.1600   40.4300   36.1940 C.3   229  LEU229      0.0001
     61  N         42.6720   43.5020   39.0280 N.am  230  CYS230     -0.1970
     62  CA        42.2060   44.0850   40.2810 C.3   230  CYS230      0.1712
     63  C         40.8930   43.4770   40.7550 C.2   230  CYS230      0.2296
     64  O         40.6270   43.4700   41.9620 O.2   230  CYS230     -0.2864
     65  CB        42.0480   45.5980   40.1320 C.3   230  CYS230      0.0983
     66  SG        43.5820   46.5300   40.3820 S.3   230  CYS230     -0.0798
     67  N         41.6880   40.5260   42.9640 N.3   233  ALA233     -0.1231
     68  CA        42.4500   41.0400   44.0980 C.3   233  ALA233      0.1694
     69  C         41.5560   41.8430   45.0340 C.2   233  ALA233      0.2592
     70  O         41.5950   41.6630   46.2570 O.2   233  ALA233     -0.2718
     71  CB        43.6150   41.8930   43.5970 C.3   233  ALA233      0.0304
     72  N         40.7380   42.7390   44.4740 N.am  234  TYR234     -0.1976
     73  CA        39.8060   43.5090   45.2920 C.3   234  TYR234      0.1639
     74  C         38.8050   42.5990   45.9930 C.2   234  TYR234      0.2290
     75  O         38.4790   42.8100   47.1680 O.2   234  TYR234     -0.2864
     76  CB        39.0750   44.5360   44.4260 C.3   234  TYR234      0.0560
     77  CG        39.8190   45.8410   44.2490 C.ar  234  TYR234     -0.0198
     78  CD1       41.1780   45.8610   43.9590 C.ar  234  TYR234     -0.0009
     79  CD2       39.1570   47.0550   44.3610 C.ar  234  TYR234     -0.0009
     80  CE1       41.8560   47.0570   43.7990 C.ar  234  TYR234      0.0417
     81  CE2       39.8240   48.2530   44.2010 C.ar  234  TYR234      0.0417
     82  CZ        41.1730   48.2490   43.9190 C.ar  234  TYR234      0.1957
     83  OH        41.8380   49.4440   43.7610 O.3   234  TYR234     -0.2866
@<TRIPOS>BOND
     1    47    46    2
     2    46    45    1
     3    39    38    2
     4    45    44    1
     5    45    48    1
     6    38    44   am
     7    38    37    1
     8    48    49    1
     9    37    36    1
    10    37    40    1
    11    42    40    1
    12    49    50    1
    13    40    41    1
    14    50    51   ar
    15    50    52   ar
    16    41    43    1
    17    30    29    2
    18    29    28    1
    19    23    22    2
    20    28    27    1
    21    28    31    1
    22    32    33    1
    23    32    31    1
    24    35    33   ar
    25    22    27   am
    26    22    21    1
    27    33    34   ar
    28    59    58    1
    29    60    58    1
    30    58    57    1
    31    21    24    1
    32    21    20    1
    33    53    54    1
    34    24    26    1
    35    24    25    1
    36    57    54    1
    37    54    55    1
    38    55    61   am
    39    55    56    2
    40    61    62    1
    41    17    16    2
    42    65    62    1
    43    65    66    1
    44    16    15    1
    45    62    63    1
    46    63    64    2
    47    15    18    1
    48    15    14    1
    49    18    19    1
    50    67    68    1
    51    71    68    1
    52    83    82    1
    53    12    11    2
    54    80    82   ar
    55    80    78   ar
    56    82    81   ar
    57    78    77   ar
    58    68    69    1
    59    81    79   ar
    60    77    79   ar
    61    77    76    1
    62    76    73    1
    63    72    69   am
    64    72    73    1
    65     4     3    2
    66    11    10    1
    67    69    70    2
    68    73    74    1
    69    10     9    1
    70    10    13    1
    71     3     9   am
    72     3     2    1
    73    74    75    2
    74     7     5    1
    75     2     5    1
    76     2     1    1
    77     5     6    1
    78     6     8    1
