@<TRIPOS>MOLECULE
tmp/5v7pA12.pdb
 80 75 0 0 0
SMALL
GASTEIGER

@<TRIPOS>ATOM
      1  N         40.2530   71.4650   23.9760 N.3    32  THR32      -0.1218
      2  CA        40.3830   70.0170   24.0430 C.3    32  THR32       0.1862
      3  C         41.6930   69.5340   24.6470 C.2    32  THR32       0.2287
      4  O         41.7330   68.4140   25.1630 O.2    32  THR32      -0.2866
      5  CB        40.2440   69.4030   22.6390 C.3    32  THR32       0.1770
      6  OG1       40.1710   67.9760   22.7410 O.3    32  THR32      -0.2211
      7  CG2       41.4240   69.7870   21.7380 C.3    32  THR32       0.0375
      8  N         44.5120   68.2500   26.7900 N.3    34  LEU34      -0.1245
      9  CA        44.4500   67.7180   28.1470 C.3    34  LEU34       0.1561
     10  C         45.1450   68.6400   29.1430 C.2    34  LEU34       0.2260
     11  O         44.6650   68.8160   30.2690 O.2    34  LEU34      -0.2867
     12  CB        45.0720   66.3200   28.1780 C.3    34  LEU34       0.0270
     13  CG        45.3050   65.6590   29.5410 C.3    34  LEU34       0.0019
     14  CD1       43.9890   65.2920   30.2100 C.3    34  LEU34       0.0001
     15  CD2       46.1860   64.4330   29.3760 C.3    34  LEU34       0.0001
     16  N         34.9250   63.5690   31.7690 N.3    80  ILE80      -0.1245
     17  CA        35.7460   62.5990   31.0500 C.3    80  ILE80       0.1561
     18  C         34.8680   61.5460   30.3900 C.2    80  ILE80       0.2260
     19  O         35.1180   61.1290   29.2520 O.2    80  ILE80      -0.2867
     20  CB        36.7680   61.9640   32.0110 C.3    80  ILE80       0.0252
     21  CG1       37.8070   63.0080   32.4300 C.3    80  ILE80       0.0019
     22  CG2       37.4490   60.7490   31.3710 C.3    80  ILE80       0.0019
     23  CD1       38.7240   62.5610   33.5490 C.3    80  ILE80       0.0001
     24  N         33.2920   63.1980   26.9990 N.3    83  VAL83      -0.1231
     25  CA        34.0650   63.7970   25.9190 C.3    83  VAL83       0.1692
     26  C         35.3480   63.0380   25.6050 C.2    83  VAL83       0.2592
     27  O         35.8730   63.1830   24.4900 O.2    83  VAL83      -0.2718
     28  CB        34.3900   65.2760   26.2240 C.3    83  VAL83       0.0266
     29  CG1       33.1770   65.9870   26.8130 C.3    83  VAL83       0.0020
     30  CG2       35.5970   65.4100   27.1590 C.3    83  VAL83       0.0020
     31  N         35.8760   62.2490   26.5350 N.am   84  ALA84      -0.1966
     32  CA        37.1550   61.5990   26.3140 C.3    84  ALA84       0.1713
     33  C         37.0220   60.4940   25.2690 C.2    84  ALA84       0.2458
     34  O         35.9110   60.0570   24.9520 O.2    84  ALA84      -0.2730
     35  CB        37.6930   61.0240   27.6220 C.3    84  ALA84       0.0333
     36  N         38.1350   60.0310   24.7100 N.am   85  PRO85      -0.2727
     37  CA        38.0680   58.9420   23.7440 C.3    85  PRO85       0.1402
     38  C         37.4160   57.7220   24.3620 C.2    85  PRO85       0.2269
     39  O         37.4980   57.5060   25.5870 O.2    85  PRO85      -0.2865
     40  CB        39.5370   58.6790   23.3950 C.3    85  PRO85       0.0296
     41  CG        40.2370   59.9490   23.7050 C.3    85  PRO85       0.0237
     42  CD        39.5130   60.5380   24.8720 C.3    85  PRO85       0.0939
     43  N         39.1060   55.8500   27.0250 N.3    88  ILE88      -0.1245
     44  CA        39.2820   56.4160   28.3560 C.3    88  ILE88       0.1561
     45  C         37.9690   56.6600   29.0880 C.2    88  ILE88       0.2260
     46  O         37.9780   56.7170   30.3290 O.2    88  ILE88      -0.2867
     47  CB        40.0870   57.7320   28.2780 C.3    88  ILE88       0.0252
     48  CG1       41.3110   57.5720   27.3650 C.3    88  ILE88       0.0019
     49  CG2       40.5120   58.1960   29.6700 C.3    88  ILE88       0.0019
     50  CD1       42.3030   56.5130   27.8160 C.3    88  ILE88       0.0001
     51  N         37.1360   55.4850   32.6870 N.3    91  PHE91      -0.1241
     52  CA        37.7480   56.0100   33.9000 C.3    91  PHE91       0.1605
     53  C         36.9420   57.1640   34.4800 C.2    91  PHE91       0.2264
     54  O         36.9340   57.3610   35.7000 O.2    91  PHE91      -0.2867
     55  CB        39.1810   56.4490   33.6070 C.3    91  PHE91       0.0534
     56  CG        40.0450   56.5390   34.8290 C.ar   91  PHE91      -0.0203
     57  CD1       40.6380   55.4050   35.3570 C.ar   91  PHE91      -0.0042
     58  CD2       40.2640   57.7560   35.4530 C.ar   91  PHE91      -0.0042
     59  CE1       41.4330   55.4820   36.4820 C.ar   91  PHE91      -0.0003
     60  CE2       41.0590   57.8400   36.5780 C.ar   91  PHE91      -0.0003
     61  CZ        41.6450   56.7020   37.0940 C.ar   91  PHE91      -0.0000
     62  N         35.7350   57.5660   38.4220 N.3    95  MET95      -0.1245
     63  CA        36.0200   58.7180   39.2710 C.3    95  MET95       0.1570
     64  C         34.7530   59.2410   39.9340 C.2    95  MET95       0.2261
     65  O         34.7500   59.5480   41.1320 O.2    95  MET95      -0.2867
     66  CB        36.6770   59.8250   38.4500 C.3    95  MET95       0.0387
     67  CG        38.0830   59.5050   37.9830 C.3    95  MET95       0.0595
     68  SD        38.6930   60.6880   36.7660 S.3    95  MET95      -0.1393
     69  CE        38.3980   62.2490   37.5930 C.3    95  MET95       0.0692
     70  N         45.4060   52.2870   32.7620 N.3   142  PHE142     -0.1241
     71  CA        46.0650   53.0830   31.7340 C.3   142  PHE142      0.1605
     72  C         47.1470   52.3030   30.9960 C.2   142  PHE142      0.2264
     73  O         47.3770   52.5530   29.8090 O.2   142  PHE142     -0.2867
     74  CB        46.6440   54.3560   32.3510 C.3   142  PHE142      0.0534
     75  CG        45.5970   55.3670   32.7100 C.ar  142  PHE142     -0.0203
     76  CD1       44.9670   56.1050   31.7220 C.ar  142  PHE142     -0.0042
     77  CD2       45.2230   55.5630   34.0280 C.ar  142  PHE142     -0.0042
     78  CE1       43.9930   57.0270   32.0430 C.ar  142  PHE142     -0.0003
     79  CE2       44.2510   56.4840   34.3560 C.ar  142  PHE142     -0.0003
     80  CZ        43.6320   57.2170   33.3610 C.ar  142  PHE142     -0.0000
@<TRIPOS>BOND
     1     7     5    1
     2     5     6    1
     3     5     2    1
     4    40    41    1
     5    40    37    1
     6    41    42    1
     7    37    38    1
     8    37    36    1
     9     1     2    1
    10     2     3    1
    11    38    39    2
    12    27    26    2
    13     3     4    2
    14    36    42    1
    15    36    33   am
    16    34    33    2
    17    33    32    1
    18    26    25    1
    19    26    31   am
    20    25    28    1
    21    25    24    1
    22    28    29    1
    23    28    30    1
    24    32    31    1
    25    32    35    1
    26     8     9    1
    27    43    44    1
    28    48    50    1
    29    48    47    1
    30     9    12    1
    31     9    10    1
    32    12    13    1
    33    47    44    1
    34    47    49    1
    35    44    45    1
    36    45    46    2
    37    10    11    2
    38    19    18    2
    39    15    13    1
    40    13    14    1
    41    73    72    2
    42    18    17    1
    43    72    71    1
    44    17    16    1
    45    17    20    1
    46    22    20    1
    47    76    78   ar
    48    76    75   ar
    49    71    74    1
    50    71    70    1
    51    20    21    1
    52    78    80   ar
    53    74    75    1
    54    21    23    1
    55    51    52    1
    56    75    77   ar
    57    80    79   ar
    58    55    52    1
    59    55    56    1
    60    52    53    1
    61    77    79   ar
    62    53    54    2
    63    56    57   ar
    64    56    58   ar
    65    57    59   ar
    66    58    60   ar
    67    59    61   ar
    68    60    61   ar
    69    68    69    1
    70    68    67    1
    71    67    66    1
    72    62    63    1
    73    66    63    1
    74    63    64    1
    75    64    65    2
