@<TRIPOS>MOLECULE
tmp/5v7pA15.pdb
 83 81 0 0 0
SMALL
GASTEIGER

@<TRIPOS>ATOM
      1  N         23.6670   49.6120   43.1190 N.3   167  LEU167     -0.1245
      2  CA        22.9570   48.7260   44.0360 C.3   167  LEU167      0.1561
      3  C         23.6700   48.6470   45.3800 C.2   167  LEU167      0.2260
      4  O         23.0470   48.8010   46.4370 O.2   167  LEU167     -0.2867
      5  CB        22.8150   47.3360   43.4180 C.3   167  LEU167      0.0270
      6  CG        21.9420   47.2340   42.1650 C.3   167  LEU167      0.0019
      7  CD1       22.0110   45.8270   41.5920 C.3   167  LEU167      0.0001
      8  CD2       20.5040   47.6180   42.4670 C.3   167  LEU167      0.0001
      9  N         23.0710   51.8600   47.2510 N.3   170  VAL170     -0.1231
     10  CA        21.7300   51.9650   47.8170 C.3   170  VAL170      0.1692
     11  C         21.6080   51.0680   49.0410 C.2   170  VAL170      0.2591
     12  O         21.1160   51.4880   50.0940 O.2   170  VAL170     -0.2718
     13  CB        20.6710   51.6260   46.7520 C.3   170  VAL170      0.0266
     14  CG1       19.2670   51.6250   47.3550 C.3   170  VAL170      0.0020
     15  CG2       20.7430   52.6260   45.6070 C.3   170  VAL170      0.0020
     16  N         22.0640   49.8190   48.9250 N.am  171  LEU171     -0.1980
     17  CA        22.0450   48.9160   50.0710 C.3   171  LEU171      0.1596
     18  C         22.7740   49.5340   51.2560 C.2   171  LEU171      0.2287
     19  O         22.2700   49.5300   52.3850 O.2   171  LEU171     -0.2864
     20  CB        22.6870   47.5770   49.6950 C.3   171  LEU171      0.0297
     21  CG        22.2270   46.3110   50.4310 C.3   171  LEU171      0.0022
     22  CD1       23.3300   45.2600   50.4090 C.3   171  LEU171      0.0001
     23  CD2       21.7770   46.5810   51.8600 C.3   171  LEU171      0.0001
     24  N         20.9830   52.7900   52.7780 N.3   174  THR174     -0.1218
     25  CA        19.7580   52.3750   53.4530 C.3   174  THR174      0.1862
     26  C         20.0680   51.7530   54.8060 C.2   174  THR174      0.2287
     27  O         19.3940   52.0440   55.8010 O.2   174  THR174     -0.2866
     28  CB        18.9770   51.3940   52.5800 C.3   174  THR174      0.1770
     29  OG1       19.8180   50.2950   52.2130 O.3   174  THR174     -0.2211
     30  CG2       18.4610   52.0880   51.3320 C.3   174  THR174      0.0375
     31  N         18.6990   52.9060   58.3160 N.3   178  THR178     -0.1218
     32  CA        17.9060   51.9800   59.1180 C.3   178  THR178      0.1862
     33  C         18.5140   51.7880   60.5010 C.2   178  THR178      0.2287
     34  O         17.7880   51.6750   61.4950 O.2   178  THR178     -0.2866
     35  CB        17.7840   50.6390   58.3960 C.3   178  THR178      0.1770
     36  OG1       17.2670   50.8510   57.0770 O.3   178  THR178     -0.2211
     37  CG2       16.8530   49.6990   59.1490 C.3   178  THR178      0.0375
     38  N         15.1720   44.8900   61.5460 N.3   200  HIS200     -0.1226
     39  CA        14.1620   45.1920   60.5450 C.3   200  HIS200      0.1752
     40  C         14.8070   45.8360   59.3250 C.2   200  HIS200      0.2597
     41  O         15.9850   46.2050   59.3320 O.2   200  HIS200     -0.2718
     42  CB        13.0810   46.1090   61.1270 C.3   200  HIS200      0.0759
     43  CG        13.5730   47.4790   61.4790 C.ar  200  HIS200      0.0818
     44  ND1       14.2690   47.7450   62.6380 N.ar  200  HIS200     -0.2268
     45  CD2       13.4620   48.6610   60.8270 C.ar  200  HIS200      0.1154
     46  CE1       14.5700   49.0310   62.6830 C.ar  200  HIS200      0.1986
     47  NE2       14.0910   49.6090   61.5960 N.ar  200  HIS200     -0.2212
     48  N         14.0090   45.9720   58.2680 N.am  201  GLY201     -0.1942
     49  CA        14.5250   46.5270   57.0300 C.3   201  GLY201      0.2014
     50  C         15.5760   45.6150   56.4250 C.2   201  GLY201      0.2638
     51  O         15.4920   44.3850   56.5080 O.2   201  GLY201     -0.2714
     52  N         16.5900   46.2250   55.8070 N.am  202  VAL202     -0.1977
     53  CA        17.6660   45.4460   55.2080 C.3   202  VAL202      0.1596
     54  C         18.3770   44.5860   56.2440 C.2   202  VAL202      0.2287
     55  O         19.0410   43.6090   55.8850 O.2   202  VAL202     -0.2864
     56  CB        18.6590   46.3750   54.4760 C.3   202  VAL202      0.0276
     57  CG1       17.9830   47.0260   53.2760 C.3   202  VAL202      0.0022
     58  CG2       19.2210   47.4330   55.4180 C.3   202  VAL202      0.0022
     59  N         17.2950   41.1240   55.9130 N.3   205  TRP205     -0.1227
     60  CA        17.8960   40.3530   54.8280 C.3   205  TRP205      0.1737
     61  C         19.2830   39.8530   55.2140 C.2   205  TRP205      0.2595
     62  O         19.5940   38.6680   55.0480 O.2   205  TRP205     -0.2718
     63  CB        17.9900   41.2040   53.5580 C.3   205  TRP205      0.0564
     64  CG        16.7070   41.8450   53.1260 C.ar  205  TRP205      0.0003
     65  CD1       15.4470   41.5500   53.5600 C.ar  205  TRP205      0.0946
     66  CD2       16.5650   42.9030   52.1710 C.ar  205  TRP205      0.0152
     67  NE1       14.5290   42.3590   52.9330 N.ar  205  TRP205     -0.2442
     68  CE2       15.1900   43.1980   52.0750 C.ar  205  TRP205      0.0810
     69  CE3       17.4670   43.6300   51.3880 C.ar  205  TRP205      0.0012
     70  CZ2       14.6970   44.1870   51.2260 C.ar  205  TRP205      0.0191
     71  CZ3       16.9760   44.6110   50.5460 C.ar  205  TRP205      0.0001
     72  CH2       15.6040   44.8810   50.4720 C.ar  205  TRP205      0.0015
     73  N         20.1280   40.7500   55.7180 N.am  206  PHE206     -0.1976
     74  CA        21.5000   40.4330   56.0810 C.3   206  PHE206      0.1639
     75  C         21.8020   41.0000   57.4590 C.2   206  PHE206      0.2290
     76  O         21.2190   42.0040   57.8770 O.2   206  PHE206     -0.2864
     77  CB        22.5020   41.0110   55.0690 C.3   206  PHE206      0.0560
     78  CG        22.0480   40.9250   53.6410 C.ar  206  PHE206     -0.0200
     79  CD1       22.1170   39.7290   52.9470 C.ar  206  PHE206     -0.0042
     80  CD2       21.5680   42.0470   52.9860 C.ar  206  PHE206     -0.0042
     81  CE1       21.7070   39.6520   51.6300 C.ar  206  PHE206     -0.0003
     82  CE2       21.1550   41.9750   51.6690 C.ar  206  PHE206     -0.0003
     83  CZ        21.2260   40.7760   50.9910 C.ar  206  PHE206     -0.0000
@<TRIPOS>BOND
     1     7     6    1
     2     6     8    1
     3     6     5    1
     4     1     2    1
     5     5     2    1
     6     2     3    1
     7     3     4    2
     8    15    13    1
     9    13    14    1
    10    13    10    1
    11     9    10    1
    12    10    11    1
    13    16    11   am
    14    16    17    1
    15    11    12    2
    16    20    17    1
    17    20    21    1
    18    17    18    1
    19    22    21    1
    20    21    23    1
    21    72    71   ar
    22    72    70   ar
    23    71    69   ar
    24    83    81   ar
    25    83    82   ar
    26    70    68   ar
    27    18    19    2
    28    30    28    1
    29    69    66   ar
    30    81    79   ar
    31    82    80   ar
    32    68    66   ar
    33    68    67   ar
    34    66    64   ar
    35    29    28    1
    36    28    25    1
    37    24    25    1
    38    67    65   ar
    39    79    78   ar
    40    80    78   ar
    41    64    63    1
    42    64    65   ar
    43    57    56    1
    44    25    26    1
    45    63    60    1
    46    78    77    1
    47    56    53    1
    48    56    58    1
    49    26    27    2
    50    60    61    1
    51    60    59    1
    52    62    61    2
    53    77    74    1
    54    53    52    1
    55    53    54    1
    56    61    73   am
    57    73    74    1
    58    52    50   am
    59    55    54    2
    60    74    75    1
    61    50    51    2
    62    50    49    1
    63    49    48    1
    64    36    35    1
    65    75    76    2
    66    48    40   am
    67    31    32    1
    68    35    32    1
    69    35    37    1
    70    32    33    1
    71    40    41    2
    72    40    39    1
    73    33    34    2
    74    39    42    1
    75    39    38    1
    76    45    43   ar
    77    45    47   ar
    78    42    43    1
    79    43    44   ar
    80    47    46   ar
    81    44    46   ar
