@<TRIPOS>MOLECULE
tmp/5v7pA04.pdb
 110 104 0 0 0
SMALL
GASTEIGER

@<TRIPOS>ATOM
      1  N         33.9900   72.8440   26.7320 N.3    27  HIS27      -0.1241
      2  CA        33.4670   71.9460   25.7100 C.3    27  HIS27       0.1621
      3  C         32.9250   72.7220   24.5170 C.2    27  HIS27       0.2264
      4  O         33.2340   72.4000   23.3640 O.2    27  HIS27      -0.2867
      5  CB        32.3780   71.0550   26.3060 C.3    27  HIS27       0.0745
      6  CG        31.6890   70.1930   25.2950 C.ar   27  HIS27       0.0817
      7  ND1       32.3650   69.2860   24.5080 N.ar   27  HIS27      -0.2268
      8  CD2       30.3860   70.1060   24.9370 C.ar   27  HIS27       0.1154
      9  CE1       31.5070   68.6740   23.7110 C.ar   27  HIS27       0.1986
     10  NE2       30.3000   69.1520   23.9520 N.ar   27  HIS27      -0.2212
     11  N         37.9730   73.7060   23.5730 N.3    31  ILE31      -0.1231
     12  CA        39.1750   73.6070   24.3940 C.3    31  ILE31       0.1692
     13  C         39.3820   72.1370   24.7340 C.2    31  ILE31       0.2592
     14  O         38.7690   71.6130   25.6720 O.2    31  ILE31      -0.2718
     15  CB        39.0830   74.4690   25.6680 C.3    31  ILE31       0.0266
     16  CG1       38.7680   75.9250   25.3070 C.3    31  ILE31       0.0019
     17  CG2       40.3980   74.3890   26.4540 C.3    31  ILE31       0.0020
     18  CD1       38.5450   76.8320   26.5010 C.3    31  ILE31       0.0001
     19  N         40.2530   71.4650   23.9760 N.am   32  THR32      -0.1953
     20  CA        40.3830   70.0170   24.0430 C.3    32  THR32       0.1897
     21  C         41.6930   69.5340   24.6470 C.2    32  THR32       0.2313
     22  O         41.7330   68.4140   25.1630 O.2    32  THR32      -0.2863
     23  CB        40.2440   69.4030   22.6390 C.3    32  THR32       0.1794
     24  OG1       40.1710   67.9760   22.7410 O.3    32  THR32      -0.2208
     25  CG2       41.4240   69.7870   21.7380 C.3    32  THR32       0.0378
     26  N         44.5120   68.2500   26.7900 N.3    34  LEU34      -0.1245
     27  CA        44.4500   67.7180   28.1470 C.3    34  LEU34       0.1561
     28  C         45.1450   68.6400   29.1430 C.2    34  LEU34       0.2260
     29  O         44.6650   68.8160   30.2690 O.2    34  LEU34      -0.2867
     30  CB        45.0720   66.3200   28.1780 C.3    34  LEU34       0.0270
     31  CG        45.3050   65.6590   29.5410 C.3    34  LEU34       0.0019
     32  CD1       43.9890   65.2920   30.2100 C.3    34  LEU34       0.0001
     33  CD2       46.1860   64.4330   29.3760 C.3    34  LEU34       0.0001
     34  N         43.0160   71.9530   29.7620 N.3    37  ASN37      -0.1225
     35  CA        41.9320   71.6650   30.6930 C.3    37  ASN37       0.1785
     36  C         42.4680   71.4470   32.1010 C.2    37  ASN37       0.2597
     37  O         41.8580   71.8890   33.0820 O.2    37  ASN37      -0.2718
     38  CB        41.1470   70.4410   30.2210 C.3    37  ASN37       0.1169
     39  CG        40.2130   70.7570   29.0700 C.2    37  ASN37       0.2627
     40  OD1       39.0350   71.0490   29.2760 O.2    37  ASN37      -0.2716
     41  ND2       40.7360   70.7000   27.8500 N.am   37  ASN37      -0.0877
     42  N         43.6130   70.7720   32.2200 N.am   38  THR38      -0.1953
     43  CA        44.2190   70.5600   33.5300 C.3    38  THR38       0.1897
     44  C         44.5240   71.8880   34.2100 C.2    38  THR38       0.2313
     45  O         44.1790   72.0950   35.3790 O.2    38  THR38      -0.2863
     46  CB        45.4940   69.7240   33.3860 C.3    38  THR38       0.1794
     47  OG1       45.1720   68.4570   32.7980 O.3    38  THR38      -0.2208
     48  CG2       46.1580   69.4890   34.7430 C.3    38  THR38       0.0378
     49  N         41.4130   73.8760   35.2740 N.3    41  VAL41      -0.1245
     50  CA        40.8500   73.3180   36.4990 C.3    41  VAL41       0.1561
     51  C         41.7520   73.6300   37.6860 C.2    41  VAL41       0.2260
     52  O         41.2840   74.0500   38.7510 O.2    41  VAL41      -0.2867
     53  CB        40.6220   71.8020   36.3380 C.3    41  VAL41       0.0252
     54  CG1       40.4060   71.1170   37.6920 C.3    41  VAL41       0.0019
     55  CG2       39.4250   71.5490   35.4280 C.3    41  VAL41       0.0019
     56  N         34.5150   66.2990   37.0100 N.3    76  LEU76      -0.1245
     57  CA        35.5700   65.8730   36.0970 C.3    76  LEU76       0.1561
     58  C         35.3380   64.4470   35.6180 C.2    76  LEU76       0.2260
     59  O         35.6160   64.1210   34.4580 O.2    76  LEU76      -0.2867
     60  CB        36.9360   66.0000   36.7730 C.3    76  LEU76       0.0270
     61  CG        37.7870   67.1930   36.3310 C.3    76  LEU76       0.0019
     62  CD1       37.0200   68.5070   36.4500 C.3    76  LEU76       0.0001
     63  CD2       39.0710   67.2450   37.1460 C.3    76  LEU76       0.0001
     64  N         32.6720   64.6790   33.0970 N.3    79  TYR79      -0.1227
     65  CA        33.2790   65.3580   31.9590 C.3    79  TYR79       0.1736
     66  C         34.0930   64.3840   31.1160 C.2    79  TYR79       0.2595
     67  O         33.9700   64.3520   29.8850 O.2    79  TYR79      -0.2718
     68  CB        34.1500   66.5090   32.4690 C.3    79  TYR79       0.0548
     69  CG        34.8150   67.3530   31.4040 C.ar   79  TYR79      -0.0200
     70  CD1       34.0980   67.8350   30.3180 C.ar   79  TYR79      -0.0009
     71  CD2       36.1570   67.7000   31.5100 C.ar   79  TYR79      -0.0009
     72  CE1       34.7050   68.6210   29.3550 C.ar   79  TYR79       0.0417
     73  CE2       36.7690   68.4850   30.5530 C.ar   79  TYR79       0.0417
     74  CZ        36.0390   68.9430   29.4780 C.ar   79  TYR79       0.1957
     75  OH        36.6460   69.7250   28.5240 O.3    79  TYR79      -0.2866
     76  N         34.9250   63.5690   31.7690 N.am   80  ILE80      -0.1980
     77  CA        35.7460   62.5990   31.0500 C.3    80  ILE80       0.1595
     78  C         34.8680   61.5460   30.3900 C.2    80  ILE80       0.2287
     79  O         35.1180   61.1290   29.2520 O.2    80  ILE80      -0.2864
     80  CB        36.7680   61.9640   32.0110 C.3    80  ILE80       0.0276
     81  CG1       37.8070   63.0080   32.4300 C.3    80  ILE80       0.0022
     82  CG2       37.4490   60.7490   31.3710 C.3    80  ILE80       0.0022
     83  CD1       38.7240   62.5610   33.5490 C.3    80  ILE80       0.0001
     84  N         33.2920   63.1980   26.9990 N.3    83  VAL83      -0.1231
     85  CA        34.0650   63.7970   25.9190 C.3    83  VAL83       0.1692
     86  C         35.3480   63.0380   25.6050 C.2    83  VAL83       0.2592
     87  O         35.8730   63.1830   24.4900 O.2    83  VAL83      -0.2718
     88  CB        34.3900   65.2760   26.2240 C.3    83  VAL83       0.0266
     89  CG1       33.1770   65.9870   26.8130 C.3    83  VAL83       0.0020
     90  CG2       35.5970   65.4100   27.1590 C.3    83  VAL83       0.0020
     91  N         35.8760   62.2490   26.5350 N.am   84  ALA84      -0.1966
     92  CA        37.1550   61.5990   26.3140 C.3    84  ALA84       0.1713
     93  C         37.0220   60.4940   25.2690 C.2    84  ALA84       0.2458
     94  O         35.9110   60.0570   24.9520 O.2    84  ALA84      -0.2730
     95  CB        37.6930   61.0240   27.6220 C.3    84  ALA84       0.0333
     96  N         38.1350   60.0310   24.7100 N.am   85  PRO85      -0.2727
     97  CA        38.0680   58.9420   23.7440 C.3    85  PRO85       0.1402
     98  C         37.4160   57.7220   24.3620 C.2    85  PRO85       0.2269
     99  O         37.4980   57.5060   25.5870 O.2    85  PRO85      -0.2865
    100  CB        39.5370   58.6790   23.3950 C.3    85  PRO85       0.0296
    101  CG        40.2370   59.9490   23.7050 C.3    85  PRO85       0.0237
    102  CD        39.5130   60.5380   24.8720 C.3    85  PRO85       0.0939
    103  N         35.7350   57.5660   38.4220 N.3    95  MET95      -0.1245
    104  CA        36.0200   58.7180   39.2710 C.3    95  MET95       0.1570
    105  C         34.7530   59.2410   39.9340 C.2    95  MET95       0.2261
    106  O         34.7500   59.5480   41.1320 O.2    95  MET95      -0.2867
    107  CB        36.6770   59.8250   38.4500 C.3    95  MET95       0.0387
    108  CG        38.0830   59.5050   37.9830 C.3    95  MET95       0.0595
    109  SD        38.6930   60.6880   36.7660 S.3    95  MET95      -0.1393
    110  CE        38.3980   62.2490   37.5930 C.3    95  MET95       0.0692
@<TRIPOS>BOND
     1    25    23    1
     2    23    24    1
     3    23    20    1
     4     4     3    2
     5   100   101    1
     6   100    97    1
     7    11    12    1
     8   101   102    1
     9     9    10   ar
    10     9     7   ar
    11    97    98    1
    12    97    96    1
    13    10     8   ar
    14    19    20    1
    15    19    13   am
    16    20    21    1
    17    98    99    2
    18    12    13    1
    19    12    15    1
    20    87    86    2
    21     7     6   ar
    22     3     2    1
    23    21    22    2
    24    96   102    1
    25    96    93   am
    26    13    14    2
    27     8     6   ar
    28    94    93    2
    29    93    92    1
    30     6     5    1
    31    16    15    1
    32    16    18    1
    33    86    85    1
    34    86    91   am
    35    15    17    1
    36     2     5    1
    37     2     1    1
    38    85    88    1
    39    85    84    1
    40    88    89    1
    41    88    90    1
    42    92    91    1
    43    92    95    1
    44    26    27    1
    45    41    39   am
    46    27    30    1
    47    27    28    1
    48    30    31    1
    49    75    74    1
    50    39    40    2
    51    39    38    1
    52    28    29    2
    53    79    78    2
    54    72    74   ar
    55    72    70   ar
    56    33    31    1
    57    74    73   ar
    58    31    32    1
    59    34    35    1
    60    67    66    2
    61    38    35    1
    62    70    69   ar
    63    78    77    1
    64    73    71   ar
    65    35    36    1
    66    77    76    1
    67    77    80    1
    68    66    76   am
    69    66    65    1
    70    82    80    1
    71    69    71   ar
    72    69    68    1
    73    65    68    1
    74    65    64    1
    75    80    81    1
    76    36    42   am
    77    36    37    2
    78    42    43    1
    79    81    83    1
    80    47    46    1
    81    46    43    1
    82    46    48    1
    83    43    44    1
    84    44    45    2
    85    59    58    2
    86    49    50    1
    87    55    53    1
    88    58    57    1
    89    57    60    1
    90    57    56    1
    91    61    62    1
    92    61    60    1
    93    61    63    1
    94    53    50    1
    95    53    54    1
    96    50    51    1
    97   109   110    1
    98   109   108    1
    99    51    52    2
   100   108   107    1
   101   103   104    1
   102   107   104    1
   103   104   105    1
   104   105   106    2
