@<TRIPOS>MOLECULE
tmp/5v7pA09.pdb
 108 107 0 0 0
SMALL
GASTEIGER

@<TRIPOS>ATOM
      1  N         20.1280   40.7500   55.7180 N.3   206  PHE206     -0.1227
      2  CA        21.5000   40.4330   56.0810 C.3   206  PHE206      0.1736
      3  C         21.8020   41.0000   57.4590 C.2   206  PHE206      0.2595
      4  O         21.2190   42.0040   57.8770 O.2   206  PHE206     -0.2718
      5  CB        22.5020   41.0110   55.0690 C.3   206  PHE206      0.0547
      6  CG        22.0480   40.9250   53.6410 C.ar  206  PHE206     -0.0202
      7  CD1       22.1170   39.7290   52.9470 C.ar  206  PHE206     -0.0042
      8  CD2       21.5680   42.0470   52.9860 C.ar  206  PHE206     -0.0042
      9  CE1       21.7070   39.6520   51.6300 C.ar  206  PHE206     -0.0003
     10  CE2       21.1550   41.9750   51.6690 C.ar  206  PHE206     -0.0003
     11  CZ        21.2260   40.7760   50.9910 C.ar  206  PHE206     -0.0000
     12  N         22.7280   40.3490   58.1640 N.am  207  ARG207     -0.1980
     13  CA        23.1750   40.8600   59.4520 C.3   207  ARG207      0.1597
     14  C         24.1130   42.0510   59.3090 C.2   207  ARG207      0.2287
     15  O         24.2320   42.8450   60.2480 O.2   207  ARG207     -0.2864
     16  CB        23.8700   39.7540   60.2500 C.3   207  ARG207      0.0334
     17  CG        22.9980   38.5340   60.4910 C.3   207  ARG207      0.0492
     18  CD        23.3480   37.8460   61.7990 C.3   207  ARG207      0.2205
     19  NE        24.7190   37.3400   61.8210 N.pl3 207  ARG207     -0.0865
     20  CZ        25.0920   36.1290   61.4150 C.cat 207  ARG207      0.5346
     21  NH1       24.2020   35.2700   60.9400 N.pl3 207  ARG207      0.1354
     22  NH2       26.3680   35.7720   61.4830 N.pl3 207  ARG207      0.1354
     23  N         27.8310   44.3350   53.1330 N.3   212  VAL212     -0.1245
     24  CA        27.4460   43.7030   51.8740 C.3   212  VAL212      0.1561
     25  C         27.4930   44.7200   50.7420 C.2   212  VAL212      0.2260
     26  O         28.0670   44.4680   49.6750 O.2   212  VAL212     -0.2867
     27  CB        26.0490   43.0650   51.9960 C.3   212  VAL212      0.0252
     28  CG1       25.5760   42.5210   50.6510 C.3   212  VAL212      0.0019
     29  CG2       26.0570   41.9540   53.0260 C.3   212  VAL212      0.0019
     30  N         30.3290   44.5030   47.5710 N.3   216  TYR216     -0.1241
     31  CA        30.0520   44.4240   46.1410 C.3   216  TYR216      0.1605
     32  C         30.3650   45.7320   45.4300 C.2   216  TYR216      0.2264
     33  O         30.8190   45.7140   44.2810 O.2   216  TYR216     -0.2867
     34  CB        28.5980   44.0200   45.9110 C.3   216  TYR216      0.0534
     35  CG        28.3630   42.5560   46.1860 C.ar  216  TYR216     -0.0201
     36  CD1       28.9090   41.5840   45.3580 C.ar  216  TYR216     -0.0009
     37  CD2       27.6130   42.1430   47.2750 C.ar  216  TYR216     -0.0009
     38  CE1       28.7110   40.2430   45.6050 C.ar  216  TYR216      0.0417
     39  CE2       27.4080   40.8010   47.5300 C.ar  216  TYR216      0.0417
     40  CZ        27.9600   39.8570   46.6900 C.ar  216  TYR216      0.1957
     41  OH        27.7640   38.5180   46.9310 O.3   216  TYR216     -0.2866
     42  N         21.5870   35.4530   57.7700 N.3   269  GLY269     -0.1210
     43  CA        22.9990   35.3130   57.4830 C.3   269  GLY269      0.1956
     44  C         23.7040   36.6550   57.3870 C.2   269  GLY269      0.2613
     45  O         23.0810   37.7150   57.3850 O.2   269  GLY269     -0.2717
     46  N         25.0360   36.5920   57.3050 N.am  270  THR270     -0.1938
     47  CA        25.8320   37.8150   57.2570 C.3   270  THR270      0.2028
     48  C         25.5630   38.6010   55.9790 C.2   270  THR270      0.2643
     49  O         25.4980   39.8350   56.0040 O.2   270  THR270     -0.2714
     50  CB        27.3210   37.4850   57.3710 C.3   270  THR270      0.1808
     51  OG1       27.7220   36.6590   56.2700 O.3   270  THR270     -0.2208
     52  CG2       27.6200   36.7700   58.6850 C.3   270  THR270      0.0379
     53  N         25.4150   37.9080   54.8540 N.am  271  GLY271     -0.1939
     54  CA        25.1880   38.5390   53.5700 C.3   271  GLY271      0.2014
     55  C         26.3650   38.4660   52.6240 C.2   271  GLY271      0.2639
     56  O         26.1910   38.7300   51.4280 O.2   271  GLY271     -0.2714
     57  N         27.5490   38.1200   53.1090 N.am  272  ILE272     -0.1963
     58  CA        28.7310   37.9350   52.2720 C.3   272  ILE272      0.1712
     59  C         29.0170   36.4400   52.1960 C.2   272  ILE272      0.2458
     60  O         29.0840   35.7840   53.2410 O.2   272  ILE272     -0.2730
     61  CB        29.9540   38.6950   52.8200 C.3   272  ILE272      0.0289
     62  CG1       29.6800   40.2020   52.7860 C.3   272  ILE272      0.0022
     63  CG2       31.2050   38.3570   51.9990 C.3   272  ILE272      0.0023
     64  CD1       30.7860   41.0630   53.3690 C.3   272  ILE272      0.0001
     65  N         29.1910   35.8660   51.0050 N.am  273  PRO273     -0.2716
     66  CA        29.3940   34.4140   50.9190 C.3   273  PRO273      0.1536
     67  C         30.6250   33.9570   51.6900 C.2   273  PRO273      0.2599
     68  O         31.6680   34.6150   51.6860 O.2   273  PRO273     -0.2715
     69  CB        29.5540   34.1660   49.4140 C.3   273  PRO273      0.0310
     70  CG        28.9040   35.3300   48.7620 C.3   273  PRO273      0.0237
     71  CD        29.1450   36.4910   49.6720 C.3   273  PRO273      0.0939
     72  N         30.4870   32.8070   52.3530 N.am  274  PHE274     -0.1960
     73  CA        31.5650   32.1110   53.0510 C.3   274  PHE274      0.1771
     74  C         32.0360   32.8310   54.3080 C.2   274  PHE274      0.2619
     75  O         33.0960   32.4850   54.8460 O.2   274  PHE274     -0.2715
     76  CB        32.7670   31.8660   52.1300 C.3   274  PHE274      0.0574
     77  CG        32.4390   31.0450   50.9200 C.ar  274  PHE274     -0.0200
     78  CD1       32.5060   29.6630   50.9660 C.ar  274  PHE274     -0.0042
     79  CD2       32.0600   31.6520   49.7360 C.ar  274  PHE274     -0.0042
     80  CE1       32.2020   28.9030   49.8540 C.ar  274  PHE274     -0.0003
     81  CE2       31.7540   30.8990   48.6210 C.ar  274  PHE274     -0.0003
     82  CZ        31.8250   29.5220   48.6800 C.ar  274  PHE274     -0.0000
     83  N         31.2910   33.8210   54.7930 N.am  275  ILE275     -0.1963
     84  CA        31.5740   34.4730   56.0690 C.3   275  ILE275      0.1727
     85  C         30.4510   34.1210   57.0330 C.2   275  ILE275      0.2616
     86  O         29.2960   34.5130   56.8240 O.2   275  ILE275     -0.2715
     87  CB        31.7160   35.9940   55.9130 C.3   275  ILE275      0.0290
     88  CG1       32.9260   36.3140   55.0240 C.3   275  ILE275      0.0022
     89  CG2       31.8470   36.6650   57.2850 C.3   275  ILE275      0.0023
     90  CD1       33.2360   37.7970   54.8600 C.3   275  ILE275      0.0001
     91  N         30.7920   33.3890   58.0910 N.am  276  GLU276     -0.1977
     92  CA        29.7940   32.9230   59.0450 C.3   276  GLU276      0.1602
     93  C         29.6000   33.8780   60.2130 C.2   276  GLU276      0.2287
     94  O         28.4850   33.9840   60.7360 O.2   276  GLU276     -0.2864
     95  CB        30.1860   31.5440   59.5860 C.3   276  GLU276      0.0415
     96  CG        30.2160   30.4400   58.5390 C.3   276  GLU276      0.1163
     97  CD        28.9060   30.3100   57.7880 C.2   276  GLU276      0.3649
     98  OE1       28.9290   30.3340   56.5380 O.co2 276  GLU276     -0.2457
     99  OE2       27.8520   30.1950   58.4500 O.co2 276  GLU276     -0.2457
    100  N         30.1650   32.5140   65.1280 N.3   279  LYS279     -0.1245
    101  CA        29.2370   31.4050   65.3010 C.3   279  LYS279      0.1561
    102  C         29.7870   30.2010   64.5510 C.2   279  LYS279      0.2260
    103  O         30.5550   30.3430   63.5950 O.2   279  LYS279     -0.2867
    104  CB        27.8340   31.7630   64.7950 C.3   279  LYS279      0.0271
    105  CG        26.8620   30.5870   64.7390 C.3   279  LYS279      0.0035
    106  CD        25.4530   31.0310   64.3750 C.3   279  LYS279      0.0206
    107  CE        25.3570   31.5070   62.9310 C.3   279  LYS279      0.1093
    108  NZ        25.6120   30.4110   61.9540 N.3   279  LYS279     -0.1314
@<TRIPOS>BOND
     1    33    32    2
     2    36    38   ar
     3    36    35   ar
     4    32    31    1
     5    38    40   ar
     6    34    31    1
     7    34    35    1
     8    31    30    1
     9    35    37   ar
    10    40    41    1
    11    40    39   ar
    12    37    39   ar
    13    81    82   ar
    14    81    79   ar
    15    82    80   ar
    16    70    69    1
    17    70    71    1
    18    69    66    1
    19    71    65    1
    20    26    25    2
    21    79    77   ar
    22    80    78   ar
    23    28    27    1
    24    25    24    1
    25    66    65    1
    26    66    67    1
    27    77    78   ar
    28    77    76    1
    29    11     9   ar
    30    11    10   ar
    31    65    59   am
    32    56    55    2
    33     9     7   ar
    34    10     8   ar
    35    68    67    2
    36    67    72   am
    37    24    27    1
    38    24    23    1
    39    27    29    1
    40    63    61    1
    41    76    73    1
    42    59    58    1
    43    59    60    2
    44    58    61    1
    45    58    57    1
    46    72    73    1
    47    55    57   am
    48    55    54    1
    49    62    61    1
    50    62    64    1
    51     7     6   ar
    52     8     6   ar
    53    73    74    1
    54    54    53    1
    55     6     5    1
    56    74    83   am
    57    74    75    2
    58    83    84    1
    59    53    48   am
    60    90    88    1
    61    88    87    1
    62     5     2    1
    63     1     2    1
    64    87    84    1
    65    87    89    1
    66    48    49    2
    67    48    47    1
    68    84    85    1
    69     2     3    1
    70    51    50    1
    71    98    97   ar
    72    86    85    2
    73    85    91   am
    74    47    46    1
    75    47    50    1
    76    46    44   am
    77    50    52    1
    78    45    44    2
    79    44    43    1
    80     3     4    2
    81     3    12   am
    82    43    42    1
    83    97    99   ar
    84    97    96    1
    85    91    92    1
    86    12    13    1
    87    96    95    1
    88    92    95    1
    89    92    93    1
    90    14    13    1
    91    14    15    2
    92    13    16    1
    93    93    94    2
    94    16    17    1
    95    17    18    1
    96    21    20    1
    97    20    22    1
    98    20    19    2
    99    18    19    1
   100   108   107    1
   101   107   106    1
   102   103   102    2
   103   106   105    1
   104   102   101    1
   105   105   104    1
   106   104   101    1
   107   100   101    1
