@<TRIPOS>MOLECULE
tmp/5v7pA02.pdb
 95 94 0 0 0
SMALL
GASTEIGER

@<TRIPOS>ATOM
      1  N         31.0850   45.6360   50.1370 N.3   215  PHE215     -0.1227
      2  CA        31.8030   44.5280   49.5150 C.3   215  PHE215      0.1736
      3  C         31.5890   44.5070   48.0070 C.2   215  PHE215      0.2595
      4  O         32.5520   44.4950   47.2290 O.2   215  PHE215     -0.2718
      5  CB        31.3500   43.2090   50.1490 C.3   215  PHE215      0.0547
      6  CG        31.9690   41.9840   49.5290 C.ar  215  PHE215     -0.0202
      7  CD1       33.3200   41.7210   49.6800 C.ar  215  PHE215     -0.0042
      8  CD2       31.1950   41.0850   48.8160 C.ar  215  PHE215     -0.0042
      9  CE1       33.8910   40.5950   49.1190 C.ar  215  PHE215     -0.0003
     10  CE2       31.7610   39.9550   48.2530 C.ar  215  PHE215     -0.0003
     11  CZ        33.1110   39.7100   48.4060 C.ar  215  PHE215     -0.0000
     12  N         30.3290   44.5030   47.5710 N.am  216  TYR216     -0.1976
     13  CA        30.0520   44.4240   46.1410 C.3   216  TYR216      0.1639
     14  C         30.3650   45.7320   45.4300 C.2   216  TYR216      0.2290
     15  O         30.8190   45.7140   44.2810 O.2   216  TYR216     -0.2864
     16  CB        28.5980   44.0200   45.9110 C.3   216  TYR216      0.0560
     17  CG        28.3630   42.5560   46.1860 C.ar  216  TYR216     -0.0198
     18  CD1       28.9090   41.5840   45.3580 C.ar  216  TYR216     -0.0009
     19  CD2       27.6130   42.1430   47.2750 C.ar  216  TYR216     -0.0009
     20  CE1       28.7110   40.2430   45.6050 C.ar  216  TYR216      0.0417
     21  CE2       27.4080   40.8010   47.5300 C.ar  216  TYR216      0.0417
     22  CZ        27.9600   39.8570   46.6900 C.ar  216  TYR216      0.1957
     23  OH        27.7640   38.5180   46.9310 O.3   216  TYR216     -0.2866
     24  N         34.1040   45.6850   44.5460 N.3   219  ILE219     -0.1245
     25  CA        34.3000   44.8550   43.3610 C.3   219  ILE219      0.1561
     26  C         33.7510   45.5630   42.1310 C.2   219  ILE219      0.2260
     27  O         34.3500   45.5230   41.0490 O.2   219  ILE219     -0.2867
     28  CB        33.6410   43.4770   43.5590 C.3   219  ILE219      0.0252
     29  CG1       34.2550   42.7570   44.7620 C.3   219  ILE219      0.0019
     30  CG2       33.7920   42.6220   42.3020 C.3   219  ILE219      0.0019
     31  CD1       33.4980   41.5160   45.1920 C.3   219  ILE219      0.0001
     32  N         40.0670   42.9720   39.8430 N.3   231  ILE231     -0.1245
     33  CA        38.7580   42.4390   40.2110 C.3   231  ILE231      0.1561
     34  C         38.9480   41.3110   41.2190 C.2   231  ILE231      0.2260
     35  O         38.3870   41.3830   42.3220 O.2   231  ILE231     -0.2867
     36  CB        37.9640   41.9810   38.9740 C.3   231  ILE231      0.0252
     37  CG1       37.3810   43.1960   38.2500 C.3   231  ILE231      0.0019
     38  CG2       36.8410   41.0100   39.3650 C.3   231  ILE231      0.0019
     39  CD1       36.7770   42.8810   36.8840 C.3   231  ILE231      0.0001
     40  N         38.3020   41.5820   45.2890 N.3   235  THR235     -0.1203
     41  CA        37.3240   40.6760   45.8840 C.3   235  THR235      0.1994
     42  C         37.8990   39.9810   47.1120 C.2   235  THR235      0.2617
     43  O         37.2480   39.9010   48.1610 O.2   235  THR235     -0.2717
     44  CB        36.8740   39.6400   44.8480 C.3   235  THR235      0.1784
     45  OG1       36.3150   40.3050   43.7060 O.3   235  THR235     -0.2211
     46  CG2       35.8310   38.6900   45.4340 C.3   235  THR235      0.0376
     47  N         39.1230   39.4710   46.9960 N.am  236  LEU236     -0.1979
     48  CA        39.7440   38.7240   48.0880 C.3   236  LEU236      0.1596
     49  C         40.1150   39.6500   49.2390 C.2   236  LEU236      0.2287
     50  O         39.8270   39.3620   50.4070 O.2   236  LEU236     -0.2864
     51  CB        40.9870   37.9990   47.5660 C.3   236  LEU236      0.0297
     52  CG        41.5770   36.8100   48.3330 C.3   236  LEU236      0.0022
     53  CD1       43.0000   36.5620   47.8460 C.3   236  LEU236      0.0001
     54  CD2       41.5590   36.9990   49.8410 C.3   236  LEU236      0.0001
     55  N         37.0740   40.6500   50.9490 N.3   239  TRP239     -0.1241
     56  CA        36.4500   39.5430   51.6640 C.3   239  TRP239      0.1605
     57  C         37.1410   39.2790   52.9970 C.2   239  TRP239      0.2264
     58  O         36.4810   39.1310   54.0330 O.2   239  TRP239     -0.2867
     59  CB        36.4720   38.2910   50.7890 C.3   239  TRP239      0.0550
     60  CG        35.8440   37.0960   51.4270 C.ar  239  TRP239      0.0003
     61  CD1       34.5290   36.7380   51.3790 C.ar  239  TRP239      0.0946
     62  CD2       36.5050   36.0960   52.2100 C.ar  239  TRP239      0.0152
     63  NE1       34.3300   35.5770   52.0850 N.ar  239  TRP239     -0.2442
     64  CE2       35.5280   35.1620   52.6060 C.ar  239  TRP239      0.0810
     65  CE3       37.8290   35.9000   52.6140 C.ar  239  TRP239      0.0012
     66  CZ2       35.8310   34.0500   53.3880 C.ar  239  TRP239      0.0191
     67  CZ3       38.1290   34.7970   53.3890 C.ar  239  TRP239      0.0001
     68  CH2       37.1350   33.8850   53.7690 C.ar  239  TRP239      0.0015
     69  N         35.6370   39.5950   56.8370 N.3   243  LYS243     -0.1245
     70  CA        35.6300   38.4050   57.6810 C.3   243  LYS243      0.1561
     71  C         36.2200   38.7130   59.0520 C.2   243  LYS243      0.2260
     72  O         35.6120   38.4130   60.0850 O.2   243  LYS243     -0.2867
     73  CB        36.4020   37.2710   57.0070 C.3   243  LYS243      0.0271
     74  CG        36.5430   36.0200   57.8750 C.3   243  LYS243      0.0035
     75  CD        37.2380   34.8960   57.1270 C.3   243  LYS243      0.0206
     76  CE        37.2760   33.6130   57.9460 C.3   243  LYS243      0.1093
     77  NZ        38.4400   33.5500   58.8750 N.3   243  LYS243     -0.1314
     78  N         29.1910   35.8660   51.0050 N.3   273  PRO273     -0.2102
     79  CA        29.3940   34.4140   50.9190 C.3   273  PRO273      0.1504
     80  C         30.6250   33.9570   51.6900 C.2   273  PRO273      0.2575
     81  O         31.6680   34.6150   51.6860 O.2   273  PRO273     -0.2718
     82  CB        29.5540   34.1660   49.4140 C.3   273  PRO273      0.0282
     83  CG        28.9040   35.3300   48.7620 C.3   273  PRO273      0.0208
     84  CD        29.1450   36.4910   49.6720 C.3   273  PRO273      0.0893
     85  N         30.4870   32.8070   52.3530 N.am  274  PHE274     -0.1977
     86  CA        31.5650   32.1110   53.0510 C.3   274  PHE274      0.1639
     87  C         32.0360   32.8310   54.3080 C.2   274  PHE274      0.2290
     88  O         33.0960   32.4850   54.8460 O.2   274  PHE274     -0.2864
     89  CB        32.7670   31.8660   52.1300 C.3   274  PHE274      0.0560
     90  CG        32.4390   31.0450   50.9200 C.ar  274  PHE274     -0.0200
     91  CD1       32.5060   29.6630   50.9660 C.ar  274  PHE274     -0.0042
     92  CD2       32.0600   31.6520   49.7360 C.ar  274  PHE274     -0.0042
     93  CE1       32.2020   28.9030   49.8540 C.ar  274  PHE274     -0.0003
     94  CE2       31.7540   30.8990   48.6210 C.ar  274  PHE274     -0.0003
     95  CZ        31.8250   29.5220   48.6800 C.ar  274  PHE274     -0.0000
@<TRIPOS>BOND
     1    39    37    1
     2    37    36    1
     3    36    38    1
     4    36    33    1
     5    32    33    1
     6    33    34    1
     7    27    26    2
     8    34    35    2
     9    26    25    1
    10    30    28    1
    11    25    28    1
    12    25    24    1
    13    28    29    1
    14    45    44    1
    15    15    14    2
    16    29    31    1
    17    44    46    1
    18    44    41    1
    19    40    41    1
    20    18    20   ar
    21    18    17   ar
    22    14    13    1
    23    20    22   ar
    24    41    42    1
    25    16    13    1
    26    16    17    1
    27    13    12    1
    28    17    19   ar
    29    22    23    1
    30    22    21   ar
    31    47    42   am
    32    47    48    1
    33    42    43    2
    34     4     3    2
    35    19    21   ar
    36    51    48    1
    37    51    52    1
    38    12     3   am
    39    53    52    1
    40     3     2    1
    41    48    49    1
    42    10    11   ar
    43    10     8   ar
    44    52    54    1
    45    11     9   ar
    46    94    95   ar
    47    94    92   ar
    48    95    93   ar
    49    83    82    1
    50    83    84    1
    51     8     6   ar
    52     9     7   ar
    53    49    50    2
    54    82    79    1
    55     2     1    1
    56     2     5    1
    57     6     7   ar
    58     6     5    1
    59    84    78    1
    60    92    90   ar
    61    93    91   ar
    62    59    60    1
    63    59    56    1
    64    79    78    1
    65    79    80    1
    66    90    91   ar
    67    90    89    1
    68    55    56    1
    69    61    60   ar
    70    61    63   ar
    71    60    62   ar
    72    56    57    1
    73    81    80    2
    74    80    85   am
    75    63    64   ar
    76    89    86    1
    77    62    64   ar
    78    62    65   ar
    79    85    86    1
    80    64    66   ar
    81    65    67   ar
    82    57    58    2
    83    86    87    1
    84    66    68   ar
    85    67    68   ar
    86    87    88    2
    87    69    70    1
    88    73    70    1
    89    73    74    1
    90    75    74    1
    91    75    76    1
    92    70    71    1
    93    76    77    1
    94    71    72    2
