@<TRIPOS>MOLECULE
tmp/5v7pA07.pdb
 220 218 0 0 0
SMALL
GASTEIGER

@<TRIPOS>ATOM
      1  N         19.8440   51.7450   60.5860 N.3   179  ALA179     -0.1245
      2  CA        20.5150   51.5740   61.8670 C.3   179  ALA179      0.1562
      3  C         20.4880   52.8360   62.7170 C.2   179  ALA179      0.2260
      4  O         20.6450   52.7450   63.9380 O.2   179  ALA179     -0.2867
      5  CB        21.9640   51.1420   61.6440 C.3   179  ALA179      0.0290
      6  N         22.6200   53.7290   65.8540 N.3   182  ASN182     -0.1225
      7  CA        23.2880   52.4630   66.1260 C.3   182  ASN182      0.1785
      8  C         24.4050   52.1660   65.1340 C.2   182  ASN182      0.2597
      9  O         25.2190   51.2720   65.3920 O.2   182  ASN182     -0.2718
     10  CB        22.2780   51.3130   66.1090 C.3   182  ASN182      0.1169
     11  CG        21.0870   51.5690   67.0080 C.2   182  ASN182      0.2627
     12  OD1       21.1810   51.4500   68.2290 O.2   182  ASN182     -0.2716
     13  ND2       19.9540   51.9160   66.4060 N.am  182  ASN182     -0.0877
     14  N         24.4580   52.8780   64.0110 N.am  183  PHE183     -0.1962
     15  CA        25.5580   52.7370   63.0710 C.3   183  PHE183      0.1771
     16  C         26.7740   53.5010   63.5780 C.2   183  PHE183      0.2619
     17  O         26.6580   54.4540   64.3530 O.2   183  PHE183     -0.2715
     18  CB        25.1580   53.2550   61.6860 C.3   183  PHE183      0.0574
     19  CG        26.1430   52.9140   60.5990 C.ar  183  PHE183     -0.0200
     20  CD1       26.0660   51.7020   59.9320 C.ar  183  PHE183     -0.0042
     21  CD2       27.1450   53.8040   60.2450 C.ar  183  PHE183     -0.0042
     22  CE1       26.9690   51.3830   58.9360 C.ar  183  PHE183     -0.0003
     23  CE2       28.0520   53.4880   59.2480 C.ar  183  PHE183     -0.0003
     24  CZ        27.9620   52.2760   58.5930 C.ar  183  PHE183     -0.0000
     25  N         27.9520   53.0700   63.1360 N.am  184  ASN184     -0.1972
     26  CA        29.1870   53.7510   63.5000 C.3   184  ASN184      0.1688
     27  C         30.2850   53.2920   62.5550 C.2   184  ASN184      0.2292
     28  O         30.4300   52.0900   62.3120 O.2   184  ASN184     -0.2864
     29  CB        29.5720   53.4590   64.9530 C.3   184  ASN184      0.1181
     30  CG        30.5030   54.5060   65.5330 C.2   184  ASN184      0.2629
     31  OD1       31.4490   54.9460   64.8800 O.2   184  ASN184     -0.2716
     32  ND2       30.2310   54.9180   66.7650 N.am  184  ASN184     -0.0877
     33  N         33.2480   53.2490   63.2860 N.3   186  LEU186     -0.1231
     34  CA        34.1830   52.5420   64.1480 C.3   186  LEU186      0.1693
     35  C         33.4390   51.4680   64.9270 C.2   186  LEU186      0.2592
     36  O         32.4050   51.7480   65.5450 O.2   186  LEU186     -0.2718
     37  CB        34.8720   53.5100   65.1130 C.3   186  LEU186      0.0284
     38  CG        36.1050   54.2520   64.5900 C.3   186  LEU186      0.0019
     39  CD1       35.8670   54.8630   63.2180 C.3   186  LEU186      0.0001
     40  CD2       36.5160   55.3260   65.5850 C.3   186  LEU186      0.0001
     41  N         33.9640   50.2410   64.8940 N.am  187  VAL187     -0.1966
     42  CA        33.3670   49.1580   65.6620 C.3   187  VAL187      0.1727
     43  C         33.4360   49.4950   67.1450 C.2   187  VAL187      0.2616
     44  O         34.4680   49.9510   67.6550 O.2   187  VAL187     -0.2715
     45  CB        34.0770   47.8290   65.3550 C.3   187  VAL187      0.0290
     46  CG1       33.5300   46.7040   66.2290 C.3   187  VAL187      0.0023
     47  CG2       33.9240   47.4760   63.8830 C.3   187  VAL187      0.0023
     48  N         32.3300   49.2660   67.8460 N.am  188  GLN188     -0.1977
     49  CA        32.2110   49.6020   69.2590 C.3   188  GLN188      0.1601
     50  C         32.4360   48.3570   70.1050 C.2   188  GLN188      0.2287
     51  O         31.8650   47.2970   69.8250 O.2   188  GLN188     -0.2864
     52  CB        30.8350   50.1970   69.5600 C.3   188  GLN188      0.0394
     53  CG        30.5000   51.4290   68.7440 C.3   188  GLN188      0.0908
     54  CD        31.4470   52.5830   69.0090 C.2   188  GLN188      0.2608
     55  OE1       31.5100   53.1060   70.1230 O.2   188  GLN188     -0.2717
     56  NE2       32.1940   52.9840   67.9860 N.am  188  GLN188     -0.0878
     57  N         22.1690   52.0550   72.7020 N.3   195  HIS195     -0.1226
     58  CA        22.4320   51.1340   71.6050 C.3   195  HIS195      0.1752
     59  C         21.4410   49.9770   71.6640 C.2   195  HIS195      0.2596
     60  O         21.3940   49.2410   72.6560 O.2   195  HIS195     -0.2718
     61  CB        23.8700   50.6270   71.6830 C.3   195  HIS195      0.0759
     62  CG        24.3090   49.8630   70.4740 C.ar  195  HIS195      0.0818
     63  ND1       25.5640   49.3050   70.3650 N.ar  195  HIS195     -0.2268
     64  CD2       23.6640   49.5670   69.3210 C.ar  195  HIS195      0.1154
     65  CE1       25.6720   48.6950   69.2000 C.ar  195  HIS195      0.1986
     66  NE2       24.5330   48.8380   68.5470 N.ar  195  HIS195     -0.2212
     67  N         20.6510   49.8180   70.6030 N.am  196  VAL196     -0.1966
     68  CA        19.6410   48.7730   70.5290 C.3   196  VAL196      0.1727
     69  C         19.9280   47.9020   69.3140 C.2   196  VAL196      0.2616
     70  O         20.6290   48.2990   68.3800 O.2   196  VAL196     -0.2715
     71  CB        18.2100   49.3470   70.4590 C.3   196  VAL196      0.0290
     72  CG1       17.8870   50.1230   71.7290 C.3   196  VAL196      0.0023
     73  CG2       18.0400   50.2350   69.2290 C.3   196  VAL196      0.0023
     74  N         19.3740   46.6950   69.3410 N.am  197  LEU197     -0.1963
     75  CA        19.5440   45.7590   68.2410 C.3   197  LEU197      0.1728
     76  C         18.5640   46.0750   67.1190 C.2   197  LEU197      0.2616
     77  O         17.3840   46.3440   67.3580 O.2   197  LEU197     -0.2715
     78  CB        19.3480   44.3230   68.7270 C.3   197  LEU197      0.0311
     79  CG        19.4700   43.2220   67.6730 C.3   197  LEU197      0.0022
     80  CD1       20.8210   43.2690   66.9740 C.3   197  LEU197      0.0001
     81  CD2       19.2450   41.8570   68.3100 C.3   197  LEU197      0.0001
     82  N         19.0650   46.0370   65.8890 N.am  198  VAL198     -0.1977
     83  CA        18.2980   46.3540   64.6900 C.3   198  VAL198      0.1596
     84  C         18.1480   45.0650   63.8960 C.2   198  VAL198      0.2287
     85  O         19.1480   44.4370   63.5250 O.2   198  VAL198     -0.2864
     86  CB        18.9830   47.4430   63.8470 C.3   198  VAL198      0.0276
     87  CG1       18.1510   47.7720   62.6080 C.3   198  VAL198      0.0022
     88  CG2       19.2240   48.6940   64.6850 C.3   198  VAL198      0.0022
     89  N         18.2500   44.9170   57.5320 N.3   203  TYR203     -0.1241
     90  CA        18.8060   44.0550   58.5670 C.3   203  TYR203      0.1605
     91  C         18.0010   42.7760   58.7520 C.2   203  TYR203      0.2264
     92  O         18.4610   41.8730   59.4580 O.2   203  TYR203     -0.2867
     93  CB        18.9130   44.8180   59.8890 C.3   203  TYR203      0.0534
     94  CG        20.0730   45.7820   59.8920 C.ar  203  TYR203     -0.0201
     95  CD1       19.9190   47.0880   59.4450 C.ar  203  TYR203     -0.0009
     96  CD2       21.3320   45.3770   60.3110 C.ar  203  TYR203     -0.0009
     97  CE1       20.9860   47.9680   59.4300 C.ar  203  TYR203      0.0417
     98  CE2       22.4000   46.2460   60.3030 C.ar  203  TYR203      0.0417
     99  CZ        22.2240   47.5390   59.8590 C.ar  203  TYR203      0.1957
    100  OH        23.2910   48.4060   59.8480 O.3   203  TYR203     -0.2866
    101  N         22.7280   40.3490   58.1640 N.3   207  ARG207     -0.1231
    102  CA        23.1750   40.8600   59.4520 C.3   207  ARG207      0.1694
    103  C         24.1130   42.0510   59.3090 C.2   207  ARG207      0.2592
    104  O         24.2320   42.8450   60.2480 O.2   207  ARG207     -0.2718
    105  CB        23.8700   39.7540   60.2500 C.3   207  ARG207      0.0321
    106  CG        22.9980   38.5340   60.4910 C.3   207  ARG207      0.0489
    107  CD        23.3480   37.8460   61.7990 C.3   207  ARG207      0.2205
    108  NE        24.7190   37.3400   61.8210 N.pl3 207  ARG207     -0.0865
    109  CZ        25.0920   36.1290   61.4150 C.cat 207  ARG207      0.5346
    110  NH1       24.2020   35.2700   60.9400 N.pl3 207  ARG207      0.1354
    111  NH2       26.3680   35.7720   61.4830 N.pl3 207  ARG207      0.1354
    112  N         24.7680   42.1990   58.1610 N.am  208  HIS208     -0.1962
    113  CA        25.7260   43.2800   57.9290 C.3   208  HIS208      0.1772
    114  C         25.4840   43.8910   56.5540 C.2   208  HIS208      0.2462
    115  O         26.3530   43.8550   55.6770 O.2   208  HIS208     -0.2730
    116  CB        27.1550   42.7590   58.0630 C.3   208  HIS208      0.0785
    117  CG        27.3880   41.9750   59.3180 C.ar  208  HIS208      0.0821
    118  ND1       27.5520   42.5720   60.5490 N.ar  208  HIS208     -0.2267
    119  CD2       27.4690   40.6410   59.5330 C.ar  208  HIS208      0.1154
    120  CE1       27.7300   41.6400   61.4670 C.ar  208  HIS208      0.1986
    121  NE2       27.6840   40.4600   60.8770 N.ar  208  HIS208     -0.2212
    122  N         24.3050   44.4820   56.3370 N.am  209  PRO209     -0.2716
    123  CA        23.9800   44.9940   54.9960 C.3   209  PRO209      0.1536
    124  C         24.8990   46.1100   54.5260 C.2   209  PRO209      0.2599
    125  O         25.0980   46.2590   53.3140 O.2   209  PRO209     -0.2715
    126  CB        22.5310   45.4800   55.1500 C.3   209  PRO209      0.0310
    127  CG        22.3760   45.7590   56.6110 C.3   209  PRO209      0.0237
    128  CD        23.2340   44.7510   57.3110 C.3   209  PRO209      0.0939
    129  N         25.4610   46.9070   55.4380 N.am  210  SER210     -0.1936
    130  CA        26.3720   47.9630   55.0090 C.3   210  SER210      0.2055
    131  C         27.6820   47.3770   54.4950 C.2   210  SER210      0.2643
    132  O         28.2720   47.9030   53.5470 O.2   210  SER210     -0.2714
    133  CB        26.6250   48.9470   56.1540 C.3   210  SER210      0.2130
    134  OG        27.7360   48.5630   56.9450 O.3   210  SER210     -0.2179
    135  N         28.1460   46.2760   55.0940 N.am  211  TYR211     -0.1973
    136  CA        29.3390   45.6130   54.5770 C.3   211  TYR211      0.1639
    137  C         29.0450   44.8700   53.2810 C.2   211  TYR211      0.2290
    138  O         29.9170   44.7790   52.4090 O.2   211  TYR211     -0.2864
    139  CB        29.9080   44.6530   55.6240 C.3   211  TYR211      0.0560
    140  CG        30.3070   45.3130   56.9300 C.ar  211  TYR211     -0.0198
    141  CD1       30.5170   46.6850   57.0100 C.ar  211  TYR211     -0.0009
    142  CD2       30.4710   44.5600   58.0850 C.ar  211  TYR211     -0.0009
    143  CE1       30.8780   47.2850   58.2030 C.ar  211  TYR211      0.0417
    144  CE2       30.8360   45.1510   59.2760 C.ar  211  TYR211      0.0417
    145  CZ        31.0380   46.5130   59.3300 C.ar  211  TYR211      0.1957
    146  OH        31.3960   47.1080   60.5170 O.3   211  TYR211     -0.2866
    147  N         36.6800   41.7610   60.3750 N.3   245  ARG245     -0.1245
    148  CA        35.8860   42.8070   61.0120 C.3   245  ARG245      0.1563
    149  C         34.5950   42.2400   61.5900 C.2   245  ARG245      0.2260
    150  O         34.2450   42.5140   62.7440 O.2   245  ARG245     -0.2867
    151  CB        35.5880   43.9170   60.0030 C.3   245  ARG245      0.0307
    152  CG        34.9650   45.1610   60.6100 C.3   245  ARG245      0.0489
    153  CD        34.6920   46.2080   59.5460 C.3   245  ARG245      0.2205
    154  NE        34.1470   47.4410   60.1070 N.pl3 245  ARG245     -0.0865
    155  CZ        34.8610   48.5100   60.4500 C.cat 245  ARG245      0.5346
    156  NH1       36.1770   48.5290   60.2970 N.pl3 245  ARG245      0.1354
    157  NH2       34.2470   49.5740   60.9500 N.pl3 245  ARG245      0.1354
    158  N         33.3360   41.9640   65.4500 N.3   249  GLU249     -0.1245
    159  CA        32.1730   42.8240   65.6410 C.3   249  GLU249      0.1567
    160  C         31.0150   42.0580   66.2660 C.2   249  GLU249      0.2260
    161  O         30.3220   42.5810   67.1460 O.2   249  GLU249     -0.2867
    162  CB        31.7630   43.4350   64.3020 C.3   249  GLU249      0.0388
    163  CG        30.5160   44.3010   64.3570 C.3   249  GLU249      0.1160
    164  CD        30.3400   45.1420   63.1060 C.2   249  GLU249      0.3649
    165  OE1       31.3560   45.4540   62.4510 O.co2 249  GLU249     -0.2457
    166  OE2       29.1880   45.4880   62.7720 O.co2 249  GLU249     -0.2457
    167  N         28.7250   42.1950   69.7790 N.3   253  LEU253     -0.1245
    168  CA        27.2690   42.2380   69.7260 C.3   253  LEU253      0.1561
    169  C         26.6470   41.1630   70.6070 C.2   253  LEU253      0.2260
    170  O         25.5770   41.3810   71.1840 O.2   253  LEU253     -0.2867
    171  CB        26.7920   42.0890   68.2800 C.3   253  LEU253      0.0270
    172  CG        27.0120   43.3140   67.3890 C.3   253  LEU253      0.0019
    173  CD1       26.9190   42.9410   65.9190 C.3   253  LEU253      0.0001
    174  CD2       26.0060   44.4120   67.7180 C.3   253  LEU253      0.0001
    175  N         26.6170   42.4190   73.9640 N.3   256  PHE256     -0.1227
    176  CA        25.6570   43.5110   74.0850 C.3   256  PHE256      0.1736
    177  C         24.2390   42.9840   74.2740 C.2   256  PHE256      0.2595
    178  O         23.5370   43.3880   75.2070 O.2   256  PHE256     -0.2718
    179  CB        25.7120   44.4090   72.8440 C.3   256  PHE256      0.0547
    180  CG        27.0000   45.1750   72.6830 C.ar  256  PHE256     -0.0202
    181  CD1       27.9720   45.1730   73.6710 C.ar  256  PHE256     -0.0042
    182  CD2       27.2280   45.9110   71.5300 C.ar  256  PHE256     -0.0042
    183  CE1       29.1460   45.8860   73.5070 C.ar  256  PHE256     -0.0003
    184  CE2       28.3980   46.6240   71.3630 C.ar  256  PHE256     -0.0003
    185  CZ        29.3580   46.6110   72.3500 C.ar  256  PHE256     -0.0000
    186  N         23.8030   42.0840   73.3940 N.am  257  PHE257     -0.1976
    187  CA        22.4100   41.6720   73.3330 C.3   257  PHE257      0.1639
    188  C         22.2020   40.1910   73.6210 C.2   257  PHE257      0.2290
    189  O         21.0580   39.7220   73.5720 O.2   257  PHE257     -0.2864
    190  CB        21.8280   42.0220   71.9570 C.3   257  PHE257      0.0560
    191  CG        22.0790   43.4450   71.5430 C.ar  257  PHE257     -0.0200
    192  CD1       21.4260   44.4910   72.1750 C.ar  257  PHE257     -0.0042
    193  CD2       22.9710   43.7390   70.5270 C.ar  257  PHE257     -0.0042
    194  CE1       21.6570   45.8010   71.7990 C.ar  257  PHE257     -0.0003
    195  CE2       23.2050   45.0460   70.1460 C.ar  257  PHE257     -0.0003
    196  CZ        22.5460   46.0780   70.7840 C.ar  257  PHE257     -0.0000
    197  N         20.8660   38.4330   69.9280 N.3   261  TYR261     -0.1241
    198  CA        21.7190   38.3370   68.7500 C.3   261  TYR261      0.1605
    199  C         21.9720   36.8890   68.3580 C.2   261  TYR261      0.2264
    200  O         22.1080   36.5910   67.1660 O.2   261  TYR261     -0.2867
    201  CB        23.0530   39.0470   68.9790 C.3   261  TYR261      0.0534
    202  CG        23.7430   39.3810   67.6780 C.ar  261  TYR261     -0.0201
    203  CD1       23.3530   40.4840   66.9320 C.ar  261  TYR261     -0.0009
    204  CD2       24.7630   38.5810   67.1780 C.ar  261  TYR261     -0.0009
    205  CE1       23.9620   40.7910   65.7380 C.ar  261  TYR261      0.0417
    206  CE2       25.3810   38.8840   65.9790 C.ar  261  TYR261      0.0417
    207  CZ        24.9740   39.9910   65.2630 C.ar  261  TYR261      0.1957
    208  OH        25.5760   40.3080   64.0670 O.3   261  TYR261     -0.2866
    209  N         19.2340   36.0440   66.3290 N.3   264  TYR264     -0.1241
    210  CA        19.3640   36.7750   65.0740 C.3   264  TYR264      0.1605
    211  C         20.3460   36.0930   64.1290 C.2   264  TYR264      0.2264
    212  O         20.1620   36.1380   62.9070 O.2   264  TYR264     -0.2867
    213  CB        19.7970   38.2090   65.3810 C.3   264  TYR264      0.0534
    214  CG        19.9330   39.1280   64.1890 C.ar  264  TYR264     -0.0201
    215  CD1       18.9170   39.2500   63.2520 C.ar  264  TYR264     -0.0009
    216  CD2       21.0710   39.9070   64.0250 C.ar  264  TYR264     -0.0009
    217  CE1       19.0430   40.1060   62.1720 C.ar  264  TYR264      0.0417
    218  CE2       21.2040   40.7620   62.9540 C.ar  264  TYR264      0.0417
    219  CZ        20.1910   40.8600   62.0320 C.ar  264  TYR264      0.1957
    220  OH        20.3340   41.7180   60.9690 O.3   264  TYR264     -0.2866
@<TRIPOS>BOND
     1   138   137    2
     2   137   136    1
     3   125   124    2
     4   132   131    2
     5   131   130    1
     6   131   135   am
     7   124   123    1
     8   124   129   am
     9   136   135    1
    10   136   139    1
    11   123   126    1
    12   123   122    1
    13   130   129    1
    14   130   133    1
    15   126   127    1
    16   139   140    1
    17   115   114    2
    18   133   134    1
    19   122   114   am
    20   122   128    1
    21   114   113    1
    22   127   128    1
    23   140   141   ar
    24   140   142   ar
    25   141   143   ar
    26    89    90    1
    27   113   116    1
    28   113   112    1
    29   116   117    1
    30   142   144   ar
    31   112   103   am
    32   101   102    1
    33   143   145   ar
    34    90    91    1
    35    90    93    1
    36    24    22   ar
    37    24    23   ar
    38    91    92    2
    39    22    20   ar
    40    23    21   ar
    41   144   145   ar
    42   103   102    1
    43   103   104    2
    44   117   119   ar
    45   117   118   ar
    46   145   146    1
    47    97    95   ar
    48    97    99   ar
    49    95    94   ar
    50   102   105    1
    51   119   121   ar
    52   153   154    1
    53   153   152    1
    54   100    99    1
    55    99    98   ar
    56    93    94    1
    57    94    96   ar
    58    20    19   ar
    59   151   152    1
    60   151   148    1
    61   154   155    2
    62    21    19   ar
    63   105   106    1
    64   156   155    1
    65    98    96   ar
    66   147   148    1
    67   155   157    1
    68   106   107    1
    69   118   120   ar
    70     1     2    1
    71    19    18    1
    72   121   120   ar
    73   110   109    1
    74   220   219    1
    75   148   149    1
    76   109   111    1
    77   109   108    2
    78   149   150    2
    79     5     2    1
    80    18    15    1
    81   107   108    1
    82     2     3    1
    83   219   217   ar
    84   219   218   ar
    85   217   215   ar
    86    28    27    2
    87   165   164   ar
    88    27    26    1
    89    87    86    1
    90     3     4    2
    91   166   164   ar
    92   212   211    2
    93   218   216   ar
    94    15    16    1
    95    15    14    1
    96   164   163    1
    97    25    26    1
    98    25    16   am
    99    39    38    1
   100   215   214   ar
   101    33    34    1
   102    26    29    1
   103    85    84    2
   104    16    17    2
   105    86    88    1
   106    86    83    1
   107    47    45    1
   108    84    83    1
   109    14     8   am
   110   216   214   ar
   111   208   207    1
   112   211   210    1
   113    34    35    1
   114    34    37    1
   115   214   213    1
   116   162   163    1
   117   162   159    1
   118    38    37    1
   119    38    40    1
   120    83    82    1
   121    31    30    2
   122    41    35   am
   123    41    42    1
   124    35    36    2
   125    29    30    1
   126   210   213    1
   127   210   209    1
   128     8     9    2
   129     8     7    1
   130   207   205   ar
   131   207   206   ar
   132    45    42    1
   133    45    46    1
   134   158   159    1
   135    30    32   am
   136   159   160    1
   137    42    43    1
   138   205   203   ar
   139     6     7    1
   140    82    76   am
   141   173   172    1
   142   206   204   ar
   143    10     7    1
   144    10    11    1
   145   160   161    2
   146    13    11   am
   147   203   202   ar
   148    80    79    1
   149    11    12    2
   150    76    77    2
   151    76    75    1
   152    43    44    2
   153    43    48   am
   154   200   199    2
   155   204   202   ar
   156   172   174    1
   157   172   171    1
   158    79    81    1
   159    79    78    1
   160   202   201    1
   161    48    49    1
   162    56    54   am
   163    75    78    1
   164    75    74    1
   165   171   168    1
   166   199   198    1
   167    70    69    2
   168    66    65   ar
   169    66    64   ar
   170    53    54    1
   171    53    52    1
   172   198   201    1
   173   198   197    1
   174    54    55    2
   175    65    63   ar
   176    73    71    1
   177    49    52    1
   178    49    50    1
   179    69    74   am
   180    69    68    1
   181    64    62   ar
   182   168   167    1
   183   168   169    1
   184    51    50    2
   185   195   193   ar
   186   195   196   ar
   187    63    62   ar
   188    71    68    1
   189    71    72    1
   190    62    61    1
   191   193   191   ar
   192    68    67    1
   193    67    59   am
   194   169   170    2
   195   196   194   ar
   196   184   182   ar
   197   184   185   ar
   198   182   180   ar
   199   191   190    1
   200   191   192   ar
   201    58    59    1
   202    58    61    1
   203    58    57    1
   204    59    60    2
   205   194   192   ar
   206   190   187    1
   207   185   183   ar
   208   180   179    1
   209   180   181   ar
   210   179   176    1
   211   187   186    1
   212   187   188    1
   213   186   177   am
   214   183   181   ar
   215   189   188    2
   216   175   176    1
   217   176   177    1
   218   177   178    2
