@<TRIPOS>MOLECULE
tmp/5v7pA10.pdb
 113 111 0 0 0
SMALL
GASTEIGER

@<TRIPOS>ATOM
      1  N         36.5530   69.1670   47.0350 N.3    69  PHE69      -0.1227
      2  CA        37.4140   68.3120   46.2270 C.3    69  PHE69       0.1736
      3  C         36.6240   67.1630   45.6160 C.2    69  PHE69       0.2595
      4  O         36.8150   66.8240   44.4420 O.2    69  PHE69      -0.2718
      5  CB        38.5680   67.7800   47.0780 C.3    69  PHE69       0.0547
      6  CG        39.3160   66.6410   46.4450 C.ar   69  PHE69      -0.0202
      7  CD1       40.2540   66.8760   45.4530 C.ar   69  PHE69      -0.0042
      8  CD2       39.0830   65.3360   46.8440 C.ar   69  PHE69      -0.0042
      9  CE1       40.9440   65.8290   44.8700 C.ar   69  PHE69      -0.0003
     10  CE2       39.7680   64.2850   46.2650 C.ar   69  PHE69      -0.0003
     11  CZ        40.7010   64.5320   45.2760 C.ar   69  PHE69      -0.0000
     12  N         35.7210   66.5610   46.3930 N.am   70  LEU70      -0.1980
     13  CA        34.9160   65.4600   45.8750 C.3    70  LEU70       0.1596
     14  C         33.9380   65.9350   44.8080 C.2    70  LEU70       0.2287
     15  O         33.6570   65.1970   43.8550 O.2    70  LEU70      -0.2864
     16  CB        34.1720   64.7770   47.0220 C.3    70  LEU70       0.0297
     17  CG        35.0640   64.0370   48.0220 C.3    70  LEU70       0.0022
     18  CD1       34.2810   63.6690   49.2750 C.3    70  LEU70       0.0001
     19  CD2       35.6660   62.7920   47.3880 C.3    70  LEU70       0.0001
     20  N         35.9850   66.0780   41.6770 N.3    73  VAL73      -0.1245
     21  CA        36.1740   64.7620   41.0750 C.3    73  VAL73       0.1561
     22  C         34.8950   64.3000   40.3870 C.2    73  VAL73       0.2260
     23  O         34.9370   63.6940   39.3100 O.2    73  VAL73      -0.2867
     24  CB        36.6400   63.7580   42.1440 C.3    73  VAL73       0.0252
     25  CG1       36.7470   62.3530   41.5670 C.3    73  VAL73       0.0019
     26  CG2       37.9790   64.1980   42.7260 C.3    73  VAL73       0.0019
     27  N         37.1360   55.4850   32.6870 N.3    91  PHE91      -0.1241
     28  CA        37.7480   56.0100   33.9000 C.3    91  PHE91       0.1605
     29  C         36.9420   57.1640   34.4800 C.2    91  PHE91       0.2264
     30  O         36.9340   57.3610   35.7000 O.2    91  PHE91      -0.2867
     31  CB        39.1810   56.4490   33.6070 C.3    91  PHE91       0.0534
     32  CG        40.0450   56.5390   34.8290 C.ar   91  PHE91      -0.0203
     33  CD1       40.6380   55.4050   35.3570 C.ar   91  PHE91      -0.0042
     34  CD2       40.2640   57.7560   35.4530 C.ar   91  PHE91      -0.0042
     35  CE1       41.4330   55.4820   36.4820 C.ar   91  PHE91      -0.0003
     36  CE2       41.0590   57.8400   36.5780 C.ar   91  PHE91      -0.0003
     37  CZ        41.6450   56.7020   37.0940 C.ar   91  PHE91      -0.0000
     38  N         34.2340   55.8380   36.7400 N.3    94  TYR94      -0.1227
     39  CA        34.8440   55.3400   37.9680 C.3    94  TYR94       0.1736
     40  C         35.1450   56.4820   38.9310 C.2    94  TYR94       0.2595
     41  O         34.8530   56.3940   40.1290 O.2    94  TYR94      -0.2718
     42  CB        36.1150   54.5610   37.6280 C.3    94  TYR94       0.0548
     43  CG        37.1040   54.4590   38.7660 C.ar   94  TYR94      -0.0200
     44  CD1       36.9860   53.4660   39.7260 C.ar   94  TYR94      -0.0009
     45  CD2       38.1630   55.3530   38.8750 C.ar   94  TYR94      -0.0009
     46  CE1       37.8890   53.3680   40.7660 C.ar   94  TYR94       0.0417
     47  CE2       39.0720   55.2630   39.9140 C.ar   94  TYR94       0.0417
     48  CZ        38.9300   54.2680   40.8570 C.ar   94  TYR94       0.1957
     49  OH        39.8280   54.1660   41.8950 O.3    94  TYR94      -0.2866
     50  N         35.7350   57.5660   38.4220 N.am   95  MET95      -0.1979
     51  CA        36.0200   58.7180   39.2710 C.3    95  MET95       0.1605
     52  C         34.7530   59.2410   39.9340 C.2    95  MET95       0.2287
     53  O         34.7500   59.5480   41.1320 O.2    95  MET95      -0.2864
     54  CB        36.6770   59.8250   38.4500 C.3    95  MET95       0.0413
     55  CG        38.0830   59.5050   37.9830 C.3    95  MET95       0.0598
     56  SD        38.6930   60.6880   36.7660 S.3    95  MET95      -0.1393
     57  CE        38.3980   62.2490   37.5930 C.3    95  MET95       0.0692
     58  N         33.4460   57.0000   42.7000 N.3    98  MET98      -0.1230
     59  CA        34.2850   57.1200   43.8850 C.3    98  MET98       0.1702
     60  C         33.9570   58.3830   44.6670 C.2    98  MET98       0.2592
     61  O         33.8360   58.3490   45.8970 O.2    98  MET98      -0.2718
     62  CB        35.7550   57.1180   43.4710 C.3    98  MET98       0.0401
     63  CG        36.2070   55.8220   42.8240 C.3    98  MET98       0.0596
     64  SD        36.6480   54.5780   44.0440 S.3    98  MET98      -0.1393
     65  CE        38.1470   55.3000   44.7130 C.3    98  MET98       0.0692
     66  N         33.8130   59.5110   43.9690 N.am   99  ALA99      -0.1980
     67  CA        33.5340   60.7710   44.6480 C.3    99  ALA99       0.1597
     68  C         32.1900   60.7270   45.3610 C.2    99  ALA99       0.2287
     69  O         32.0660   61.1960   46.4980 O.2    99  ALA99      -0.2864
     70  CB        33.5730   61.9240   43.6460 C.3    99  ALA99       0.0319
     71  N         32.3640   58.5670   48.7380 N.3   102  HIS102     -0.1241
     72  CA        33.0060   59.1620   49.9040 C.3   102  HIS102      0.1621
     73  C         32.2010   60.3350   50.4500 C.2   102  HIS102      0.2264
     74  O         32.1220   60.5220   51.6690 O.2   102  HIS102     -0.2867
     75  CB        34.4290   59.5930   49.5520 C.3   102  HIS102      0.0745
     76  CG        35.3690   58.4450   49.3420 C.ar  102  HIS102      0.0817
     77  ND1       35.8410   57.6720   50.3810 N.ar  102  HIS102     -0.2268
     78  CD2       35.9170   57.9340   48.2140 C.ar  102  HIS102      0.1154
     79  CE1       36.6410   56.7360   49.9020 C.ar  102  HIS102      0.1986
     80  NE2       36.7040   56.8730   48.5900 N.ar  102  HIS102     -0.2212
     81  N         38.0800   58.1570   53.9200 N.3   124  ILE124     -0.1245
     82  CA        39.1830   58.1130   52.9650 C.3   124  ILE124      0.1561
     83  C         40.4190   57.5350   53.6480 C.2   124  ILE124      0.2260
     84  O         40.8320   58.0020   54.7150 O.2   124  ILE124     -0.2867
     85  CB        39.4730   59.5110   52.3890 C.3   124  ILE124      0.0252
     86  CG1       38.1840   60.1400   51.8440 C.3   124  ILE124      0.0019
     87  CG2       40.5270   59.4150   51.2870 C.3   124  ILE124      0.0019
     88  CD1       38.3440   61.5560   51.3090 C.3   124  ILE124      0.0001
     89  N         44.6700   52.2450   39.0070 N.3   138  TRP138     -0.1241
     90  CA        44.8230   53.3000   38.0120 C.3   138  TRP138      0.1605
     91  C         45.8870   52.9320   36.9870 C.2   138  TRP138      0.2264
     92  O         45.7000   53.1520   35.7850 O.2   138  TRP138     -0.2867
     93  CB        45.1850   54.6230   38.6870 C.3   138  TRP138      0.0550
     94  CG        44.2220   55.0720   39.7350 C.ar  138  TRP138      0.0003
     95  CD1       42.9590   54.6020   39.9530 C.ar  138  TRP138      0.0946
     96  CD2       44.4490   56.0860   40.7200 C.ar  138  TRP138      0.0152
     97  NE1       42.3860   55.2630   41.0130 N.ar  138  TRP138     -0.2442
     98  CE2       43.2810   56.1780   41.5020 C.ar  138  TRP138      0.0810
     99  CE3       45.5270   56.9240   41.0170 C.ar  138  TRP138      0.0012
    100  CZ2       43.1610   57.0760   42.5600 C.ar  138  TRP138      0.0191
    101  CZ3       45.4070   57.8150   42.0670 C.ar  138  TRP138      0.0001
    102  CH2       44.2320   57.8830   42.8260 C.ar  138  TRP138      0.0015
    103  N         45.4060   52.2870   32.7620 N.3   142  PHE142     -0.1241
    104  CA        46.0650   53.0830   31.7340 C.3   142  PHE142      0.1605
    105  C         47.1470   52.3030   30.9960 C.2   142  PHE142      0.2264
    106  O         47.3770   52.5530   29.8090 O.2   142  PHE142     -0.2867
    107  CB        46.6440   54.3560   32.3510 C.3   142  PHE142      0.0534
    108  CG        45.5970   55.3670   32.7100 C.ar  142  PHE142     -0.0203
    109  CD1       44.9670   56.1050   31.7220 C.ar  142  PHE142     -0.0042
    110  CD2       45.2230   55.5630   34.0280 C.ar  142  PHE142     -0.0042
    111  CE1       43.9930   57.0270   32.0430 C.ar  142  PHE142     -0.0003
    112  CE2       44.2510   56.4840   34.3560 C.ar  142  PHE142     -0.0003
    113  CZ        43.6320   57.2170   33.3610 C.ar  142  PHE142     -0.0000
@<TRIPOS>BOND
     1   106   105    2
     2   105   104    1
     3   109   111   ar
     4   109   108   ar
     5   104   107    1
     6   104   103    1
     7   111   113   ar
     8   107   108    1
     9    27    28    1
    10   108   110   ar
    11   113   112   ar
    12    31    28    1
    13    31    32    1
    14    28    29    1
    15   110   112   ar
    16    29    30    2
    17    32    33   ar
    18    32    34   ar
    19    33    35   ar
    20    34    36   ar
    21    92    91    2
    22    35    37   ar
    23    36    37   ar
    24    38    39    1
    25    56    57    1
    26    56    55    1
    27    91    90    1
    28    42    39    1
    29    42    43    1
    30    39    40    1
    31    55    54    1
    32    90    93    1
    33    90    89    1
    34    50    40   am
    35    50    51    1
    36    54    51    1
    37    93    94    1
    38    43    45   ar
    39    43    44   ar
    40    45    47   ar
    41    40    41    2
    42    51    52    1
    43    23    22    2
    44    44    46   ar
    45    94    95   ar
    46    94    96   ar
    47    47    48   ar
    48    52    53    2
    49    95    97   ar
    50    22    21    1
    51    96    99   ar
    52    96    98   ar
    53    46    48   ar
    54    48    49    1
    55    97    98   ar
    56    99   101   ar
    57    21    20    1
    58    21    24    1
    59    98   100   ar
    60    25    24    1
    61   101   102   ar
    62    24    26    1
    63   100   102   ar
    64    58    59    1
    65    63    62    1
    66    63    64    1
    67    62    59    1
    68    70    67    1
    69    15    14    2
    70    59    60    1
    71    66    67    1
    72    66    60   am
    73    64    65    1
    74     4     3    2
    75    67    68    1
    76    60    61    2
    77    14    13    1
    78     9    11   ar
    79     9     7   ar
    80    11    10   ar
    81    68    69    2
    82     7     6   ar
    83     3     2    1
    84     3    12   am
    85    13    12    1
    86    13    16    1
    87     2     1    1
    88     2     5    1
    89    10     8   ar
    90     6     8   ar
    91     6     5    1
    92    16    17    1
    93    19    17    1
    94    17    18    1
    95    78    80   ar
    96    78    76   ar
    97    80    79   ar
    98    71    72    1
    99    76    75    1
   100    76    77   ar
   101    75    72    1
   102    79    77   ar
   103    72    73    1
   104    73    74    2
   105    87    85    1
   106    88    86    1
   107    86    85    1
   108    85    82    1
   109    82    83    1
   110    82    81    1
   111    83    84    2
