@<TRIPOS>MOLECULE
tmp/5v7tA00.pdb
 120 120 0 0 0
SMALL
GASTEIGER

@<TRIPOS>ATOM
      1  N         -9.1360   20.7510  -16.4320 N.3    69  PHE69      -0.1227
      2  CA        -8.2660   19.5850  -16.2640 C.3    69  PHE69       0.1736
      3  C         -8.3790   18.5960  -17.4270 C.2    69  PHE69       0.2595
      4  O         -9.4500   18.4500  -18.0310 O.2    69  PHE69      -0.2718
      5  CB        -8.6070   18.8810  -14.9480 C.3    69  PHE69       0.0547
      6  CG        -8.3270   19.7130  -13.7300 C.ar   69  PHE69      -0.0202
      7  CD1       -7.0950   19.6520  -13.1050 C.ar   69  PHE69      -0.0042
      8  CD2       -9.2870   20.5610  -13.2160 C.ar   69  PHE69      -0.0042
      9  CE1       -6.8290   20.4160  -11.9840 C.ar   69  PHE69      -0.0003
     10  CE2       -9.0290   21.3310  -12.0970 C.ar   69  PHE69      -0.0003
     11  CZ        -7.8020   21.2530  -11.4770 C.ar   69  PHE69      -0.0000
     12  N         -7.2740   17.9120  -17.7320 N.am   70  HIS70      -0.1961
     13  CA        -7.2730   16.8790  -18.7600 C.3    70  HIS70       0.1787
     14  C         -6.4030   15.6780  -18.3800 C.2    70  HIS70       0.2620
     15  O         -5.1900   15.7920  -18.2200 O.2    70  HIS70      -0.2715
     16  CB        -6.8330   17.4430  -20.1140 C.3    70  HIS70       0.0785
     17  CG        -6.9400   16.4530  -21.2290 C.ar   70  HIS70       0.0821
     18  ND1       -8.0420   16.3780  -22.0570 N.ar   70  HIS70      -0.2267
     19  CD2       -6.1010   15.4660  -21.6270 C.ar   70  HIS70       0.1154
     20  CE1       -7.8650   15.4040  -22.9310 C.ar   70  HIS70       0.1986
     21  NE2       -6.7010   14.8290  -22.6860 N.ar   70  HIS70      -0.2212
     22  N         -7.0500   14.5250  -18.2500 N.am   71  GLY71      -0.1954
     23  CA        -6.3770   13.2860  -17.9360 C.3    71  GLY71       0.1869
     24  C         -5.8390   12.6690  -19.2040 C.2    71  GLY71       0.2309
     25  O         -6.5130   12.6540  -20.2320 O.2    71  GLY71      -0.2863
     26  N        -15.6410   15.4470  -32.3660 N.3    87  LYS87      -0.1231
     27  CA       -14.3310   14.8110  -32.3030 C.3    87  LYS87       0.1693
     28  C        -13.2350   15.8570  -32.1180 C.2    87  LYS87       0.2592
     29  O        -12.3540   16.0210  -32.9660 O.2    87  LYS87      -0.2718
     30  CB       -14.0770   13.9730  -33.5570 C.3    87  LYS87       0.0285
     31  CG       -14.9610   12.7390  -33.6540 C.3    87  LYS87       0.0035
     32  CD       -15.3270   12.4270  -35.0970 C.3    87  LYS87       0.0206
     33  CE       -16.4110   11.3660  -35.1790 C.3    87  LYS87       0.1093
     34  NZ       -17.2970   11.5770  -36.3580 N.3    87  LYS87      -0.1314
     35  N        -13.3270   16.5740  -31.0040 N.am   88  GLY88      -0.1957
     36  CA       -12.2830   17.4840  -30.5570 C.3    88  GLY88       0.1869
     37  C        -11.7040   16.9110  -29.2810 C.2    88  GLY88       0.2309
     38  O        -11.7370   15.7000  -29.0800 O.2    88  GLY88      -0.2863
     39  N        -11.4930   16.9410  -24.9650 N.3    90  TYR90      -0.1227
     40  CA       -12.3850   17.1260  -23.8170 C.3    90  TYR90       0.1736
     41  C        -11.6150   17.6210  -22.6020 C.2    90  TYR90       0.2595
     42  O        -10.5490   17.0950  -22.2830 O.2    90  TYR90      -0.2718
     43  CB       -13.0890   15.8020  -23.4650 C.3    90  TYR90       0.0548
     44  CG       -14.2460   15.4490  -24.3720 C.ar   90  TYR90      -0.0200
     45  CD1      -14.0390   15.1600  -25.7130 C.ar   90  TYR90      -0.0009
     46  CD2      -15.5450   15.4070  -23.8870 C.ar   90  TYR90      -0.0009
     47  CE1      -15.0950   14.8450  -26.5500 C.ar   90  TYR90       0.0417
     48  CE2      -16.6110   15.0980  -24.7140 C.ar   90  TYR90       0.0417
     49  CZ       -16.3830   14.8170  -26.0470 C.ar   90  TYR90       0.1957
     50  OH       -17.4410   14.4990  -26.8760 O.3    90  TYR90      -0.2866
     51  N        -12.1740   18.6230  -21.9260 N.am   91  PHE91      -0.1962
     52  CA       -11.6150   19.1640  -20.6890 C.3    91  PHE91       0.1771
     53  C        -12.6410   19.1680  -19.5550 C.2    91  PHE91       0.2619
     54  O        -13.8160   19.5050  -19.7710 O.2    91  PHE91      -0.2715
     55  CB       -11.1150   20.5850  -20.9390 C.3    91  PHE91       0.0574
     56  CG       -10.0630   20.6520  -21.9990 C.ar   91  PHE91      -0.0200
     57  CD1       -8.7360   20.3930  -21.6850 C.ar   91  PHE91      -0.0042
     58  CD2      -10.4020   20.9160  -23.3180 C.ar   91  PHE91      -0.0042
     59  CE1       -7.7640   20.4300  -22.6650 C.ar   91  PHE91      -0.0003
     60  CE2       -9.4320   20.9560  -24.3030 C.ar   91  PHE91      -0.0003
     61  CZ        -8.1090   20.7090  -23.9760 C.ar   91  PHE91      -0.0000
     62  N        -12.1840   18.8050  -18.3530 N.am   92  ALA92      -0.1977
     63  CA       -13.0340   18.7620  -17.1560 C.3    92  ALA92       0.1597
     64  C        -12.9650   20.0330  -16.2860 C.2    92  ALA92       0.2287
     65  O        -11.8790   20.5770  -16.0290 O.2    92  ALA92      -0.2864
     66  CB       -12.6850   17.5500  -16.3140 C.3    92  ALA92       0.0319
     67  N        -13.0900   14.1620  -12.4020 N.3    97  TYR97      -0.1227
     68  CA       -13.4840   13.6220  -13.7050 C.3    97  TYR97       0.1736
     69  C        -12.2350   13.0960  -14.4300 C.2    97  TYR97       0.2596
     70  O        -12.1630   11.9210  -14.8150 O.2    97  TYR97      -0.2718
     71  CB       -14.1880   14.6980  -14.5470 C.3    97  TYR97       0.0548
     72  CG       -15.0420   14.1250  -15.6530 C.ar   97  TYR97      -0.0200
     73  CD1      -14.4630   13.6230  -16.8090 C.ar   97  TYR97      -0.0009
     74  CD2      -16.4240   14.0700  -15.5370 C.ar   97  TYR97      -0.0009
     75  CE1      -15.2290   13.0820  -17.8220 C.ar   97  TYR97       0.0417
     76  CE2      -17.2050   13.5310  -16.5470 C.ar   97  TYR97       0.0417
     77  CZ       -16.5960   13.0310  -17.6880 C.ar   97  TYR97       0.1957
     78  OH       -17.3510   12.4910  -18.7090 O.3    97  TYR97      -0.2866
     79  N        -11.2510   13.9770  -14.5810 N.am   98  SER98      -0.1952
     80  CA       -10.0000   13.6770  -15.2730 C.3    98  SER98       0.1924
     81  C         -9.1560   12.6110  -14.5650 C.2    98  SER98       0.2314
     82  O         -8.4140   11.8780  -15.2160 O.2    98  SER98      -0.2863
     83  CB        -9.1840   14.9630  -15.4150 C.3    98  SER98       0.2116
     84  OG        -9.9650   16.0020  -15.9760 O.3    98  SER98      -0.2180
     85  N         -9.0060    8.0080  -18.3230 N.3   103  TYR103     -0.1241
     86  CA        -8.3520    9.1680  -18.9120 C.3   103  TYR103      0.1605
     87  C         -6.9390    9.3100  -18.3850 C.2   103  TYR103      0.2264
     88  O         -5.9920    9.2380  -19.1570 O.2   103  TYR103     -0.2867
     89  CB        -9.1720   10.4200  -18.6260 C.3   103  TYR103      0.0534
     90  CG       -10.6360   10.2260  -18.9470 C.ar  103  TYR103     -0.0201
     91  CD1      -11.0290    9.6940  -20.1640 C.ar  103  TYR103     -0.0009
     92  CD2      -11.6190   10.5730  -18.0380 C.ar  103  TYR103     -0.0009
     93  CE1      -12.3660    9.5030  -20.4660 C.ar  103  TYR103      0.0417
     94  CE2      -12.9630   10.3950  -18.3330 C.ar  103  TYR103      0.0417
     95  CZ       -13.3270    9.8560  -19.5460 C.ar  103  TYR103      0.1957
     96  OH       -14.6450    9.6720  -19.8430 O.3   103  TYR103     -0.2866
     97  N        -23.8450   14.4990  -29.5720 N.3   129  HIS129     -0.1226
     98  CA       -22.8170   13.5010  -29.8650 C.3   129  HIS129      0.1752
     99  C        -22.7190   13.2310  -31.3700 C.2   129  HIS129      0.2596
    100  O        -23.0920   12.1570  -31.8500 O.2   129  HIS129     -0.2718
    101  CB       -23.0940   12.2050  -29.0920 C.3   129  HIS129      0.0759
    102  CG       -22.4760   12.1660  -27.7280 C.ar  129  HIS129      0.0818
    103  ND1      -21.2270   11.6320  -27.4960 N.ar  129  HIS129     -0.2268
    104  CD2      -22.9390   12.5800  -26.5240 C.ar  129  HIS129      0.1154
    105  CE1      -20.9440   11.7240  -26.2090 C.ar  129  HIS129      0.1986
    106  NE2      -21.9670   12.2930  -25.5970 N.ar  129  HIS129     -0.2212
    107  N        -22.2180   14.2250  -32.1000 N.am  130  SER130     -0.1952
    108  CA       -21.9660   14.1130  -33.5400 C.3   130  SER130      0.1924
    109  C        -21.5060   15.4620  -34.1060 C.2   130  SER130      0.2314
    110  O        -22.1610   16.0370  -34.9770 O.2   130  SER130     -0.2863
    111  CB       -23.2140   13.6040  -34.2820 C.3   130  SER130      0.2116
    112  OG       -23.1080   13.8000  -35.6800 O.3   130  SER130     -0.2180
    113  N        -18.0330   19.6180  -18.2760 N.3   154  LEU154     -0.1245
    114  CA       -16.9840   19.4420  -19.2760 C.3   154  LEU154      0.1561
    115  C        -17.1930   20.3200  -20.5100 C.2   154  LEU154      0.2260
    116  O        -18.3230   20.7580  -20.8150 O.2   154  LEU154     -0.2867
    117  CB       -16.8320   17.9700  -19.6770 C.3   154  LEU154      0.0270
    118  CG       -18.0840   17.1240  -19.8860 C.3   154  LEU154      0.0019
    119  CD1      -18.7420   17.3870  -21.2340 C.3   154  LEU154      0.0001
    120  CD2      -17.6920   15.6630  -19.7670 C.3   154  LEU154      0.0001
@<TRIPOS>BOND
     1    34    33    1
     2   112   111    1
     3    33    32    1
     4    32    31    1
     5   110   109    2
     6   111   108    1
     7   109   108    1
     8    31    30    1
     9    30    27    1
    10   108   107    1
    11    29    28    2
    12    26    27    1
    13    27    28    1
    14    28    35   am
    15   107    99   am
    16   100    99    2
    17    99    98    1
    18    35    36    1
    19    36    37    1
    20    98    97    1
    21    98   101    1
    22    37    38    2
    23   101   102    1
    24   102   103   ar
    25   102   104   ar
    26   103   105   ar
    27    50    49    1
    28    47    49   ar
    29    47    45   ar
    30   104   106   ar
    31   105   106   ar
    32    49    48   ar
    33    45    44   ar
    34    39    40    1
    35    48    46   ar
    36    44    46   ar
    37    44    43    1
    38    60    61   ar
    39    60    58   ar
    40    61    59   ar
    41    40    43    1
    42    40    41    1
    43    58    56   ar
    44    20    21   ar
    45    20    18   ar
    46    21    19   ar
    47    59    57   ar
    48    41    42    2
    49    41    51   am
    50    18    17   ar
    51    56    57   ar
    52    56    55    1
    53    51    52    1
    54    19    17   ar
    55   119   118    1
    56    17    16    1
    57    55    52    1
    58   116   115    2
    59    52    53    1
    60   115   114    1
    61    93    91   ar
    62    93    95   ar
    63    25    24    2
    64    91    90   ar
    65    16    13    1
    66   118   120    1
    67   118   117    1
    68    96    95    1
    69    54    53    2
    70   117   114    1
    71    53    62   am
    72    95    94   ar
    73   114   113    1
    74    24    23    1
    75    88    87    2
    76    90    89    1
    77    90    92   ar
    78    86    89    1
    79    86    87    1
    80    86    85    1
    81    13    14    1
    82    13    12    1
    83    78    77    1
    84    14    22   am
    85    14    15    2
    86    62    63    1
    87    94    92   ar
    88    22    23    1
    89     4     3    2
    90    75    77   ar
    91    75    73   ar
    92    12     3   am
    93    77    76   ar
    94     3     2    1
    95    63    66    1
    96    63    64    1
    97    73    72   ar
    98    76    74   ar
    99     1     2    1
   100    64    65    2
   101     2     5    1
   102    84    83    1
   103    72    74   ar
   104    72    71    1
   105    83    80    1
   106    80    79    1
   107    80    81    1
   108    82    81    2
   109     5     6    1
   110    70    69    2
   111    79    69   am
   112    71    68    1
   113    69    68    1
   114     6     8   ar
   115     6     7   ar
   116    68    67    1
   117     8    10   ar
   118     7     9   ar
   119    10    11   ar
   120     9    11   ar
