@<TRIPOS>MOLECULE
tmp/5v7wA00.pdb
 136 135 0 0 0
SMALL
GASTEIGER

@<TRIPOS>ATOM
      1  N        -28.2410   16.4260   14.6340 N.3    68  PHE68      -0.1227
      2  CA       -28.8310   17.7590   14.5200 C.3    68  PHE68       0.1736
      3  C        -29.7670   18.0740   15.6770 C.2    68  PHE68       0.2595
      4  O        -30.3370   17.1660   16.2850 O.2    68  PHE68      -0.2718
      5  CB       -29.5770   17.9110   13.1900 C.3    68  PHE68       0.0547
      6  CG       -28.7020   17.7650   11.9890 C.ar   68  PHE68      -0.0202
      7  CD1      -27.9750   18.8450   11.5130 C.ar   68  PHE68      -0.0042
      8  CD2      -28.5950   16.5390   11.3340 C.ar   68  PHE68      -0.0042
      9  CE1      -27.1580   18.7130   10.3990 C.ar   68  PHE68      -0.0003
     10  CE2      -27.7830   16.4000   10.2160 C.ar   68  PHE68      -0.0003
     11  CZ       -27.0630   17.4890    9.7490 C.ar   68  PHE68      -0.0000
     12  N        -29.9120   19.3660   15.9710 N.am   69  HIS69      -0.1961
     13  CA       -30.8430   19.8450   16.9810 C.3    69  HIS69       0.1787
     14  C        -31.3780   21.2010   16.5640 C.2    69  HIS69       0.2621
     15  O        -30.6520   22.2000   16.5780 O.2    69  HIS69      -0.2715
     16  CB       -30.1760   19.9470   18.3550 C.3    69  HIS69       0.0785
     17  CG       -31.0960   20.4350   19.4320 C.ar   69  HIS69       0.0821
     18  ND1      -31.7420   19.5840   20.3010 N.ar   69  HIS69      -0.2267
     19  CD2      -31.4960   21.6860   19.7640 C.ar   69  HIS69       0.1154
     20  CE1      -32.4910   20.2890   21.1310 C.ar   69  HIS69       0.1986
     21  NE2      -32.3630   21.5670   20.8230 N.ar   69  HIS69      -0.2212
     22  N        -32.6500   21.2280   16.1840 N.am   70  GLY70      -0.1940
     23  CA       -33.3290   22.4700   15.8440 C.3    70  GLY70       0.2014
     24  C        -33.7470   23.1950   17.1030 C.2    70  GLY70       0.2640
     25  O        -34.1400   22.5680   18.0870 O.2    70  GLY70      -0.2714
     26  N        -33.6480   24.5200   17.0760 N.am   71  THR71      -0.1936
     27  CA       -34.0340   25.3500   18.2090 C.3    71  THR71       0.2028
     28  C        -34.3940   26.7540   17.7410 C.2    71  THR71       0.2642
     29  O        -33.9830   27.1770   16.6560 O.2    71  THR71      -0.2714
     30  CB       -32.9290   25.4060   19.2910 C.3    71  THR71       0.1808
     31  OG1      -33.4360   26.0580   20.4600 O.3    71  THR71      -0.2208
     32  CG2      -31.6890   26.1480   18.7890 C.3    71  THR71       0.0379
     33  N        -35.1700   27.4640   18.5580 N.am   72  ASP72      -0.1971
     34  CA       -35.5010   28.8710   18.3050 C.3    72  ASP72       0.1709
     35  C        -34.2740   29.7830   18.4560 C.2    72  ASP72       0.2293
     36  O        -33.3220   29.4670   19.1870 O.2    72  ASP72      -0.2864
     37  CB       -36.6190   29.3380   19.2460 C.3    72  ASP72       0.1436
     38  CG       -36.2270   29.2490   20.7200 C.2    72  ASP72       0.3671
     39  OD1      -36.6410   30.1250   21.5020 O.co2  72  ASP72      -0.2456
     40  OD2      -35.5030   28.3050   21.1040 O.co2  72  ASP72      -0.2456
     41  N        -32.6660   30.7570   21.8370 N.3    75  SER75      -0.1217
     42  CA       -31.9220   29.7550   22.6010 C.3    75  SER75       0.1889
     43  C        -30.4230   29.7440   22.3280 C.2    75  SER75       0.2288
     44  O        -29.6520   29.1410   23.0830 O.2    75  SER75      -0.2866
     45  CB       -32.4990   28.3660   22.3380 C.3    75  SER75       0.2089
     46  OG       -33.7740   28.2350   22.9360 O.3    75  SER75      -0.2183
     47  N        -33.1780   15.8280   22.8610 N.3    89  TYR89      -0.1227
     48  CA       -33.3030   15.0350   21.6330 C.3    89  TYR89       0.1736
     49  C        -32.3790   15.5280   20.5210 C.2    89  TYR89       0.2595
     50  O        -32.1180   16.7290   20.3950 O.2    89  TYR89      -0.2718
     51  CB       -34.7450   15.0630   21.1210 C.3    89  TYR89       0.0548
     52  CG       -35.7490   14.3510   22.0040 C.ar   89  TYR89      -0.0200
     53  CD1      -36.3360   13.1470   21.5970 C.ar   89  TYR89      -0.0009
     54  CD2      -36.1240   14.8820   23.2440 C.ar   89  TYR89      -0.0009
     55  CE1      -37.2590   12.4920   22.4010 C.ar   89  TYR89       0.0417
     56  CE2      -37.0410   14.2320   24.0540 C.ar   89  TYR89       0.0417
     57  CZ       -37.6000   13.0410   23.6280 C.ar   89  TYR89       0.1957
     58  OH       -38.5090   12.4010   24.4320 O.3    89  TYR89      -0.2866
     59  N        -31.8950   14.5850   19.7160 N.am   90  PHE90      -0.1962
     60  CA       -31.0610   14.8770   18.5560 C.3    90  PHE90       0.1771
     61  C        -31.4860   13.9940   17.3890 C.2    90  PHE90       0.2619
     62  O        -31.8850   12.8480   17.5910 O.2    90  PHE90      -0.2715
     63  CB       -29.5880   14.6420   18.8780 C.3    90  PHE90       0.0574
     64  CG       -29.0830   15.4670   20.0190 C.ar   90  PHE90      -0.0200
     65  CD1      -28.6020   16.7470   19.8050 C.ar   90  PHE90      -0.0042
     66  CD2      -29.0930   14.9630   21.3120 C.ar   90  PHE90      -0.0042
     67  CE1      -28.1350   17.5090   20.8580 C.ar   90  PHE90      -0.0003
     68  CE2      -28.6310   15.7220   22.3730 C.ar   90  PHE90      -0.0003
     69  CZ       -28.1490   16.9970   22.1440 C.ar   90  PHE90      -0.0000
     70  N        -31.4020   14.5310   16.1750 N.am   91  ALA91      -0.1977
     71  CA       -31.8330   13.8100   14.9790 C.3    91  ALA91       0.1597
     72  C        -30.6450   13.3280   14.1630 C.2    91  ALA91       0.2287
     73  O        -29.5990   13.9820   14.1210 O.2    91  ALA91      -0.2864
     74  CB       -32.7270   14.6910   14.1250 C.3    91  ALA91       0.0319
     75  N        -35.5600   16.4310    9.9960 N.3    96  TYR96      -0.1227
     76  CA       -36.3450   16.2020   11.2000 C.3    96  TYR96       0.1736
     77  C        -36.2500   17.4060   12.1460 C.2    96  TYR96       0.2596
     78  O        -37.2570   17.8420   12.7150 O.2    96  TYR96      -0.2718
     79  CB       -35.8520   14.9400   11.9050 C.3    96  TYR96       0.0548
     80  CG       -36.9040   13.8730   12.0530 C.ar   96  TYR96      -0.0200
     81  CD1      -38.0730   14.1170   12.7810 C.ar   96  TYR96      -0.0009
     82  CD2      -36.7310   12.6150   11.4700 C.ar   96  TYR96      -0.0009
     83  CE1      -39.0450   13.1390   12.9240 C.ar   96  TYR96       0.0417
     84  CE2      -37.6970   11.6250   11.6050 C.ar   96  TYR96       0.0417
     85  CZ       -38.8530   11.8920   12.3330 C.ar   96  TYR96       0.1957
     86  OH       -39.8230   10.9220   12.4770 O.3    96  TYR96      -0.2866
     87  N        -35.0360   17.9360   12.2980 N.am   97  SER97      -0.1952
     88  CA       -34.7800   19.0830   13.1670 C.3    97  SER97       0.1924
     89  C        -35.2150   20.3860   12.5030 C.2    97  SER97       0.2314
     90  O        -35.2750   21.4340   13.1510 O.2    97  SER97      -0.2863
     91  CB       -33.2960   19.1530   13.5320 C.3    97  SER97       0.2116
     92  OG       -32.9310   18.0980   14.3990 O.3    97  SER97      -0.2180
     93  N        -41.5700   23.3930   14.7080 N.3   101  THR101     -0.1203
     94  CA       -41.8370   23.3140   16.1420 C.3   101  THR101      0.1994
     95  C        -40.5430   23.3210   16.9420 C.2   101  THR101      0.2617
     96  O        -40.5310   23.7160   18.1130 O.2   101  THR101     -0.2717
     97  CB       -42.6320   22.0520   16.5120 C.3   101  THR101      0.1784
     98  OG1      -43.5180   21.7120   15.4410 O.3   101  THR101     -0.2211
     99  CG2      -43.4370   22.2850   17.7850 C.3   101  THR101      0.0376
    100  N        -39.4580   22.8790   16.3110 N.am  102  TYR102     -0.1975
    101  CA       -38.1590   22.8450   16.9740 C.3   102  TYR102      0.1639
    102  C        -37.3600   24.0940   16.6330 C.2   102  TYR102      0.2290
    103  O        -37.0390   24.8960   17.5150 O.2   102  TYR102     -0.2864
    104  CB       -37.3870   21.5660   16.6210 C.3   102  TYR102      0.0560
    105  CG       -38.1980   20.2950   16.7800 C.ar  102  TYR102     -0.0198
    106  CD1      -38.9200   20.0440   17.9520 C.ar  102  TYR102     -0.0009
    107  CD2      -38.2440   19.3390   15.7570 C.ar  102  TYR102     -0.0009
    108  CE1      -39.6660   18.8850   18.0960 C.ar  102  TYR102      0.0417
    109  CE2      -38.9860   18.1760   15.8930 C.ar  102  TYR102      0.0417
    110  CZ       -39.6890   17.9550   17.0650 C.ar  102  TYR102      0.1957
    111  OH       -40.4250   16.8080   17.2110 O.3   102  TYR102     -0.2866
    112  N        -38.0260   27.2140   15.1750 N.3   104  ARG104     -0.1245
    113  CA       -38.9990   28.2360   14.7620 C.3   104  ARG104      0.1563
    114  C        -38.3650   29.2960   13.8680 C.2   104  ARG104      0.2260
    115  O        -37.2400   29.7180   14.1260 O.2   104  ARG104     -0.2867
    116  CB       -39.6240   28.9320   15.9760 C.3   104  ARG104      0.0307
    117  CG       -40.4440   30.1610   15.5940 C.3   104  ARG104      0.0489
    118  CD       -40.7690   31.0840   16.7560 C.3   104  ARG104      0.2205
    119  NE       -41.7000   30.4450   17.6760 N.pl3 104  ARG104     -0.0865
    120  CZ       -41.3520   29.9070   18.8390 C.cat 104  ARG104      0.5346
    121  NH1      -40.0850   29.9440   19.2530 N.pl3 104  ARG104      0.1354
    122  NH2      -42.2870   29.3370   19.5900 N.pl3 104  ARG104      0.1354
    123  N        -33.3000    6.9980   14.1320 N.3   149  SER149     -0.1202
    124  CA       -33.5100    8.3190   13.5510 C.3   149  SER149      0.2020
    125  C        -33.3290    9.4260   14.5990 C.2   149  SER149      0.2618
    126  O        -33.1300   10.5920   14.2480 O.2   149  SER149     -0.2717
    127  CB       -34.8850    8.4090   12.8940 C.3   149  SER149      0.2103
    128  OG       -35.9010    8.0990   13.8270 O.3   149  SER149     -0.2182
    129  N        -33.3840    9.0530   15.8790 N.am  150  LEU150     -0.1979
    130  CA       -33.1680   10.0040   16.9700 C.3   150  LEU150      0.1596
    131  C        -32.4460    9.3930   18.1710 C.2   150  LEU150      0.2287
    132  O        -32.5810    8.2080   18.4370 O.2   150  LEU150     -0.2864
    133  CB       -34.4950   10.6540   17.4020 C.3   150  LEU150      0.0297
    134  CG       -35.5840    9.8310   18.1010 C.3   150  LEU150      0.0022
    135  CD1      -35.3870    9.8510   19.6070 C.3   150  LEU150      0.0001
    136  CD2      -36.9710   10.3530   17.7550 C.3   150  LEU150      0.0001
@<TRIPOS>BOND
     1    11    10   ar
     2    11     9   ar
     3    75    76    1
     4    10     8   ar
     5     9     7   ar
     6    76    79    1
     7    76    77    1
     8     8     6   ar
     9    82    84   ar
    10    82    80   ar
    11     7     6   ar
    12    84    85   ar
    13    79    80    1
    14     6     5    1
    15    80    81   ar
    16    77    87   am
    17    77    78    2
    18    87    88    1
    19    85    86    1
    20    85    83   ar
    21    89    90    2
    22    89    88    1
    23    81    83   ar
    24   127   124    1
    25   127   128    1
    26    88    91    1
    27     5     2    1
    28    91    92    1
    29   124   123    1
    30   124   125    1
    31   114   115    2
    32   114   113    1
    33    73    72    2
    34    74    71    1
    35    72    71    1
    36   126   125    2
    37     2     1    1
    38     2     3    1
    39   125   129   am
    40    93    94    1
    41   113   112    1
    42   113   116    1
    43    71    70    1
    44    98    97    1
    45   117   116    1
    46   117   118    1
    47     3    12   am
    48     3     4    2
    49   107   109   ar
    50   107   105   ar
    51    23    22    1
    52    23    24    1
    53   129   130    1
    54   109   110   ar
    55    12    13    1
    56    94    97    1
    57    94    95    1
    58    70    61   am
    59    22    14   am
    60   100    95   am
    61   100   101    1
    62    97    99    1
    63    14    15    2
    64    14    13    1
    65   104   105    1
    66   104   101    1
    67   102   101    1
    68   102   103    2
    69    29    28    2
    70   118   119    1
    71   105   106   ar
    72    95    96    2
    73   130   133    1
    74   130   131    1
    75    13    16    1
    76   110   111    1
    77   110   108   ar
    78    26    24   am
    79    26    27    1
    80    24    25    2
    81    61    62    2
    82    61    60    1
    83   133   134    1
    84   119   120    2
    85    28    27    1
    86    28    33   am
    87   136   134    1
    88   106   108   ar
    89   134   135    1
    90   131   132    2
    91    27    30    1
    92    34    35    1
    93    34    33    1
    94    34    37    1
    95    16    17    1
    96    35    36    2
    97    60    63    1
    98    60    59    1
    99    32    30    1
   100   120   121    1
   101   120   122    1
   102    63    64    1
   103    37    38    1
   104    30    31    1
   105    17    19   ar
   106    17    18   ar
   107    59    49   am
   108    19    21   ar
   109    65    64   ar
   110    65    67   ar
   111    64    66   ar
   112    18    20   ar
   113    50    49    2
   114    49    48    1
   115    38    40   ar
   116    38    39   ar
   117    21    20   ar
   118    67    69   ar
   119    51    48    1
   120    51    52    1
   121    66    68   ar
   122    53    52   ar
   123    53    55   ar
   124    48    47    1
   125    41    42    1
   126    52    54   ar
   127    69    68   ar
   128    43    42    1
   129    43    44    2
   130    45    42    1
   131    45    46    1
   132    55    57   ar
   133    54    56   ar
   134    57    56   ar
   135    57    58    1
