@<TRIPOS>MOLECULE
tmp/5v7yA00.pdb
 90 85 0 0 0
SMALL
GASTEIGER

@<TRIPOS>ATOM
      1  N         -4.7210   -0.7410   -9.7490 N.3   109  TYR109     -0.1241
      2  CA        -3.7370   -0.5410  -10.8030 C.3   109  TYR109      0.1605
      3  C         -2.5960   -1.5000  -10.5240 C.2   109  TYR109      0.2264
      4  O         -1.9710   -1.4230   -9.4560 O.2   109  TYR109     -0.2867
      5  CB        -3.1810    0.8860  -10.8450 C.3   109  TYR109      0.0534
      6  CG        -4.1600    2.0240  -11.0690 C.ar  109  TYR109     -0.0201
      7  CD1       -4.8720    2.5680  -10.0130 C.ar  109  TYR109     -0.0009
      8  CD2       -4.3090    2.6000  -12.3210 C.ar  109  TYR109     -0.0009
      9  CE1       -5.7540    3.6340  -10.2030 C.ar  109  TYR109      0.0417
     10  CE2       -5.1920    3.6620  -12.5270 C.ar  109  TYR109      0.0417
     11  CZ        -5.9020    4.1780  -11.4600 C.ar  109  TYR109      0.1957
     12  OH        -6.7680    5.2300  -11.6600 O.3   109  TYR109     -0.2866
     13  N         -4.4110    5.6750  -15.5500 N.3   115  TYR115     -0.1241
     14  CA        -5.7170    6.1760  -15.9730 C.3   115  TYR115      0.1605
     15  C         -5.4600    7.4880  -16.6930 C.2   115  TYR115      0.2264
     16  O         -5.0480    8.4670  -16.0660 O.2   115  TYR115     -0.2867
     17  CB        -6.6700    6.3690  -14.7890 C.3   115  TYR115      0.0534
     18  CG        -8.1520    6.3020  -15.1370 C.ar  115  TYR115     -0.0201
     19  CD1       -8.6240    6.7380  -16.3660 C.ar  115  TYR115     -0.0009
     20  CD2       -9.0720    5.8010  -14.2270 C.ar  115  TYR115     -0.0009
     21  CE1       -9.9740    6.6820  -16.6790 C.ar  115  TYR115      0.0417
     22  CE2      -10.4230    5.7380  -14.5270 C.ar  115  TYR115      0.0417
     23  CZ       -10.8680    6.1740  -15.7540 C.ar  115  TYR115      0.1957
     24  OH       -12.2150    6.1150  -16.0510 O.3   115  TYR115     -0.2866
     25  N         -8.8860   12.6730  -17.8580 N.3   118  HIS118     -0.1241
     26  CA       -10.3000   12.6200  -18.2010 C.3   118  HIS118      0.1621
     27  C        -11.0400   13.5450  -17.2530 C.2   118  HIS118      0.2264
     28  O        -10.5040   13.9740  -16.2290 O.2   118  HIS118     -0.2867
     29  CB       -10.8650   11.2070  -18.0640 C.3   118  HIS118      0.0745
     30  CG       -10.7450   10.6780  -16.6710 C.ar  118  HIS118      0.0817
     31  ND1       -9.5760   10.1350  -16.1900 N.ar  118  HIS118     -0.2268
     32  CD2      -11.6150   10.6810  -15.6340 C.ar  118  HIS118      0.1154
     33  CE1       -9.7390    9.7950  -14.9230 C.ar  118  HIS118      0.1986
     34  NE2      -10.9680   10.1150  -14.5610 N.ar  118  HIS118     -0.2212
     35  N        -11.6540   10.7320   -4.1880 N.3   138  VAL138     -0.1245
     36  CA       -10.7760    9.5890   -4.4600 C.3   138  VAL138      0.1561
     37  C        -10.0410    9.2590   -3.1700 C.2   138  VAL138      0.2260
     38  O         -9.2790   10.0900   -2.6670 O.2   138  VAL138     -0.2867
     39  CB        -9.7710    9.8760   -5.5860 C.3   138  VAL138      0.0252
     40  CG1       -8.6800    8.7930   -5.6100 C.3   138  VAL138      0.0019
     41  CG2      -10.4660    9.9430   -6.9340 C.3   138  VAL138      0.0019
     42  N         -2.3320   11.1400   -8.5210 N.3   150  THR150     -0.1218
     43  CA        -3.5130   11.7560   -9.1200 C.3   150  THR150      0.1862
     44  C         -3.0840   13.1230   -9.6140 C.2   150  THR150      0.2287
     45  O         -2.7620   13.9990   -8.8030 O.2   150  THR150     -0.2866
     46  CB        -4.6520   11.9140   -8.1140 C.3   150  THR150      0.1770
     47  OG1       -4.9470   10.6590   -7.5030 O.3   150  THR150     -0.2211
     48  CG2       -5.9010   12.4360   -8.8290 C.3   150  THR150      0.0375
     49  N         -8.1360   15.3660  -14.9890 N.3   184  HIS184     -0.1226
     50  CA        -7.2590   14.6630  -14.0660 C.3   184  HIS184      0.1752
     51  C         -7.0770   13.2270  -14.5240 C.2   184  HIS184      0.2597
     52  O         -7.9470   12.6510  -15.1790 O.2   184  HIS184     -0.2718
     53  CB        -7.8370   14.6570  -12.6530 C.3   184  HIS184      0.0759
     54  CG        -9.1200   13.8940  -12.5760 C.ar  184  HIS184      0.0818
     55  ND1      -10.3280   14.4440  -12.9430 N.ar  184  HIS184     -0.2268
     56  CD2       -9.3710   12.5990  -12.2690 C.ar  184  HIS184      0.1154
     57  CE1      -11.2780   13.5350  -12.8200 C.ar  184  HIS184      0.1986
     58  NE2      -10.7230   12.4040  -12.4180 N.ar  184  HIS184     -0.2212
     59  N         -5.9520   12.6370  -14.1080 N.am  185  GLY185     -0.1942
     60  CA        -5.6910   11.2400  -14.3780 C.3   185  GLY185      0.2014
     61  C         -4.9440   10.5940  -13.2280 C.2   185  GLY185      0.2639
     62  O         -4.5580   11.2500  -12.2480 O.2   185  GLY185     -0.2714
     63  N         -4.7640    9.2820  -13.3530 N.am  186  GLY186     -0.1954
     64  CA        -3.8920    8.5680  -12.4410 C.3   186  GLY186      0.1869
     65  C         -2.6070    8.2050  -13.1520 C.2   186  GLY186      0.2309
     66  O         -2.6370    7.4880  -14.1570 O.2   186  GLY186     -0.2863
     67  N         -1.6190    0.0040   -6.7610 N.3   194  LYS194     -0.1245
     68  CA        -2.4460    1.1050   -6.2770 C.3   194  LYS194      0.1561
     69  C         -3.8910    0.6480   -6.1990 C.2   194  LYS194      0.2260
     70  O         -4.4070    0.0570   -7.1510 O.2   194  LYS194     -0.2867
     71  CB        -2.3290    2.3280   -7.2020 C.3   194  LYS194      0.0271
     72  CG        -3.2490    3.5250   -6.8760 C.3   194  LYS194      0.0035
     73  CD        -2.9420    4.6890   -7.8230 C.3   194  LYS194      0.0206
     74  CE        -4.0530    5.7210   -7.8940 C.3   194  LYS194      0.1093
     75  NZ        -3.6890    6.7840   -8.8950 N.3   194  LYS194     -0.1314
     76  N         -7.7930    2.2330   -5.0980 N.3   196  ILE196     -0.1245
     77  CA        -8.5590    3.4220   -4.7410 C.3   196  ILE196      0.1561
     78  C        -10.0400    3.1010   -4.6330 C.2   196  ILE196      0.2260
     79  O        -10.5530    2.1750   -5.2660 O.2   196  ILE196     -0.2867
     80  CB        -8.3630    4.6090   -5.7200 C.3   196  ILE196      0.0252
     81  CG1       -8.7930    4.2490   -7.1510 C.3   196  ILE196      0.0019
     82  CG2       -6.9260    5.1350   -5.6180 C.3   196  ILE196      0.0019
     83  CD1       -8.8970    5.4830   -8.1170 C.3   196  ILE196      0.0001
     84  N        -13.5320    5.3750   -5.0960 N.3   198  THR198     -0.1218
     85  CA       -14.0310    6.6500   -5.5940 C.3   198  THR198      0.1862
     86  C        -15.5080    6.7660   -5.2720 C.2   198  THR198      0.2287
     87  O        -16.2770    5.8300   -5.5240 O.2   198  THR198     -0.2866
     88  CB       -13.8420    6.8050   -7.1050 C.3   198  THR198      0.1770
     89  OG1      -12.4660    6.6100   -7.4580 O.3   198  THR198     -0.2211
     90  CG2      -14.2780    8.2100   -7.5430 C.3   198  THR198      0.0375
@<TRIPOS>BOND
     1    26    29    1
     2    26    25    1
     3    26    27    1
     4    29    30    1
     5    27    28    2
     6    15    16    2
     7    15    14    1
     8    21    19   ar
     9    21    23   ar
    10    30    31   ar
    11    30    32   ar
    12    19    18   ar
    13    31    33   ar
    14    24    23    1
    15    14    13    1
    16    14    17    1
    17    23    22   ar
    18    32    34   ar
    19    52    51    2
    20    18    17    1
    21    18    20   ar
    22    49    50    1
    23    33    34   ar
    24    22    20   ar
    25    51    59   am
    26    51    50    1
    27    60    59    1
    28    60    61    1
    29    66    65    2
    30    50    53    1
    31    63    61   am
    32    63    64    1
    33    61    62    2
    34    65    64    1
    35    55    57   ar
    36    55    54   ar
    37    57    58   ar
    38    53    54    1
    39    54    56   ar
    40    10     8   ar
    41    10    11   ar
    42    58    56   ar
    43     8     6   ar
    44    12    11    1
    45    11     9   ar
    46     6     5    1
    47     6     7   ar
    48     5     2    1
    49     2     3    1
    50     2     1    1
    51     3     4    2
    52     9     7   ar
    53    44    43    1
    54    44    45    2
    55    43    42    1
    56    43    46    1
    57    75    74    1
    58    48    46    1
    59    83    81    1
    60    46    47    1
    61    74    73    1
    62    73    72    1
    63    90    88    1
    64    89    88    1
    65    71    72    1
    66    71    68    1
    67    70    69    2
    68    81    80    1
    69    88    85    1
    70    41    39    1
    71    67    68    1
    72    68    69    1
    73    80    82    1
    74    80    77    1
    75    40    39    1
    76    85    86    1
    77    85    84    1
    78    39    36    1
    79    87    86    2
    80    79    78    2
    81    76    77    1
    82    77    78    1
    83    36    35    1
    84    36    37    1
    85    37    38    2
