@<TRIPOS>MOLECULE
tmp/5v80A00.pdb
 169 159 0 0 0
SMALL
GASTEIGER

@<TRIPOS>ATOM
      1  N         16.8940   38.5790   -4.4680 N.3    12  LEU12      -0.1231
      2  CA        18.3040   38.3720   -4.8050 C.3    12  LEU12       0.1693
      3  C         18.4970   37.0840   -5.6060 C.2    12  LEU12       0.2592
      4  O         19.3000   37.0310   -6.5370 O.2    12  LEU12      -0.2718
      5  CB        19.1660   38.3310   -3.5410 C.3    12  LEU12       0.0284
      6  CG        19.3250   39.6480   -2.7820 C.3    12  LEU12       0.0019
      7  CD1       20.2290   39.4490   -1.5740 C.3    12  LEU12       0.0001
      8  CD2       19.8880   40.7240   -3.7070 C.3    12  LEU12       0.0001
      9  N         17.7650   36.0420   -5.2300 N.am   13  GLY13      -0.1957
     10  CA        17.8090   34.7820   -5.9520 C.3    13  GLY13       0.1869
     11  C         16.8750   33.7480   -5.3550 C.2    13  GLY13       0.2309
     12  O         16.2720   33.9680   -4.3000 O.2    13  GLY13      -0.2863
     13  N         17.5530   26.4390   -2.3760 N.3    17  PHE17      -0.1241
     14  CA        17.6450   26.9880   -1.0270 C.3    17  PHE17       0.1605
     15  C         16.3750   27.7070   -0.5570 C.2    17  PHE17       0.2264
     16  O         16.2080   27.9450    0.6390 O.2    17  PHE17      -0.2867
     17  CB        18.8420   27.9370   -0.9310 C.3    17  PHE17       0.0534
     18  CG        18.8500   29.0030   -1.9850 C.ar   17  PHE17      -0.0203
     19  CD1       18.4010   30.2820   -1.7010 C.ar   17  PHE17      -0.0042
     20  CD2       19.2960   28.7230   -3.2680 C.ar   17  PHE17      -0.0042
     21  CE1       18.4050   31.2650   -2.6760 C.ar   17  PHE17      -0.0003
     22  CE2       19.3000   29.7020   -4.2480 C.ar   17  PHE17      -0.0003
     23  CZ        18.8560   30.9750   -3.9510 C.ar   17  PHE17      -0.0000
     24  N         15.4270   34.4010   -1.4720 N.3    20  VAL20      -0.1245
     25  CA        16.1880   35.3250   -0.6490 C.3    20  VAL20       0.1561
     26  C         16.0420   36.7330   -1.1880 C.2    20  VAL20       0.2260
     27  O         16.3260   36.9860   -2.3610 O.2    20  VAL20      -0.2867
     28  CB        17.6830   34.9550   -0.6300 C.3    20  VAL20       0.0252
     29  CG1       18.4430   35.8660    0.3320 C.3    20  VAL20       0.0019
     30  CG2       17.8540   33.5030   -0.2460 C.3    20  VAL20       0.0019
     31  N         19.6840   40.1710    4.3770 N.3    33  ALA33      -0.1245
     32  CA        19.1250   39.2590    3.3890 C.3    33  ALA33       0.1562
     33  C         18.0440   38.4770    4.1030 C.2    33  ALA33       0.2260
     34  O         18.2480   38.0060    5.2170 O.2    33  ALA33      -0.2867
     35  CB        20.2100   38.3130    2.8260 C.3    33  ALA33       0.0290
     36  N         15.6940   35.3110    3.9650 N.3    35  LYS35      -0.1245
     37  CA        15.5540   34.0290    3.3010 C.3    35  LYS35       0.1561
     38  C         14.3000   33.3010    3.7570 C.2    35  LYS35       0.2260
     39  O         14.0760   33.1140    4.9530 O.2    35  LYS35      -0.2867
     40  CB        16.7830   33.1590    3.5560 C.3    35  LYS35       0.0271
     41  CG        16.6670   31.7690    2.9680 C.3    35  LYS35       0.0035
     42  CD        17.9520   30.9730    3.1920 C.3    35  LYS35       0.0206
     43  CE        17.7630   29.5100    2.8240 C.3    35  LYS35       0.1093
     44  NZ        19.0620   28.8000    2.7070 N.3    35  LYS35      -0.1314
     45  N         28.5930   34.0560    6.7130 N.3    72  ILE72      -0.1245
     46  CA        27.4580   34.9670    6.8300 C.3    72  ILE72       0.1561
     47  C         26.6620   34.6420    8.0960 C.2    72  ILE72       0.2260
     48  O         26.2370   33.5010    8.2970 O.2    72  ILE72      -0.2867
     49  CB        26.5430   34.9230    5.5880 C.3    72  ILE72       0.0252
     50  CG1       27.2430   35.5650    4.3910 C.3    72  ILE72       0.0019
     51  CG2       25.2600   35.6970    5.8350 C.3    72  ILE72       0.0019
     52  CD1       27.3920   37.0750    4.5100 C.3    72  ILE72       0.0001
     53  N         19.6140   37.3600    7.5580 N.3    88  LEU88      -0.1231
     54  CA        21.0400   37.1220    7.4300 C.3    88  LEU88       0.1693
     55  C         21.7550   38.4180    7.1340 C.2    88  LEU88       0.2592
     56  O         21.1800   39.3420    6.5660 O.2    88  LEU88      -0.2718
     57  CB        21.3090   36.1270    6.3000 C.3    88  LEU88       0.0284
     58  CG        20.6760   34.7490    6.4900 C.3    88  LEU88       0.0019
     59  CD1       20.4410   34.0840    5.1500 C.3    88  LEU88       0.0001
     60  CD2       21.5810   33.8950    7.3590 C.3    88  LEU88       0.0001
     61  N         23.0170   38.4650    7.5330 N.am   89  GLU89      -0.1966
     62  CA        23.9130   39.5610    7.2130 C.3    89  GLU89       0.1733
     63  C         23.9270   39.7610    5.6980 C.2    89  GLU89       0.2616
     64  O         23.8550   38.7920    4.9480 O.2    89  GLU89      -0.2715
     65  CB        25.3020   39.1920    7.7480 C.3    89  GLU89       0.0429
     66  CG        26.4510   40.0910    7.3630 C.3    89  GLU89       0.1163
     67  CD        27.7630   39.6580    8.0260 C.2    89  GLU89       0.3649
     68  OE1       27.8200   38.5330    8.5830 O.co2  89  GLU89      -0.2457
     69  OE2       28.7360   40.4450    7.9920 O.co2  89  GLU89      -0.2457
     70  N         23.9720   41.0090    5.2430 N.am   90  ARG90      -0.1964
     71  CA        24.1980   41.2790    3.8170 C.3    90  ARG90       0.1714
     72  C         25.2750   42.3440    3.5800 C.2    90  ARG90       0.2458
     73  O         25.0620   43.5240    3.8630 O.2    90  ARG90      -0.2730
     74  CB        22.9040   41.6800    3.0930 C.3    90  ARG90       0.0347
     75  CG        23.1570   42.2090    1.6730 C.3    90  ARG90       0.0492
     76  CD        21.8580   42.4610    0.9180 C.3    90  ARG90       0.2205
     77  NE        21.0650   43.5440    1.5040 N.pl3  90  ARG90      -0.0865
     78  CZ        21.1230   44.8060    1.0850 C.cat  90  ARG90       0.5346
     79  NH1       21.9400   45.1300    0.0890 N.pl3  90  ARG90       0.1354
     80  NH2       20.3660   45.7390    1.6510 N.pl3  90  ARG90       0.1354
     81  N         26.4330   41.9240    3.0490 N.am   91  PRO91      -0.2716
     82  CA        27.5120   42.8510    2.6990 C.3    91  PRO91       0.1536
     83  C         27.1320   43.6600    1.4750 C.2    91  PRO91       0.2598
     84  O         26.3080   43.2170    0.6750 O.2    91  PRO91      -0.2715
     85  CB        28.6840   41.9220    2.3460 C.3    91  PRO91       0.0310
     86  CG        28.2990   40.5700    2.8600 C.3    91  PRO91       0.0237
     87  CD        26.8080   40.5230    2.7990 C.3    91  PRO91       0.0939
     88  N         27.7380   44.8310    1.3220 N.am   92  GLU92      -0.1978
     89  CA        27.4230   45.7070    0.2030 C.3    92  GLU92       0.1602
     90  C         28.5570   46.7090    0.0220 C.2    92  GLU92       0.2287
     91  O         28.8990   47.4270    0.9560 O.2    92  GLU92      -0.2864
     92  CB        26.0920   46.4310    0.4660 C.3    92  GLU92       0.0415
     93  CG        25.7440   47.5410   -0.5360 C.3    92  GLU92       0.1163
     94  CD        25.6190   47.0400   -1.9700 C.2    92  GLU92       0.3649
     95  OE1       25.4470   45.8150   -2.1630 O.co2  92  GLU92      -0.2457
     96  OE2       25.7020   47.8690   -2.9050 O.co2  92  GLU92      -0.2457
     97  N         28.6310   43.6490   -2.9510 N.3    94  VAL94      -0.1231
     98  CA        28.9690   42.2590   -2.9040 C.3    94  VAL94       0.1692
     99  C         28.7770   41.6320   -4.2620 C.2    94  VAL94       0.2592
    100  O         28.0200   42.1340   -5.0520 O.2    94  VAL94      -0.2718
    101  CB        28.0590   41.5760   -1.9120 C.3    94  VAL94       0.0266
    102  CG1       26.7090   41.6590   -2.3920 C.3    94  VAL94       0.0020
    103  CG2       28.4010   40.1890   -1.7810 C.3    94  VAL94       0.0020
    104  N         29.4890   40.5470   -4.5220 N.am   95  GLN95      -0.1966
    105  CA        29.2760   39.7170   -5.7040 C.3    95  GLN95       0.1733
    106  C         29.6690   38.3040   -5.3200 C.2    95  GLN95       0.2616
    107  O         30.6590   38.1110   -4.6070 O.2    95  GLN95      -0.2715
    108  CB        30.1280   40.1850   -6.8860 C.3    95  GLN95       0.0408
    109  CG        29.8720   39.4040   -8.1820 C.3    95  GLN95       0.0908
    110  CD        30.6750   39.9490   -9.3680 C.2    95  GLN95       0.2608
    111  OE1       31.8610   40.2500   -9.2380 O.2    95  GLN95      -0.2717
    112  NE2       30.0220   40.0880  -10.5240 N.am   95  GLN95      -0.0878
    113  N         28.8930   37.3120   -5.7510 N.am   96  ASP96      -0.1971
    114  CA        29.2400   35.9470   -5.3930 C.3    96  ASP96       0.1709
    115  C         30.4090   35.4780   -6.2560 C.2    96  ASP96       0.2293
    116  O         30.6780   36.0580   -7.3060 O.2    96  ASP96      -0.2864
    117  CB        28.0290   34.9950   -5.3930 C.3    96  ASP96       0.1436
    118  CG        27.5780   34.5940   -6.7820 C.2    96  ASP96       0.3671
    119  OD1       26.4630   34.0420   -6.8920 O.co2  96  ASP96      -0.2456
    120  OD2       28.3240   34.8060   -7.7550 O.co2  96  ASP96      -0.2456
    121  N         29.7470   34.4890  -10.0260 N.3    99  ASP99      -0.1239
    122  CA        29.5880   35.5900  -10.9710 C.3    99  ASP99       0.1674
    123  C         30.9230   36.2800  -11.1920 C.2    99  ASP99       0.2266
    124  O         31.2160   36.7550  -12.2890 O.2    99  ASP99      -0.2867
    125  CB        28.5510   36.6000  -10.4790 C.3    99  ASP99       0.1410
    126  CG        27.1370   36.0620  -10.5370 C.2    99  ASP99       0.3668
    127  OD1       26.8950   35.0930  -11.2880 O.co2  99  ASP99      -0.2456
    128  OD2       26.2660   36.6110   -9.8330 O.co2  99  ASP99      -0.2456
    129  N         29.2290   29.4060   -5.9030 N.3   139  GLU139     -0.1231
    130  CA        27.9000   30.0070   -5.7010 C.3   139  GLU139      0.1699
    131  C         27.5470   30.2300   -4.2350 C.2   139  GLU139      0.2592
    132  O         26.6240   30.9760   -3.9190 O.2   139  GLU139     -0.2718
    133  CB        26.8080   29.1280   -6.3040 C.3   139  GLU139      0.0402
    134  CG        26.7480   29.1330   -7.8080 C.3   139  GLU139      0.1161
    135  CD        25.6910   28.1750   -8.3320 C.2   139  GLU139      0.3649
    136  OE1       24.5790   28.6450   -8.6690 O.co2 139  GLU139     -0.2457
    137  OE2       25.9740   26.9560   -8.3970 O.co2 139  GLU139     -0.2457
    138  N         28.2610   29.5550   -3.3420 N.am  140  ASN140     -0.1974
    139  CA        27.9840   29.6720   -1.9190 C.3   140  ASN140      0.1688
    140  C         29.0500   30.4850   -1.2260 C.2   140  ASN140      0.2292
    141  O         29.2340   30.3850   -0.0050 O.2   140  ASN140     -0.2864
    142  CB        27.8390   28.2820   -1.2790 C.3   140  ASN140      0.1181
    143  CG        26.5370   27.6090   -1.6680 C.2   140  ASN140      0.2629
    144  OD1       25.5870   28.2930   -2.0290 O.2   140  ASN140     -0.2716
    145  ND2       26.4800   26.2690   -1.5920 N.am  140  ASN140     -0.0877
    146  N         30.3450   34.6060   -0.9850 N.3   142  LEU142     -0.1245
    147  CA        30.1860   36.0140   -1.3130 C.3   142  LEU142      0.1561
    148  C         31.4980   36.7410   -1.1240 C.2   142  LEU142      0.2260
    149  O         32.2620   36.4470   -0.1960 O.2   142  LEU142     -0.2867
    150  CB        29.1160   36.6690   -0.4310 C.3   142  LEU142      0.0270
    151  CG        27.7080   36.0950   -0.5830 C.3   142  LEU142      0.0019
    152  CD1       26.7420   36.7460    0.3980 C.3   142  LEU142      0.0001
    153  CD2       27.2350   36.2630   -2.0240 C.3   142  LEU142      0.0001
    154  N         28.0720   31.0980    2.4920 N.3   153  ILE153     -0.1231
    155  CA        26.6230   31.1590    2.6610 C.3   153  ILE153      0.1692
    156  C         25.9780   29.8100    2.3990 C.2   153  ILE153      0.2592
    157  O         26.6190   28.8960    1.8790 O.2   153  ILE153     -0.2718
    158  CB        25.9700   32.1900    1.7090 C.3   153  ILE153      0.0266
    159  CG1       26.2710   31.8250    0.2510 C.3   153  ILE153      0.0019
    160  CG2       26.4460   33.6020    2.0510 C.3   153  ILE153      0.0020
    161  CD1       25.5370   32.6890   -0.7920 C.3   153  ILE153      0.0001
    162  N         24.7030   29.7070    2.7660 N.am  154  ASP154     -0.1974
    163  CA        23.8710   28.5330    2.4960 C.3   154  ASP154      0.1709
    164  C         24.2870   27.2650    3.2490 C.2   154  ASP154      0.2293
    165  O         24.9940   26.4140    2.7170 O.2   154  ASP154     -0.2864
    166  CB        23.7770   28.2580    0.9920 C.3   154  ASP154      0.1436
    167  CG        22.7980   27.1340    0.6620 C.2   154  ASP154      0.3671
    168  OD1       22.0240   26.7220    1.5600 O.co2 154  ASP154     -0.2456
    169  OD2       22.7970   26.6740   -0.5000 O.co2 154  ASP154     -0.2456
@<TRIPOS>BOND
     1   124   123    2
     2   127   126   ar
     3   123   122    1
     4   122   125    1
     5   122   121    1
     6   126   125    1
     7   126   128   ar
     8   112   110   am
     9   110   111    2
    10   110   109    1
    11   136   135   ar
    12   137   135   ar
    13   135   134    1
    14   109   108    1
    15   134   133    1
    16   120   118   ar
    17   116   115    2
    18   119   118   ar
    19   108   105    1
    20   118   117    1
    21     4     3    2
    22   133   130    1
    23   115   114    1
    24    10    11    1
    25    10     9    1
    26   129   130    1
    27   113   114    1
    28   113   106   am
    29   105   106    1
    30   105   104    1
    31   130   131    1
    32     3     9   am
    33     3     2    1
    34   117   114    1
    35    11    12    2
    36   106   107    2
    37   100    99    2
    38     2     1    1
    39     2     5    1
    40   104    99   am
    41    99    98    1
    42    22    23   ar
    43    22    20   ar
    44   131   132    2
    45   131   138   am
    46    23    21   ar
    47     8     6    1
    48     5     6    1
    49   138   139    1
    50    20    18   ar
    51    97    98    1
    52    96    94   ar
    53    98   101    1
    54     6     7    1
    55    21    19   ar
    56   102   101    1
    57    13    14    1
    58    27    26    2
    59    95    94   ar
    60   144   143    2
    61   153   151    1
    62    18    19   ar
    63    18    17    1
    64    94    93    1
    65   139   142    1
    66   139   140    1
    67   101   103    1
    68   143   145   am
    69   143   142    1
    70    24    25    1
    71   147   148    1
    72   147   146    1
    73   147   150    1
    74   140   141    2
    75    26    25    1
    76   148   149    2
    77    14    17    1
    78    14    15    1
    79   161   159    1
    80    25    28    1
    81    28    30    1
    82    28    29    1
    83   151   150    1
    84   151   152    1
    85    15    16    2
    86    93    92    1
    87   169   167   ar
    88    90    89    1
    89    90    91    2
    90    79    78    1
    91    89    92    1
    92    89    88    1
    93   159   158    1
    94   167   166    1
    95   167   168   ar
    96    84    83    2
    97    76    77    1
    98    76    75    1
    99   166   163    1
   100    78    77    2
   101    78    80    1
   102    88    83   am
   103    83    82    1
   104    75    74    1
   105   158   160    1
   106   158   155    1
   107   157   156    2
   108    85    82    1
   109    85    86    1
   110   156   155    1
   111   156   162   am
   112   154   155    1
   113   163   162    1
   114   163   164    1
   115    82    81    1
   116    44    43    1
   117   165   164    2
   118    87    86    1
   119    87    81    1
   120    43    42    1
   121    35    32    1
   122    41    42    1
   123    41    40    1
   124    81    72   am
   125    74    71    1
   126    37    40    1
   127    37    38    1
   128    37    36    1
   129    32    33    1
   130    32    31    1
   131    72    71    1
   132    72    73    2
   133    38    39    2
   134    71    70    1
   135    33    34    2
   136    50    52    1
   137    50    49    1
   138    64    63    2
   139    59    58    1
   140    70    63   am
   141    49    51    1
   142    49    46    1
   143    63    62    1
   144    57    58    1
   145    57    54    1
   146    58    60    1
   147    56    55    2
   148    45    46    1
   149    46    47    1
   150    55    54    1
   151    55    61   am
   152    62    61    1
   153    62    65    1
   154    66    65    1
   155    66    67    1
   156    54    53    1
   157    69    67   ar
   158    67    68   ar
   159    47    48    2
