@<TRIPOS>MOLECULE
tmp/5v82A00.pdb
 169 158 0 0 0
SMALL
GASTEIGER

@<TRIPOS>ATOM
      1  N        -16.6270   38.3180    3.6710 N.3    11  LEU11      -0.1231
      2  CA       -18.0170   38.1590    4.0640 C.3    11  LEU11       0.1693
      3  C        -18.2150   36.8660    4.8460 C.2    11  LEU11       0.2592
      4  O        -19.0460   36.7980    5.7500 O.2    11  LEU11      -0.2718
      5  CB       -18.9360   38.1820    2.8390 C.3    11  LEU11       0.0284
      6  CG       -19.0400   39.5350    2.1280 C.3    11  LEU11       0.0019
      7  CD1      -19.7910   39.3900    0.8110 C.3    11  LEU11       0.0001
      8  CD2      -19.7350   40.5440    3.0280 C.3    11  LEU11       0.0001
      9  N        -17.4490   35.8410    4.4940 N.am   12  GLY12      -0.1957
     10  CA       -17.5740   34.5440    5.1330 C.3    12  GLY12       0.1869
     11  C        -16.6610   33.5230    4.4900 C.2    12  GLY12       0.2309
     12  O        -16.1940   33.7150    3.3640 O.2    12  GLY12      -0.2863
     13  N        -16.9280   25.9370    1.6300 N.3    16  PHE16      -0.1241
     14  CA       -17.1570   26.4360    0.2800 C.3    16  PHE16       0.1605
     15  C        -15.9960   27.2710   -0.2760 C.2    16  PHE16       0.2264
     16  O        -15.9480   27.5360   -1.4810 O.2    16  PHE16      -0.2867
     17  CB       -18.4260   27.2850    0.2550 C.3    16  PHE16       0.0534
     18  CG       -18.4630   28.3410    1.3280 C.ar   16  PHE16      -0.0203
     19  CD1      -17.8880   29.5870    1.1150 C.ar   16  PHE16      -0.0042
     20  CD2      -19.0620   28.0800    2.5560 C.ar   16  PHE16      -0.0042
     21  CE1      -17.9190   30.5570    2.1020 C.ar   16  PHE16      -0.0003
     22  CE2      -19.1000   29.0470    3.5490 C.ar   16  PHE16      -0.0003
     23  CZ       -18.5290   30.2880    3.3180 C.ar   16  PHE16      -0.0000
     24  N        -15.2580   34.0200    0.6650 N.3    19  VAL19      -0.1245
     25  CA       -16.0470   34.9760   -0.0950 C.3    19  VAL19       0.1561
     26  C        -15.8730   36.3890    0.4370 C.2    19  VAL19       0.2260
     27  O        -16.1150   36.6470    1.6250 O.2    19  VAL19      -0.2867
     28  CB       -17.5480   34.6070   -0.0770 C.3    19  VAL19       0.0252
     29  CG1      -18.3350   35.5980   -0.9010 C.3    19  VAL19       0.0019
     30  CG2      -17.7410   33.2050   -0.6210 C.3    19  VAL19       0.0019
     31  N        -19.4750   40.0890   -5.2270 N.3    32  ALA32      -0.1245
     32  CA       -18.8660   39.1820   -4.2590 C.3    32  ALA32       0.1562
     33  C        -17.7620   38.4420   -4.9880 C.2    32  ALA32       0.2260
     34  O        -17.8900   38.1060   -6.1620 O.2    32  ALA32      -0.2867
     35  CB       -19.9040   38.1910   -3.6960 C.3    32  ALA32       0.0290
     36  N        -15.4660   35.1760   -4.8440 N.3    34  LYS34      -0.1245
     37  CA       -15.3350   33.8700   -4.2080 C.3    34  LYS34       0.1561
     38  C        -14.0830   33.1320   -4.6630 C.2    34  LYS34       0.2260
     39  O        -13.8670   32.9270   -5.8640 O.2    34  LYS34      -0.2867
     40  CB       -16.5710   33.0140   -4.4990 C.3    34  LYS34       0.0271
     41  CG       -16.5090   31.6210   -3.8960 C.3    34  LYS34       0.0035
     42  CD       -17.7660   30.8250   -4.2520 C.3    34  LYS34       0.0206
     43  CE       -17.7150   29.4120   -3.6920 C.3    34  LYS34       0.1093
     44  NZ       -19.0450   28.7160   -3.8270 N.3    34  LYS34      -0.1314
     45  N        -19.0920   24.0250  -10.5880 N.3    56  GLU56      -0.1245
     46  CA       -19.7920   25.1980  -10.0740 C.3    56  GLU56       0.1567
     47  C        -19.9310   26.3120  -11.1230 C.2    56  GLU56       0.2260
     48  O        -20.9770   26.9420  -11.2350 O.2    56  GLU56      -0.2867
     49  CB       -19.0770   25.7440   -8.8260 C.3    56  GLU56       0.0388
     50  CG       -19.7620   26.9400   -8.1940 C.3    56  GLU56       0.1160
     51  CD       -19.0600   27.4330   -6.9230 C.2    56  GLU56       0.3649
     52  OE1      -18.0260   26.8530   -6.5180 O.co2  56  GLU56      -0.2457
     53  OE2      -19.5570   28.4040   -6.3270 O.co2  56  GLU56      -0.2457
     54  N        -28.2720   34.2010   -7.5820 N.3    71  ILE71      -0.1245
     55  CA       -27.1710   35.1730   -7.6910 C.3    71  ILE71       0.1561
     56  C        -26.3460   34.8170   -8.9100 C.2    71  ILE71       0.2260
     57  O        -25.8190   33.7100   -8.9960 O.2    71  ILE71      -0.2867
     58  CB       -26.2600   35.1860   -6.4370 C.3    71  ILE71       0.0252
     59  CG1      -26.9780   35.8340   -5.2550 C.3    71  ILE71       0.0019
     60  CG2      -24.9020   35.8870   -6.7410 C.3    71  ILE71       0.0019
     61  CD1      -26.9560   37.3330   -5.2600 C.3    71  ILE71       0.0001
     62  N        -19.3460   37.4020   -8.4570 N.3    87  LEU87      -0.1231
     63  CA       -20.7960   37.1960   -8.3610 C.3    87  LEU87       0.1693
     64  C        -21.4910   38.5060   -8.0450 C.2    87  LEU87       0.2592
     65  O        -20.9070   39.4000   -7.4430 O.2    87  LEU87      -0.2718
     66  CB       -21.1070   36.1810   -7.2600 C.3    87  LEU87       0.0284
     67  CG       -20.4810   34.8130   -7.5650 C.3    87  LEU87       0.0019
     68  CD1      -19.8930   34.1790   -6.3220 C.3    87  LEU87       0.0001
     69  CD2      -21.5150   33.8810   -8.1950 C.3    87  LEU87       0.0001
     70  N        -22.7500   38.6210   -8.4410 N.am   88  GLU88      -0.1966
     71  CA       -23.5040   39.8190   -8.1180 C.3    88  GLU88       0.1733
     72  C        -23.6410   39.9040   -6.6080 C.2    88  GLU88       0.2616
     73  O        -23.5850   38.8870   -5.9290 O.2    88  GLU88      -0.2715
     74  CB       -24.8650   39.7930   -8.8240 C.3    88  GLU88       0.0429
     75  CG       -26.0200   39.4670   -7.9360 C.3    88  GLU88       0.1163
     76  CD       -27.3390   39.2670   -8.6860 C.2    88  GLU88       0.3649
     77  OE1      -27.3470   38.5200   -9.6930 O.co2  88  GLU88      -0.2457
     78  OE2      -28.3760   39.8270   -8.2550 O.co2  88  GLU88      -0.2457
     79  N        -23.7770   41.1130   -6.0750 N.am   89  ARG89      -0.1964
     80  CA       -23.9830   41.2730   -4.6380 C.3    89  ARG89       0.1714
     81  C        -25.0490   42.3350   -4.3990 C.2    89  ARG89       0.2458
     82  O        -24.8220   43.5200   -4.6730 O.2    89  ARG89      -0.2730
     83  CB       -22.6800   41.6710   -3.9120 C.3    89  ARG89       0.0347
     84  CG       -22.8990   42.0390   -2.4350 C.3    89  ARG89       0.0492
     85  CD       -21.6010   42.3770   -1.7040 C.3    89  ARG89       0.2205
     86  NE       -20.8470   43.4840   -2.3140 N.pl3  89  ARG89      -0.0865
     87  CZ       -20.9370   44.7560   -1.9240 C.cat  89  ARG89       0.5346
     88  NH1      -20.2000   45.6860   -2.5170 N.pl3  89  ARG89       0.1354
     89  NH2      -21.7520   45.1060   -0.9310 N.pl3  89  ARG89       0.1354
     90  N        -26.2240   41.9210   -3.9010 N.am   90  PRO90      -0.2727
     91  CA       -27.2640   42.8910   -3.5390 C.3    90  PRO90       0.1402
     92  C        -26.7920   43.7040   -2.3500 C.2    90  PRO90       0.2269
     93  O        -25.9870   43.2100   -1.5530 O.2    90  PRO90      -0.2865
     94  CB       -28.4450   42.0050   -3.1070 C.3    90  PRO90       0.0296
     95  CG       -28.1290   40.6300   -3.6360 C.3    90  PRO90       0.0237
     96  CD       -26.6330   40.5390   -3.6090 C.3    90  PRO90       0.0939
     97  N        -28.1140   43.6350    2.0950 N.3    93  VAL93      -0.1231
     98  CA       -28.4530   42.2140    1.9980 C.3    93  VAL93       0.1692
     99  C        -28.2340   41.5560    3.3600 C.2    93  VAL93       0.2592
    100  O        -27.4680   42.0540    4.1880 O.2    93  VAL93      -0.2718
    101  CB       -27.5890   41.5400    0.9100 C.3    93  VAL93       0.0266
    102  CG1      -26.1290   41.4730    1.3520 C.3    93  VAL93       0.0020
    103  CG2      -28.1180   40.1600    0.5500 C.3    93  VAL93       0.0020
    104  N        -28.9350   40.4580    3.6150 N.am   94  GLN94      -0.1966
    105  CA       -28.6790   39.6510    4.8040 C.3    94  GLN94       0.1733
    106  C        -29.0790   38.2370    4.4630 C.2    94  GLN94       0.2616
    107  O        -30.1160   38.0430    3.8280 O.2    94  GLN94      -0.2715
    108  CB       -29.5170   40.1240    5.9780 C.3    94  GLN94       0.0408
    109  CG       -29.2070   39.3680    7.2740 C.3    94  GLN94       0.0908
    110  CD       -29.9340   39.9330    8.4810 C.2    94  GLN94       0.2608
    111  OE1      -31.1150   40.2480    8.4120 O.2    94  GLN94      -0.2717
    112  NE2      -29.2250   40.0530    9.5960 N.am   94  GLN94      -0.0878
    113  N        -28.2810   37.2480    4.8610 N.am   95  ASP95      -0.1971
    114  CA       -28.6820   35.8740    4.5570 C.3    95  ASP95       0.1709
    115  C        -29.8150   35.4290    5.4750 C.2    95  ASP95       0.2293
    116  O        -30.0350   36.0170    6.5330 O.2    95  ASP95      -0.2864
    117  CB       -27.4920   34.8870    4.4640 C.3    95  ASP95       0.1436
    118  CG       -26.9450   34.4240    5.8210 C.2    95  ASP95       0.3671
    119  OD1      -25.7830   33.9580    5.8290 O.co2  95  ASP95      -0.2456
    120  OD2      -27.6390   34.4660    6.8560 O.co2  95  ASP95      -0.2456
    121  N        -29.0080   34.4520    9.1610 N.3    98  ASP98      -0.1239
    122  CA       -28.8240   35.5750   10.0770 C.3    98  ASP98       0.1674
    123  C        -30.1550   36.2320   10.3890 C.2    98  ASP98       0.2266
    124  O        -30.3940   36.6860   11.5100 O.2    98  ASP98      -0.2867
    125  CB       -27.8840   36.6160    9.4790 C.3    98  ASP98       0.1410
    126  CG       -26.4310   36.1750    9.4880 C.2    98  ASP98       0.3668
    127  OD1      -26.1040   35.1690   10.1570 O.co2  98  ASP98      -0.2456
    128  OD2      -25.6100   36.8540    8.8280 O.co2  98  ASP98      -0.2456
    129  N        -28.6490   29.4050    5.1310 N.3   138  GLU138     -0.1231
    130  CA       -27.3620   30.0510    4.9070 C.3   138  GLU138      0.1699
    131  C        -27.1130   30.3480    3.4350 C.2   138  GLU138      0.2592
    132  O        -26.3460   31.2580    3.0950 O.2   138  GLU138     -0.2718
    133  CB       -26.2250   29.1730    5.4350 C.3   138  GLU138      0.0402
    134  CG       -26.2850   28.9440    6.9380 C.3   138  GLU138      0.1161
    135  CD       -25.1750   28.0220    7.4090 C.2   138  GLU138      0.3649
    136  OE1      -24.0840   28.5330    7.7420 O.co2 138  GLU138     -0.2457
    137  OE2      -25.3940   26.7900    7.4300 O.co2 138  GLU138     -0.2457
    138  N        -27.7570   29.5830    2.5560 N.am  139  ASN139     -0.1974
    139  CA       -27.5330   29.7520    1.1160 C.3   139  ASN139      0.1688
    140  C        -28.6440   30.5370    0.4310 C.2   139  ASN139      0.2292
    141  O        -28.8630   30.4300   -0.7740 O.2   139  ASN139     -0.2864
    142  CB       -27.3190   28.3990    0.4310 C.3   139  ASN139      0.1181
    143  CG       -26.0020   27.7580    0.8270 C.2   139  ASN139      0.2629
    144  OD1      -25.0520   28.4630    1.1610 O.2   139  ASN139     -0.2716
    145  ND2      -25.9310   26.4210    0.7770 N.am  139  ASN139     -0.0877
    146  N        -29.9690   34.5940    0.1640 N.3   141  LEU141     -0.1245
    147  CA       -29.7700   36.0100    0.4670 C.3   141  LEU141      0.1561
    148  C        -31.0760   36.7560    0.3240 C.2   141  LEU141      0.2260
    149  O        -31.8430   36.4930   -0.6040 O.2   141  LEU141     -0.2867
    150  CB       -28.7820   36.6270   -0.5210 C.3   141  LEU141      0.0270
    151  CG       -27.3470   36.1180   -0.4710 C.3   141  LEU141      0.0019
    152  CD1      -26.4790   36.9710   -1.3890 C.3   141  LEU141      0.0001
    153  CD2      -26.8760   36.1830    0.9730 C.3   141  LEU141      0.0001
    154  N        -27.6050   31.1560   -3.3720 N.3   152  ILE152     -0.1231
    155  CA       -26.1580   31.1760   -3.5380 C.3   152  ILE152      0.1692
    156  C        -25.5460   29.8030   -3.3070 C.2   152  ILE152      0.2592
    157  O        -26.2060   28.8790   -2.8120 O.2   152  ILE152     -0.2718
    158  CB       -25.4800   32.1600   -2.5520 C.3   152  ILE152      0.0266
    159  CG1      -25.8960   31.8440   -1.1150 C.3   152  ILE152      0.0019
    160  CG2      -25.8360   33.5860   -2.9040 C.3   152  ILE152      0.0020
    161  CD1      -25.1750   32.6680   -0.0610 C.3   152  ILE152      0.0001
    162  N        -24.2680   29.6940   -3.6120 N.am  153  ASP153     -0.1974
    163  CA       -23.4860   28.4910   -3.4370 C.3   153  ASP153      0.1709
    164  C        -23.8290   27.2480   -4.2290 C.2   153  ASP153      0.2293
    165  O        -24.4340   26.3590   -3.7100 O.2   153  ASP153     -0.2864
    166  CB       -23.3020   28.1230   -1.9830 C.3   153  ASP153      0.1436
    167  CG       -22.2000   27.1130   -1.7870 C.2   153  ASP153      0.3671
    168  OD1      -21.5090   26.8130   -2.7410 O.co2 153  ASP153     -0.2456
    169  OD2      -21.9990   26.6530   -0.6790 O.co2 153  ASP153     -0.2456
@<TRIPOS>BOND
     1    48    47    2
     2    47    46    1
     3    45    46    1
     4    46    49    1
     5    77    76   ar
     6    57    56    2
     7    56    55    1
     8    49    50    1
     9    74    71    1
    10    74    75    1
    11    76    78   ar
    12    76    75    1
    13    62    63    1
    14    70    71    1
    15    70    64   am
    16    63    64    1
    17    63    66    1
    18    69    67    1
    19    50    51    1
    20    71    72    1
    21    64    65    2
    22    55    54    1
    23    55    58    1
    24    67    66    1
    25    67    68    1
    26    51    52   ar
    27    51    53   ar
    28    60    58    1
    29    72    79   am
    30    72    73    2
    31    58    59    1
    32    34    33    2
    33    79    80    1
    34    39    38    2
    35    61    59    1
    36    31    32    1
    37    33    32    1
    38    36    37    1
    39    82    81    2
    40    38    37    1
    41    80    81    1
    42    80    83    1
    43    40    37    1
    44    40    41    1
    45    81    90   am
    46    32    35    1
    47    42    41    1
    48    42    43    1
    49   164   165    2
    50   164   163    1
    51    83    84    1
    52    90    96    1
    53    90    91    1
    54    44    43    1
    55    95    96    1
    56    95    94    1
    57   162   163    1
    58   162   156   am
    59    91    94    1
    60    91    92    1
    61   155   154    1
    62   155   156    1
    63   155   158    1
    64   163   166    1
    65   156   157    2
    66   160   158    1
    67   168   167   ar
    68   158   159    1
    69    88    87    1
    70    84    85    1
    71    92    93    2
    72    86    87    2
    73    86    85    1
    74   166   167    1
    75    87    89    1
    76   167   169   ar
    77    16    15    2
    78   152   151    1
    79   159   161    1
    80    29    28    1
    81   141   140    2
    82    30    28    1
    83   149   148    2
    84   150   151    1
    85   150   147    1
    86   151   153    1
    87    15    14    1
    88    25    28    1
    89    25    26    1
    90    25    24    1
    91   146   147    1
    92    17    14    1
    93    17    18    1
    94    14    13    1
    95   148   147    1
    96   142   143    1
    97   142   139    1
    98   140   139    1
    99    26    27    2
   100   103   101    1
   101   145   143   am
   102     7     6    1
   103   143   144    2
   104   101   102    1
   105   101    98    1
   106    19    18   ar
   107    19    21   ar
   108   139   138    1
   109    18    20   ar
   110    98    97    1
   111    98    99    1
   112    21    23   ar
   113     6     5    1
   114     6     8    1
   115   138   131   am
   116    20    22   ar
   117     5     2    1
   118   132   131    2
   119    23    22   ar
   120    99   104   am
   121    99   100    2
   122    12    11    2
   123   131   130    1
   124   104   105    1
   125     1     2    1
   126   107   106    2
   127     2     3    1
   128   106   105    1
   129   106   113   am
   130   117   114    1
   131   117   118    1
   132    11    10    1
   133     9     3   am
   134     9    10    1
   135   114   113    1
   136   114   115    1
   137   105   108    1
   138     3     4    2
   139   130   129    1
   140   130   133    1
   141   133   134    1
   142   115   116    2
   143   118   119   ar
   144   118   120   ar
   145   108   109    1
   146   134   135    1
   147   109   110    1
   148   135   137   ar
   149   135   136   ar
   150   111   110    2
   151   110   112   am
   152   128   126   ar
   153   121   122    1
   154   125   126    1
   155   125   122    1
   156   126   127   ar
   157   122   123    1
   158   123   124    2
