@<TRIPOS>MOLECULE
tmp/5v83A00.pdb
 169 162 0 0 0
SMALL
GASTEIGER

@<TRIPOS>ATOM
      1  N         -6.5830   14.0560   -8.5700 N.3   198  ILE198     -0.1245
      2  CA        -5.5980   14.1400   -9.6430 C.3   198  ILE198      0.1561
      3  C         -4.9570   15.5150   -9.7190 C.2   198  ILE198      0.2260
      4  O         -3.7360   15.6230   -9.7580 O.2   198  ILE198     -0.2867
      5  CB        -6.2250   13.8100  -11.0020 C.3   198  ILE198      0.0252
      6  CG1       -6.7610   12.3740  -11.0030 C.3   198  ILE198      0.0019
      7  CG2       -5.2040   14.0050  -12.1140 C.3   198  ILE198      0.0019
      8  CD1       -5.7580   11.3110  -10.5410 C.3   198  ILE198      0.0001
      9  N         -2.6820   16.2080   -6.6960 N.3   201  ILE201     -0.1245
     10  CA        -1.4580   15.4220   -6.7740 C.3   201  ILE201      0.1561
     11  C         -0.4950   16.0750   -7.7600 C.2   201  ILE201      0.2260
     12  O          0.6810   16.1280   -7.4960 O.2   201  ILE201     -0.2867
     13  CB        -1.7410   13.9660   -7.1530 C.3   201  ILE201      0.0252
     14  CG1       -2.4360   13.2830   -5.9870 C.3   201  ILE201      0.0019
     15  CG2       -0.4500   13.1940   -7.3730 C.3   201  ILE201      0.0019
     16  CD1       -3.1140   11.9640   -6.3660 C.3   201  ILE201      0.0001
     17  N          0.8900   19.2150   -5.9360 N.3   204  PHE204     -0.1241
     18  CA         1.8360   18.6720   -4.9660 C.3   204  PHE204      0.1605
     19  C          3.1750   18.3030   -5.6420 C.2   204  PHE204      0.2264
     20  O          4.2450   18.6420   -5.1320 O.2   204  PHE204     -0.2867
     21  CB         1.1850   17.4850   -4.2890 C.3   204  PHE204      0.0534
     22  CG         1.9460   16.9210   -3.1370 C.ar  204  PHE204     -0.0203
     23  CD1        2.1470   17.6630   -1.9890 C.ar  204  PHE204     -0.0042
     24  CD2        2.4110   15.6070   -3.1860 C.ar  204  PHE204     -0.0042
     25  CE1        2.8210   17.1170   -0.9190 C.ar  204  PHE204     -0.0003
     26  CE2        3.0830   15.0460   -2.1100 C.ar  204  PHE204     -0.0003
     27  CZ         3.2760   15.7950   -0.9790 C.ar  204  PHE204     -0.0000
     28  N          5.3420   13.9620  -11.8300 N.3   212  PRO212     -0.2102
     29  CA         4.3220   13.0790  -11.2710 C.3   212  PRO212      0.1504
     30  C          4.6180   11.6190  -11.5750 C.2   212  PRO212      0.2575
     31  O          4.2240   10.7480  -10.7980 O.2   212  PRO212     -0.2718
     32  CB         3.0470   13.5350  -11.9740 C.3   212  PRO212      0.0282
     33  CG         3.2840   14.9600  -12.2680 C.3   212  PRO212      0.0208
     34  CD         4.7360   15.0800  -12.5810 C.3   212  PRO212      0.0893
     35  N          5.3330   11.3650  -12.6690 N.am  213  ALA213     -0.1980
     36  CA         5.6220   10.0060  -13.1020 C.3   213  ALA213      0.1597
     37  C          7.0260    9.5530  -12.6990 C.2   213  ALA213      0.2287
     38  O          7.5220    8.5440  -13.2000 O.2   213  ALA213     -0.2864
     39  CB         5.4440    9.8970  -14.6200 C.3   213  ALA213      0.0319
     40  N          8.0970   10.3630   -6.6420 N.3   217  VAL217     -0.1231
     41  CA         6.7290   10.5320   -6.2180 C.3   217  VAL217      0.1692
     42  C          6.1880    9.1820   -5.6950 C.2   217  VAL217      0.2591
     43  O          5.4510    9.1290   -4.7280 O.2   217  VAL217     -0.2718
     44  CB         5.8910   11.0870   -7.3660 C.3   217  VAL217      0.0266
     45  CG1        4.4640   11.3470   -6.9430 C.3   217  VAL217      0.0020
     46  CG2        6.5300   12.3610   -7.8820 C.3   217  VAL217      0.0020
     47  N          6.6030    8.0870   -6.3180 N.am  218  LEU218     -0.1980
     48  CA         6.2180    6.7680   -5.8370 C.3   218  LEU218      0.1596
     49  C          6.8300    6.5400   -4.4640 C.2   218  LEU218      0.2287
     50  O          6.1930    5.9930   -3.5760 O.2   218  LEU218     -0.2864
     51  CB         6.6660    5.6730   -6.8230 C.3   218  LEU218      0.0297
     52  CG         6.4140    4.2160   -6.4140 C.3   218  LEU218      0.0022
     53  CD1        4.9510    3.9030   -6.2210 C.3   218  LEU218      0.0001
     54  CD2        7.0090    3.2810   -7.4560 C.3   218  LEU218      0.0001
     55  N          7.6180    8.8060   -2.2780 N.3   220  ILE220     -0.1231
     56  CA         6.7960    9.5890   -1.3400 C.3   220  ILE220      0.1692
     57  C          5.4810    8.8680   -1.0060 C.2   220  ILE220      0.2591
     58  O          5.0810    8.8050    0.1470 O.2   220  ILE220     -0.2718
     59  CB         6.4850   10.9910   -1.8960 C.3   220  ILE220      0.0266
     60  CG1        7.7620   11.8250   -1.9040 C.3   220  ILE220      0.0019
     61  CG2        5.3930   11.6730   -1.0570 C.3   220  ILE220      0.0020
     62  CD1        7.6570   13.1990   -2.5560 C.3   220  ILE220      0.0001
     63  N          4.8080    8.3210   -2.0120 N.am  221  ALA221     -0.1980
     64  CA         3.5250    7.6570   -1.7310 C.3   221  ALA221      0.1597
     65  C          3.7770    6.4760   -0.8180 C.2   221  ALA221      0.2287
     66  O          3.0080    6.2120    0.0950 O.2   221  ALA221     -0.2864
     67  CB         2.8560    7.1990   -3.0020 C.3   221  ALA221      0.0319
     68  N          4.2230    7.7170    2.5790 N.3   224  PHE224     -0.1241
     69  CA         2.9330    8.1580    3.1140 C.3   224  PHE224      0.1605
     70  C          1.9770    6.9710    3.2480 C.2   224  PHE224      0.2264
     71  O          0.7990    7.1510    3.5670 O.2   224  PHE224     -0.2867
     72  CB         2.3080    9.2390    2.2160 C.3   224  PHE224      0.0534
     73  CG         2.8460   10.6280    2.4470 C.ar  224  PHE224     -0.0203
     74  CD1        1.9940   11.6650    2.7980 C.ar  224  PHE224     -0.0042
     75  CD2        4.1820   10.9040    2.3070 C.ar  224  PHE224     -0.0042
     76  CE1        2.4710   12.9390    3.0100 C.ar  224  PHE224     -0.0003
     77  CE2        4.6710   12.1800    2.5160 C.ar  224  PHE224     -0.0003
     78  CZ         3.8240   13.1980    2.8670 C.ar  224  PHE224     -0.0000
     79  N          0.3970    5.3490    1.0940 N.3   226  ALA226     -0.1245
     80  CA        -0.8260    5.6160    0.3830 C.3   226  ALA226      0.1562
     81  C         -1.3840    4.2790   -0.0910 C.2   226  ALA226      0.2260
     82  O         -0.6280    3.3710   -0.4230 O.2   226  ALA226     -0.2867
     83  CB        -0.5860    6.5500   -0.7800 C.3   226  ALA226      0.0290
     84  N         -3.5600    3.8000   -2.7200 N.3   228  THR228     -0.1203
     85  CA        -3.8890    3.6770   -4.1310 C.3   228  THR228      0.1994
     86  C         -3.4360    4.9170   -4.8860 C.2   228  THR228      0.2618
     87  O         -3.3720    6.0150   -4.3160 O.2   228  THR228     -0.2717
     88  CB        -5.4090    3.4550   -4.3270 C.3   228  THR228      0.1784
     89  OG1       -5.6540    2.9250   -5.6350 O.3   228  THR228     -0.2211
     90  CG2       -6.2090    4.7740   -4.1120 C.3   228  THR228      0.0376
     91  N         -3.1060    4.7370   -6.1620 N.am  229  GLN229     -0.1965
     92  CA        -2.5120    5.7920   -6.9640 C.3   229  GLN229      0.1733
     93  C         -3.4390    6.9190   -7.3990 C.2   229  GLN229      0.2616
     94  O         -2.9710    8.0260   -7.6510 O.2   229  GLN229     -0.2715
     95  CB        -1.8580    5.1970   -8.2170 C.3   229  GLN229      0.0408
     96  CG        -2.8100    4.6200   -9.2570 C.3   229  GLN229      0.0908
     97  CD        -2.1450    4.5410  -10.6250 C.2   229  GLN229      0.2608
     98  OE1       -1.7740    5.5700  -11.1870 O.2   229  GLN229     -0.2717
     99  NE2       -1.9730    3.3190  -11.1600 N.am  229  GLN229     -0.0878
    100  N         -4.7320    6.6600   -7.5100 N.am  230  CYS230     -0.1954
    101  CA        -5.5990    7.6520   -8.1460 C.3   230  CYS230      0.1843
    102  C         -5.9330    8.7870   -7.1760 C.2   230  CYS230      0.2625
    103  O         -6.3170    9.8830   -7.5950 O.2   230  CYS230     -0.2714
    104  CB        -6.8820    7.0040   -8.6780 C.3   230  CYS230      0.0997
    105  SG        -7.8510    6.1140   -7.4360 S.3   230  CYS230     -0.0797
    106  N         -5.7720    8.5300   -5.8850 N.am  231  GLU231     -0.1963
    107  CA        -6.0770    9.5510   -4.8970 C.3   231  GLU231      0.1733
    108  C         -5.0760    9.5980   -3.7430 C.2   231  GLU231      0.2616
    109  O         -4.2310    8.7210   -3.5840 O.2   231  GLU231     -0.2715
    110  CB        -7.4840    9.3500   -4.3440 C.3   231  GLU231      0.0429
    111  CG        -7.6400    8.1900   -3.3750 C.3   231  GLU231      0.1163
    112  CD        -9.1000    7.8520   -3.1290 C.2   231  GLU231      0.3649
    113  OE1       -9.9220    8.0400   -4.0560 O.co2 231  GLU231     -0.2457
    114  OE2       -9.4280    7.4250   -2.0020 O.co2 231  GLU231     -0.2457
    115  N         -5.2120   10.6350   -2.9300 N.am  232  PHE232     -0.1974
    116  CA        -4.3100   10.8970   -1.8330 C.3   232  PHE232      0.1639
    117  C         -5.2020   11.4030   -0.6980 C.2   232  PHE232      0.2290
    118  O         -5.7540   12.4930   -0.7880 O.2   232  PHE232     -0.2864
    119  CB        -3.2760   11.9270   -2.2780 C.3   232  PHE232      0.0560
    120  CG        -2.1400   12.1400   -1.3360 C.ar  232  PHE232     -0.0200
    121  CD1       -2.0440   11.4690   -0.1390 C.ar  232  PHE232     -0.0042
    122  CD2       -1.1330   13.0440   -1.6790 C.ar  232  PHE232     -0.0042
    123  CE1       -0.9470   11.6930    0.7210 C.ar  232  PHE232     -0.0003
    124  CE2       -0.0500   13.2780   -0.8280 C.ar  232  PHE232     -0.0003
    125  CZ         0.0440   12.5890    0.3710 C.ar  232  PHE232     -0.0000
    126  N         -0.3420   -0.3510   -4.5040 N.3   279  PHE279     -0.1241
    127  CA        -0.5890    1.0420   -4.8030 C.3   279  PHE279      0.1605
    128  C         -1.0740    1.2560   -6.2310 C.2   279  PHE279      0.2264
    129  O         -1.9950    2.0370   -6.4800 O.2   279  PHE279     -0.2867
    130  CB         0.6940    1.8090   -4.5540 C.3   279  PHE279      0.0534
    131  CG         0.6100    3.2390   -4.8790 C.ar  279  PHE279     -0.0203
    132  CD1       -0.1180    4.1050   -4.0680 C.ar  279  PHE279     -0.0042
    133  CD2        1.3000    3.7440   -5.9620 C.ar  279  PHE279     -0.0042
    134  CE1       -0.1840    5.4520   -4.3520 C.ar  279  PHE279     -0.0003
    135  CE2        1.2600    5.0790   -6.2500 C.ar  279  PHE279     -0.0003
    136  CZ         0.5010    5.9510   -5.4300 C.ar  279  PHE279     -0.0000
    137  N          0.1320   -1.0200  -16.7220 N.3   289  MET289     -0.1245
    138  CA         0.4920   -0.3210  -15.5050 C.3   289  MET289      0.1570
    139  C          1.6950   -1.0130  -14.8440 C.2   289  MET289      0.2261
    140  O          2.5830   -0.3520  -14.3210 O.2   289  MET289     -0.2867
    141  CB        -0.7000   -0.2540  -14.5390 C.3   289  MET289      0.0387
    142  CG        -0.5300    0.7480  -13.4010 C.3   289  MET289      0.0595
    143  SD        -0.4960    2.4960  -13.9030 S.3   289  MET289     -0.1393
    144  CE        -1.9280    2.6020  -14.9940 C.3   289  MET289      0.0692
    145  N          4.9210   -0.0390  -16.6770 N.3   292  ALA292     -0.1231
    146  CA         5.2480    1.3190  -16.2830 C.3   292  ALA292      0.1694
    147  C          5.9260    1.3490  -14.9120 C.2   292  ALA292      0.2592
    148  O          6.9760    1.9810  -14.7430 O.2   292  ALA292     -0.2718
    149  CB         3.9950    2.1910  -16.2630 C.3   292  ALA292      0.0304
    150  N          5.3270    0.6870  -13.9240 N.am  293  TYR293     -0.1976
    151  CA         5.9070    0.7360  -12.5970 C.3   293  TYR293      0.1639
    152  C          7.1950   -0.0750  -12.5040 C.2   293  TYR293      0.2290
    153  O          8.1240    0.3150  -11.7850 O.2   293  TYR293     -0.2864
    154  CB         4.8920    0.3010  -11.5450 C.3   293  TYR293      0.0560
    155  CG         4.1310    1.5070  -11.0500 C.ar  293  TYR293     -0.0198
    156  CD1        4.7790    2.4990  -10.3490 C.ar  293  TYR293     -0.0009
    157  CD2        2.7970    1.7020  -11.3730 C.ar  293  TYR293     -0.0009
    158  CE1        4.1110    3.6350   -9.9330 C.ar  293  TYR293      0.0417
    159  CE2        2.1150    2.8230  -10.9400 C.ar  293  TYR293      0.0417
    160  CZ         2.7740    3.7820  -10.2230 C.ar  293  TYR293      0.1957
    161  OH         2.1150    4.9110   -9.8040 O.3   293  TYR293     -0.2866
    162  N         10.0560    1.9490  -13.5610 N.3   296  LEU296     -0.1245
    163  CA        10.3850    2.9020  -12.5320 C.3   296  LEU296      0.1561
    164  C         11.2150    2.2410  -11.4460 C.2   296  LEU296      0.2260
    165  O         12.3260    2.6660  -11.1540 O.2   296  LEU296     -0.2867
    166  CB         9.1060    3.4720  -11.9540 C.3   296  LEU296      0.0270
    167  CG         9.0270    4.9460  -11.6050 C.3   296  LEU296      0.0019
    168  CD1        9.6390    5.8230  -12.6890 C.3   296  LEU296      0.0001
    169  CD2        7.5670    5.2830  -11.3410 C.3   296  LEU296      0.0001
@<TRIPOS>BOND
     1   137   138    1
     2   145   146    1
     3   146   149    1
     4   146   147    1
     5   138   139    1
     6   138   141    1
     7   144   143    1
     8   147   148    2
     9   147   150   am
    10   139   140    2
    11    39    36    1
    12   141   142    1
    13   150   151    1
    14   143   142    1
    15   162   163    1
    16    38    37    2
    17    36    37    1
    18    36    35    1
    19   168   167    1
    20    35    30   am
    21   151   152    1
    22   151   154    1
    23    34    33    1
    24    34    28    1
    25   163   166    1
    26   163   164    1
    27   152   153    2
    28    33    32    1
    29     7     5    1
    30    32    29    1
    31   166   167    1
    32    28    29    1
    33   167   169    1
    34    30    29    1
    35    30    31    2
    36   154   155    1
    37   164   165    2
    38   157   155   ar
    39   157   159   ar
    40    98    97    2
    41    99    97   am
    42   155   156   ar
    43     6     5    1
    44     6     8    1
    45     5     2    1
    46   159   160   ar
    47    97    96    1
    48   156   158   ar
    49   160   158   ar
    50   160   161    1
    51     4     3    2
    52     3     2    1
    53     2     1    1
    54    96    95    1
    55   104   101    1
    56   104   105    1
    57    95    92    1
    58   101   100    1
    59   101   102    1
    60    46    44    1
    61    11    12    2
    62    11    10    1
    63    94    93    2
    64   103   102    2
    65   100    93   am
    66    54    52    1
    67    93    92    1
    68    15    13    1
    69    44    45    1
    70    44    41    1
    71   102   106   am
    72    13    10    1
    73    13    14    1
    74    92    91    1
    75    51    52    1
    76    51    48    1
    77    10     9    1
    78    40    41    1
    79   129   128    2
    80    52    53    1
    81    16    14    1
    82    47    48    1
    83    47    42   am
    84   135   133   ar
    85   135   136   ar
    86   128   127    1
    87    41    42    1
    88    91    86   am
    89   133   131   ar
    90    17    18    1
    91   106   107    1
    92    48    49    1
    93    42    43    2
    94    19    20    2
    95    19    18    1
    96    89    88    1
    97   136   134   ar
    98    18    21    1
    99   107   110    1
   100   107   108    1
   101    86    87    2
   102    86    85    1
   103   131   130    1
   104   131   132   ar
   105   127   130    1
   106   127   126    1
   107    49    50    2
   108   134   132   ar
   109   110   111    1
   110    88    85    1
   111    88    90    1
   112    21    22    1
   113    85    84    1
   114   113   112   ar
   115   108   109    2
   116   108   115   am
   117   111   112    1
   118    24    22   ar
   119    24    26   ar
   120    22    23   ar
   121   112   114   ar
   122    67    64    1
   123   115   116    1
   124    62    60    1
   125   119   116    1
   126   119   120    1
   127    55    56    1
   128    26    27   ar
   129    63    64    1
   130    63    57   am
   131    23    25   ar
   132    60    59    1
   133    59    56    1
   134    59    61    1
   135   116   117    1
   136    64    65    1
   137   122   120   ar
   138   122   124   ar
   139    56    57    1
   140   120   121   ar
   141    57    58    2
   142    27    25   ar
   143   124   125   ar
   144    65    66    2
   145   118   117    2
   146    83    80    1
   147    82    81    2
   148   121   123   ar
   149    81    80    1
   150   125   123   ar
   151    80    79    1
   152    72    73    1
   153    72    69    1
   154    75    73   ar
   155    75    77   ar
   156    73    74   ar
   157    77    78   ar
   158    68    69    1
   159    74    76   ar
   160    78    76   ar
   161    69    70    1
   162    70    71    2
