@<TRIPOS>MOLECULE
tmp/5v84C01.pdb
 145 147 0 0 0
SMALL
GASTEIGER

@<TRIPOS>ATOM
      1  N         48.1390   12.1430    4.6500 N.3    21  TRP21      -0.1228
      2  CA        49.1470   13.1940    4.8240 C.3    21  TRP21       0.1722
      3  C         48.5580   14.6110    5.0890 C.2    21  TRP21       0.2437
      4  O         49.1250   15.2700    5.9760 O.2    21  TRP21      -0.2733
      5  CB        50.2280   13.2110    3.7040 C.3    21  TRP21       0.0563
      6  CG        49.7340   13.5870    2.3370 C.ar   21  TRP21       0.0003
      7  CD1       49.3070   12.7340    1.3640 C.ar   21  TRP21       0.0946
      8  CD2       49.5650   14.9150    1.8050 C.ar   21  TRP21       0.0152
      9  NE1       48.8830   13.4430    0.2600 N.ar   21  TRP21      -0.2442
     10  CE2       48.9810   14.7820    0.5230 C.ar   21  TRP21       0.0810
     11  CE3       49.8100   16.2110    2.3060 C.ar   21  TRP21       0.0012
     12  CZ2       48.6490   15.8910   -0.2720 C.ar   21  TRP21       0.0191
     13  CZ3       49.4990   17.3090    1.5100 C.ar   21  TRP21       0.0001
     14  CH2       48.9060   17.1470    0.2460 C.ar   21  TRP21       0.0015
     15  N         47.4260   15.1010    4.4950 N.am   22  PRO22      -0.2718
     16  CA        46.9460   16.4530    4.8840 C.3    22  PRO22       0.1535
     17  C         46.3330   16.5330    6.2890 C.2    22  PRO22       0.2598
     18  O         46.1710   17.6270    6.8500 O.2    22  PRO22      -0.2715
     19  CB        45.9030   16.8050    3.7990 C.3    22  PRO22       0.0310
     20  CG        45.9620   15.7190    2.7910 C.3    22  PRO22       0.0237
     21  CD        46.5600   14.5200    3.4430 C.3    22  PRO22       0.0939
     22  N         45.9880   15.3700    6.8440 N.am   23  PHE23      -0.1974
     23  CA        45.2860   15.2230    8.1220 C.3    23  PHE23       0.1639
     24  C         46.1830   14.8100    9.2670 C.2    23  PHE23       0.2290
     25  O         45.6740   14.6270   10.3660 O.2    23  PHE23      -0.2864
     26  CB        44.1560   14.1660    7.9900 C.3    23  PHE23       0.0560
     27  CG        43.2520   14.3240    6.7990 C.ar   23  PHE23      -0.0200
     28  CD1       43.5710   13.7270    5.5830 C.ar   23  PHE23      -0.0042
     29  CD2       42.0940   15.0870    6.8820 C.ar   23  PHE23      -0.0042
     30  CE1       42.7370   13.8690    4.4740 C.ar   23  PHE23      -0.0003
     31  CE2       41.2610   15.2400    5.7680 C.ar   23  PHE23      -0.0003
     32  CZ        41.6080   14.6590    4.5600 C.ar   23  PHE23      -0.0000
     33  N         48.8680   16.4280   10.8350 N.3    25  GLU25      -0.1231
     34  CA        49.1740   17.4610   11.8180 C.3    25  GLU25       0.1684
     35  C         48.1600   18.6270   11.7690 C.2    25  GLU25       0.2434
     36  O         47.3780   18.6950   10.8110 O.2    25  GLU25      -0.2733
     37  CB        50.5990   17.9900   11.5620 C.3    25  GLU25       0.0402
     38  CG        51.7230   16.9850   11.8270 C.3    25  GLU25       0.1161
     39  CD        52.0950   16.6610   13.2690 C.2    25  GLU25       0.3649
     40  OE1       51.9310   17.5370   14.1520 O.co2  25  GLU25      -0.2457
     41  OE2       52.5980   15.5360   13.5040 O.co2  25  GLU25      -0.2457
     42  N         48.1460   19.5580   12.7690 N.am   26  PRO26      -0.2718
     43  CA        47.2650   20.7380   12.6660 C.3    26  PRO26       0.1535
     44  C         47.6050   21.5510   11.4080 C.2    26  PRO26       0.2598
     45  O         48.7820   21.6460   11.0330 O.2    26  PRO26      -0.2715
     46  CB        47.6340   21.5580   13.9100 C.3    26  PRO26       0.0310
     47  CG        48.2150   20.6050   14.8410 C.3    26  PRO26       0.0237
     48  CD        48.9550   19.6290   14.0000 C.3    26  PRO26       0.0939
     49  N         46.5730   22.1130   10.7450 N.am   27  VAL27      -0.1964
     50  CA        46.7020   22.9180    9.5150 C.3    27  VAL27       0.1727
     51  C         47.6380   24.1250    9.6960 C.2    27  VAL27       0.2616
     52  O         47.4400   24.9190   10.6160 O.2    27  VAL27      -0.2715
     53  CB        45.3140   23.3560    8.9900 C.3    27  VAL27       0.0290
     54  CG1       45.4350   24.2520    7.7700 C.3    27  VAL27       0.0023
     55  CG2       44.4390   22.1530    8.6760 C.3    27  VAL27       0.0023
     56  N         48.6540   24.2580    8.8100 N.am   28  ASP28      -0.1971
     57  CA        49.5840   25.3890    8.8010 C.3    28  ASP28       0.1709
     58  C         48.8770   26.5060    8.0510 C.2    28  ASP28       0.2293
     59  O         48.6230   26.3540    6.8530 O.2    28  ASP28      -0.2864
     60  CB        50.8800   24.9980    8.0680 C.3    28  ASP28       0.1436
     61  CG        52.0140   26.0230    8.0890 C.2    28  ASP28       0.3671
     62  OD1       51.8200   27.1300    8.6600 O.co2  28  ASP28      -0.2456
     63  OD2       53.0960   25.7210    7.5380 O.co2  28  ASP28      -0.2456
     64  N         49.7030   27.7690    4.4730 N.3    31  TYR31      -0.1227
     65  CA        49.2440   26.9820    3.3330 C.3    31  TYR31       0.1736
     66  C         47.7510   27.1860    3.1140 C.2    31  TYR31       0.2595
     67  O         47.2780   27.0710    1.9850 O.2    31  TYR31      -0.2718
     68  CB        49.5280   25.4980    3.5580 C.3    31  TYR31       0.0548
     69  CG        50.9580   25.1050    3.2910 C.ar   31  TYR31      -0.0200
     70  CD1       51.9420   25.2770    4.2600 C.ar   31  TYR31      -0.0009
     71  CD2       51.3190   24.4970    2.0930 C.ar   31  TYR31      -0.0009
     72  CE1       53.2600   24.8940    4.0290 C.ar   31  TYR31       0.0417
     73  CE2       52.6280   24.0800    1.8620 C.ar   31  TYR31       0.0417
     74  CZ        53.5970   24.2840    2.8320 C.ar   31  TYR31       0.1957
     75  OH        54.8940   23.8890    2.6150 O.3    31  TYR31      -0.2866
     76  N         47.0130   27.4750    4.1980 N.am   32  ALA32      -0.1966
     77  CA        45.5690   27.6870    4.1910 C.3    32  ALA32       0.1713
     78  C         45.2020   29.0320    4.8580 C.2    32  ALA32       0.2458
     79  O         45.0030   29.0820    6.0770 O.2    32  ALA32      -0.2730
     80  CB        44.8610   26.5260    4.8780 C.3    32  ALA32       0.0333
     81  N         45.1190   30.1290    4.0550 N.am   33  PRO33      -0.2727
     82  CA        44.7840   31.4540    4.6210 C.3    33  PRO33       0.1402
     83  C         43.4970   31.5150    5.4390 C.2    33  PRO33       0.2269
     84  O         42.4570   31.0040    5.0170 O.2    33  PRO33      -0.2865
     85  CB        44.6770   32.3580    3.3880 C.3    33  PRO33       0.0296
     86  CG        45.4450   31.6820    2.3420 C.3    33  PRO33       0.0237
     87  CD        45.3530   30.2140    2.5980 C.3    33  PRO33       0.0939
     88  N         42.4840   29.8870    7.9460 N.3    35  TYR35      -0.1241
     89  CA        41.8910   28.6040    8.3270 C.3    35  TYR35       0.1605
     90  C         41.2280   28.6830    9.6950 C.2    35  TYR35       0.2264
     91  O         40.0710   28.2980    9.8270 O.2    35  TYR35      -0.2867
     92  CB        42.9310   27.4620    8.3150 C.3    35  TYR35       0.0534
     93  CG        42.3200   26.0770    8.4570 C.ar   35  TYR35      -0.0201
     94  CD1       41.8660   25.3740    7.3420 C.ar   35  TYR35      -0.0009
     95  CD2       42.1900   25.4720    9.7070 C.ar   35  TYR35      -0.0009
     96  CE1       41.2770   24.1130    7.4680 C.ar   35  TYR35       0.0417
     97  CE2       41.5960   24.2130    9.8460 C.ar   35  TYR35       0.0417
     98  CZ        41.1530   23.5320    8.7210 C.ar   35  TYR35       0.1957
     99  OH        40.5940   22.2820    8.8390 O.3    35  TYR35      -0.2866
    100  N         37.1530   16.5650   11.9230 N.3    70  MET70      -0.1245
    101  CA        38.2700   16.5840   10.9950 C.3    70  MET70       0.1570
    102  C         37.7650   16.5870    9.5040 C.2    70  MET70       0.2261
    103  O         38.2080   17.4230    8.7150 O.2    70  MET70      -0.2867
    104  CB        39.1120   15.3290   11.2560 C.3    70  MET70       0.0387
    105  CG        40.5840   15.5530   11.1590 C.3    70  MET70       0.0595
    106  SD        41.4750   14.2140   10.3900 S.3    70  MET70      -0.1393
    107  CE        40.9600   12.8180   11.3630 C.3    70  MET70       0.0692
    108  N         37.3660   19.8920    6.6530 N.3    74  CYS74      -0.1235
    109  CA        37.9380   19.7710    5.3150 C.3    74  CYS74       0.1677
    110  C         36.9530   20.2900    4.2610 C.2    74  CYS74       0.2270
    111  O         37.2750   21.2240    3.5180 O.2    74  CYS74      -0.2867
    112  CB        38.3600   18.3320    5.0290 C.3    74  CYS74       0.0956
    113  SG        39.1770   18.1130    3.4230 S.3    74  CYS74      -0.0801
    114  N         36.1030   24.1840    4.7520 N.3    77  TYR77      -0.1227
    115  CA        37.1640   25.0580    4.2840 C.3    77  TYR77       0.1736
    116  C         37.5060   24.9380    2.7900 C.2    77  TYR77       0.2595
    117  O         37.6900   25.9660    2.1290 O.2    77  TYR77      -0.2718
    118  CB        38.4360   24.8670    5.1360 C.3    77  TYR77       0.0548
    119  CG        39.5400   25.8380    4.7750 C.ar   77  TYR77      -0.0200
    120  CD1       39.4990   27.1610    5.2070 C.ar   77  TYR77      -0.0009
    121  CD2       40.6010   25.4490    3.9610 C.ar   77  TYR77      -0.0009
    122  CE1       40.4730   28.0770    4.8260 C.ar   77  TYR77       0.0417
    123  CE2       41.5880   26.3570    3.5810 C.ar   77  TYR77       0.0417
    124  CZ        41.5240   27.6690    4.0270 C.ar   77  TYR77       0.1957
    125  OH        42.4790   28.5890    3.6770 O.3    77  TYR77      -0.2866
    126  N         37.6410   23.7070    2.2740 N.am   78  ASN78      -0.1974
    127  CA        38.0830   23.4770    0.9000 C.3    78  ASN78       0.1688
    128  C         36.9830   23.3940   -0.1620 C.2    78  ASN78       0.2292
    129  O         37.2770   23.5850   -1.3400 O.2    78  ASN78      -0.2864
    130  CB        38.9550   22.2360    0.8430 C.3    78  ASN78       0.1181
    131  CG        40.1440   22.3000    1.7690 C.2    78  ASN78       0.2629
    132  OD1       41.0310   23.1470    1.6320 O.2    78  ASN78      -0.2716
    133  ND2       40.1680   21.4200    2.7510 N.am   78  ASN78      -0.0877
    134  N         41.2440   17.9030   -1.7490 N.3    84  TYR84      -0.1241
    135  CA        41.3490   17.5260   -0.3430 C.3    84  TYR84       0.1605
    136  C         40.1160   16.7670    0.1020 C.2    84  TYR84       0.2264
    137  O         40.2250   15.8170    0.8730 O.2    84  TYR84      -0.2867
    138  CB        41.5270   18.7660    0.5380 C.3    84  TYR84       0.0534
    139  CG        42.8770   19.4070    0.3850 C.ar   84  TYR84      -0.0201
    140  CD1       43.1110   20.3510   -0.6050 C.ar   84  TYR84      -0.0009
    141  CD2       43.9120   19.1060    1.2590 C.ar   84  TYR84      -0.0009
    142  CE1       44.3540   20.9590   -0.7400 C.ar   84  TYR84       0.0417
    143  CE2       45.1530   19.7180    1.1460 C.ar   84  TYR84       0.0417
    144  CZ        45.3770   20.6310    0.1320 C.ar   84  TYR84       0.1957
    145  OH        46.5930   21.2540    0.0190 O.3    84  TYR84      -0.2866
@<TRIPOS>BOND
     1   134   135    1
     2   129   128    2
     3   142   140   ar
     4   142   144   ar
     5   140   139   ar
     6   135   136    1
     7   135   138    1
     8    12    14   ar
     9    12    10   ar
    10   128   127    1
    11   145   144    1
    12   136   137    2
    13   144   143   ar
    14    14    13   ar
    15     9    10   ar
    16     9     7   ar
    17   139   138    1
    18   139   141   ar
    19    10     8   ar
    20   130   127    1
    21   130   131    1
    22   127   126    1
    23   143   141   ar
    24     7     6   ar
    25    13    11   ar
    26   132   131    2
    27   131   133   am
    28     8    11   ar
    29     8     6   ar
    30    73    71   ar
    31    73    74   ar
    32    67    66    2
    33    71    69   ar
    34   117   116    2
    35   126   116   am
    36     6     5    1
    37    86    87    1
    38    86    85    1
    39    87    81    1
    40    75    74    1
    41   116   115    1
    42    20    21    1
    43    20    19    1
    44    74    72   ar
    45    66    65    1
    46    66    76   am
    47    69    68    1
    48    69    70   ar
    49    65    68    1
    50    65    64    1
    51    85    82    1
    52   113   112    1
    53    21    15    1
    54   111   110    2
    55   123   121   ar
    56   123   124   ar
    57   125   124    1
    58     5     2    1
    59    19    16    1
    60   121   119   ar
    61   124   122   ar
    62    72    70   ar
    63    81    82    1
    64    81    78   am
    65    77    76    1
    66    77    78    1
    67    77    80    1
    68   110   109    1
    69   115   114    1
    70   115   118    1
    71    30    32   ar
    72    30    28   ar
    73    15    16    1
    74    15     3   am
    75    32    31   ar
    76    82    83    1
    77     1     2    1
    78   119   118    1
    79   119   120   ar
    80     2     3    1
    81   122   120   ar
    82    78    79    2
    83    16    17    1
    84    84    83    2
    85   112   109    1
    86     3     4    2
    87   109   108    1
    88    28    27   ar
    89    31    29   ar
    90    17    22   am
    91    17    18    2
    92    27    29   ar
    93    27    26    1
    94    22    23    1
    95    59    58    2
    96    94    96   ar
    97    94    93   ar
    98    96    98   ar
    99    63    61   ar
   100    54    53    1
   101    88    89    1
   102    26    23    1
   103    58    57    1
   104    60    61    1
   105    60    57    1
   106    61    62   ar
   107    23    24    1
   108    92    89    1
   109    92    93    1
   110    89    90    1
   111    93    95   ar
   112    55    53    1
   113   103   102    2
   114    98    99    1
   115    98    97   ar
   116    57    56    1
   117    56    51   am
   118    53    50    1
   119    24    25    2
   120   102   101    1
   121    50    51    1
   122    50    49    1
   123    90    91    2
   124    51    52    2
   125    95    97   ar
   126   106   105    1
   127   106   107    1
   128    49    44   am
   129    36    35    2
   130    33    34    1
   131   101   104    1
   132   101   100    1
   133    45    44    2
   134   105   104    1
   135    44    43    1
   136    37    34    1
   137    37    38    1
   138    35    34    1
   139    35    42   am
   140    38    39    1
   141    43    42    1
   142    43    46    1
   143    42    48    1
   144    39    41   ar
   145    39    40   ar
   146    46    47    1
   147    48    47    1
