@<TRIPOS>MOLECULE
tmp/5v85A00.pdb
 188 175 0 0 0
SMALL
GASTEIGER

@<TRIPOS>ATOM
      1  N         30.0130   37.9150   19.0550 N.3    10  CYS10      -0.1235
      2  CA        28.6220   38.3420   18.9550 C.3    10  CYS10       0.1677
      3  C         28.4780   39.8300   19.2460 C.2    10  CYS10       0.2270
      4  O         27.6450   40.5050   18.6300 O.2    10  CYS10      -0.2867
      5  CB        27.7420   37.5230   19.8990 C.3    10  CYS10       0.0956
      6  SG        25.9770   37.8780   19.7350 S.3    10  CYS10      -0.0801
      7  N         33.4380   33.4480   17.4650 N.3    27  LEU27      -0.1245
      8  CA        32.7180   32.1930   17.5500 C.3    27  LEU27       0.1561
      9  C         32.7790   31.4680   16.2070 C.2    27  LEU27       0.2260
     10  O         33.3200   31.9750   15.2220 O.2    27  LEU27      -0.2867
     11  CB        31.2750   32.4220   17.9950 C.3    27  LEU27       0.0270
     12  CG        31.0230   32.5860   19.4930 C.3    27  LEU27       0.0019
     13  CD1       31.2090   34.0220   19.9200 C.3    27  LEU27       0.0001
     14  CD2       29.6280   32.1150   19.8330 C.3    27  LEU27       0.0001
     15  N         26.0540   27.0240   15.6390 N.3    60  THR60      -0.1203
     16  CA        27.1570   27.8620   16.0880 C.3    60  THR60       0.1994
     17  C         27.8960   27.1600   17.2200 C.2    60  THR60       0.2619
     18  O         27.3910   26.2130   17.8260 O.2    60  THR60      -0.2717
     19  CB        26.6710   29.2480   16.5440 C.3    60  THR60       0.1784
     20  OG1       25.6770   29.1030   17.5660 O.3    60  THR60      -0.2211
     21  CG2       26.0770   30.0260   15.3700 C.3    60  THR60       0.0376
     22  N         29.1090   27.6360   17.4970 N.am   61  SER61      -0.1937
     23  CA        29.9200   27.0950   18.5790 C.3    61  SER61       0.2055
     24  C         30.6310   28.2320   19.2950 C.2    61  SER61       0.2643
     25  O         31.0930   29.1840   18.6610 O.2    61  SER61      -0.2714
     26  CB        30.9430   26.0740   18.0600 C.3    61  SER61       0.2130
     27  OG        31.7210   26.6170   17.0070 O.3    61  SER61      -0.2179
     28  N         30.7120   28.1280   20.6180 N.am   62  CYS62      -0.1967
     29  CA        31.3860   29.1410   21.4040 C.3    62  CYS62       0.1712
     30  C         32.9020   29.0090   21.2470 C.2    62  CYS62       0.2296
     31  O         33.3980   27.9940   20.7510 O.2    62  CYS62      -0.2864
     32  CB        30.9820   29.0160   22.8730 C.3    62  CYS62       0.0983
     33  SG        31.5550   27.5020   23.6600 S.3    62  CYS62      -0.0798
     34  N         28.5440   36.5730   25.6580 N.3    83  LEU83      -0.1245
     35  CA        27.1250   36.2610   25.5590 C.3    83  LEU83       0.1561
     36  C         26.5590   35.8110   26.8980 C.2    83  LEU83       0.2260
     37  O         27.2950   35.2910   27.7430 O.2    83  LEU83      -0.2867
     38  CB        26.8910   35.1550   24.5290 C.3    83  LEU83       0.0270
     39  CG        26.8680   35.5520   23.0590 C.3    83  LEU83       0.0019
     40  CD1       27.4740   34.4460   22.2100 C.3    83  LEU83       0.0001
     41  CD2       25.4430   35.8380   22.6460 C.3    83  LEU83       0.0001
     42  N         22.5000   31.4110   27.2120 N.3    87  LEU87      -0.1231
     43  CA        22.3180   31.2240   25.7790 C.3    87  LEU87       0.1693
     44  C         23.5240   30.6190   25.0780 C.2    87  LEU87       0.2593
     45  O         23.4070   30.2370   23.9080 O.2    87  LEU87      -0.2718
     46  CB        21.9780   32.5620   25.1020 C.3    87  LEU87       0.0284
     47  CG        20.7810   33.3410   25.6540 C.3    87  LEU87       0.0019
     48  CD1       20.6740   34.7070   24.9870 C.3    87  LEU87       0.0001
     49  CD2       19.4910   32.5500   25.4730 C.3    87  LEU87       0.0001
     50  N         24.6700   30.5140   25.7450 N.am   88  SER88      -0.1938
     51  CA        25.8930   30.1060   25.0710 C.3    88  SER88       0.2055
     52  C         26.8990   29.6310   26.1080 C.2    88  SER88       0.2643
     53  O         26.8730   30.0690   27.2610 O.2    88  SER88      -0.2714
     54  CB        26.4840   31.2610   24.2490 C.3    88  SER88       0.2130
     55  OG        27.7680   30.9350   23.7400 O.3    88  SER88      -0.2179
     56  N         27.7880   28.7370   25.6810 N.am   89  GLY89      -0.1954
     57  CA        28.8920   28.3130   26.5140 C.3    89  GLY89       0.1869
     58  C         30.0690   29.2580   26.5280 C.2    89  GLY89       0.2309
     59  O         31.1100   28.9340   27.1070 O.2    89  GLY89      -0.2863
     60  N         24.5520   38.6250   30.3090 N.3   116  ARG116     -0.1231
     61  CA        23.1290   38.2960   30.4020 C.3   116  ARG116      0.1694
     62  C         22.3610   38.8870   29.2230 C.2   116  ARG116      0.2593
     63  O         21.1830   39.2340   29.3300 O.2   116  ARG116     -0.2718
     64  CB        22.5360   38.7610   31.7360 C.3   116  ARG116      0.0321
     65  CG        23.0530   37.9730   32.9390 C.3   116  ARG116      0.0489
     66  CD        23.5460   38.8890   34.0530 C.3   116  ARG116      0.2205
     67  NE        24.1470   38.1350   35.1510 N.pl3 116  ARG116     -0.0865
     68  CZ        25.4050   38.2730   35.5630 C.cat 116  ARG116      0.5346
     69  NH1       26.2140   39.1450   34.9750 N.pl3 116  ARG116      0.1354
     70  NH2       25.8570   37.5370   36.5710 N.pl3 116  ARG116      0.1354
     71  N         23.0430   39.0040   28.0830 N.am  117  SER117     -0.1938
     72  CA        22.4660   39.6500   26.9160 C.3   117  SER117      0.2055
     73  C         23.1770   39.1280   25.6700 C.2   117  SER117      0.2643
     74  O         23.7060   38.0110   25.6730 O.2   117  SER117     -0.2714
     75  CB        22.5980   41.1780   27.0450 C.3   117  SER117      0.2130
     76  OG        22.2180   41.8450   25.8520 O.3   117  SER117     -0.2179
     77  N         23.2040   39.9320   24.6150 N.am  118  ALA118     -0.1963
     78  CA        23.8350   39.5430   23.3620 C.3   118  ALA118      0.1728
     79  C         24.0110   40.7990   22.5240 C.2   118  ALA118      0.2616
     80  O         23.4790   41.8640   22.8520 O.2   118  ALA118     -0.2715
     81  CB        23.0040   38.4990   22.6110 C.3   118  ALA118      0.0334
     82  N         24.7770   40.6590   21.4410 N.am  119  SER119     -0.1950
     83  CA        24.8920   41.6740   20.3850 C.3   119  SER119      0.1924
     84  C         25.2990   42.9990   21.0360 C.2   119  SER119      0.2314
     85  O         26.2910   43.0320   21.7730 O.2   119  SER119     -0.2863
     86  CB        23.5890   41.6990   19.5950 C.3   119  SER119      0.2116
     87  OG        23.5280   42.8190   18.7260 O.3   119  SER119     -0.2180
     88  N         17.4740   44.2280   27.4310 N.3   154  THR154     -0.1218
     89  CA        17.5730   43.9070   26.0110 C.3   154  THR154      0.1862
     90  C         16.1920   43.6010   25.4450 C.2   154  THR154      0.2287
     91  O         15.3690   42.9610   26.1060 O.2   154  THR154     -0.2866
     92  CB        18.5050   42.7040   25.7820 C.3   154  THR154      0.1770
     93  OG1       19.7830   42.9690   26.3710 O.3   154  THR154     -0.2211
     94  CG2       18.6880   42.4190   24.2880 C.3   154  THR154      0.0375
     95  N         14.1290   42.7810   21.4050 N.3   156  PHE156     -0.1241
     96  CA        14.3120   42.5800   19.9750 C.3   156  PHE156      0.1605
     97  C         13.0160   42.1190   19.3260 C.2   156  PHE156      0.2264
     98  O         12.1510   41.5240   19.9750 O.2   156  PHE156     -0.2867
     99  CB        15.4480   41.5890   19.6740 C.3   156  PHE156      0.0534
    100  CG        15.2570   40.2100   20.2560 C.ar  156  PHE156     -0.0203
    101  CD1       15.5970   39.9420   21.5730 C.ar  156  PHE156     -0.0042
    102  CD2       14.7890   39.1710   19.4670 C.ar  156  PHE156     -0.0042
    103  CE1       15.4460   38.6680   22.1010 C.ar  156  PHE156     -0.0003
    104  CE2       14.6390   37.8940   19.9880 C.ar  156  PHE156     -0.0003
    105  CZ        14.9710   37.6440   21.3070 C.ar  156  PHE156     -0.0000
    106  N         16.6690   30.7700   16.5500 N.3   164  LEU164     -0.1245
    107  CA        16.6920   30.7380   18.0090 C.3   164  LEU164      0.1561
    108  C         15.8530   29.5830   18.5470 C.2   164  LEU164      0.2260
    109  O         16.2220   28.9510   19.5430 O.2   164  LEU164     -0.2867
    110  CB        16.1900   32.0680   18.5720 C.3   164  LEU164      0.0270
    111  CG        17.1510   33.2620   18.5360 C.3   164  LEU164      0.0019
    112  CD1       16.3880   34.5730   18.6900 C.3   164  LEU164      0.0001
    113  CD2       18.2240   33.1340   19.6100 C.3   164  LEU164      0.0001
    114  N         17.1110   28.0110   22.1160 N.3   169  ARG169     -0.1245
    115  CA        17.3010   29.2570   22.8460 C.3   169  ARG169      0.1563
    116  C         15.9890   29.9170   23.2530 C.2   169  ARG169      0.2260
    117  O         16.0130   31.0060   23.8340 O.2   169  ARG169     -0.2867
    118  CB        18.1340   30.2340   22.0060 C.3   169  ARG169      0.0307
    119  CG        19.6310   30.1740   22.2780 C.3   169  ARG169      0.0489
    120  CD        20.2490   28.8750   21.7770 C.3   169  ARG169      0.2205
    121  NE        21.6600   28.7740   22.1370 N.pl3 169  ARG169     -0.0865
    122  CZ        22.4780   27.8170   21.7080 C.cat 169  ARG169      0.5346
    123  NH1       22.0310   26.8680   20.8950 N.pl3 169  ARG169      0.1354
    124  NH2       23.7470   27.8110   22.0910 N.pl3 169  ARG169      0.1354
    125  N         15.1290   40.2790   27.1240 N.3   186  SER186     -0.1217
    126  CA        15.8620   39.5480   28.1390 C.3   186  SER186      0.1889
    127  C         15.0540   39.4640   29.4280 C.2   186  SER186      0.2288
    128  O         14.1440   40.2600   29.6780 O.2   186  SER186     -0.2866
    129  CB        17.2020   40.2230   28.4290 C.3   186  SER186      0.2089
    130  OG        17.0050   41.5470   28.9000 O.3   186  SER186     -0.2183
    131  N         19.1770   36.4810   32.0660 N.3   190  GLY190     -0.1210
    132  CA        19.8190   36.3020   30.7790 C.3   190  GLY190      0.1956
    133  C         19.1550   35.3070   29.8570 C.2   190  GLY190      0.2613
    134  O         19.7940   34.8470   28.9030 O.2   190  GLY190     -0.2717
    135  N         17.9060   34.9370   30.1190 N.am  191  THR191     -0.1938
    136  CA        17.1220   34.1400   29.1900 C.3   191  THR191      0.2028
    137  C         16.2400   35.0600   28.3520 C.2   191  THR191      0.2642
    138  O         16.1500   36.2670   28.5910 O.2   191  THR191     -0.2714
    139  CB        16.2640   33.1040   29.9310 C.3   191  THR191      0.1808
    140  OG1       15.3680   33.7730   30.8270 O.3   191  THR191     -0.2208
    141  CG2       17.1420   32.1350   30.7190 C.3   191  THR191      0.0379
    142  N         15.5830   34.4740   27.3600 N.am  192  ILE192     -0.1977
    143  CA        14.6990   35.2070   26.4620 C.3   192  ILE192      0.1596
    144  C         13.2570   34.9770   26.8900 C.2   192  ILE192      0.2287
    145  O         12.8690   33.8530   27.2330 O.2   192  ILE192     -0.2864
    146  CB        14.9240   34.7750   25.0000 C.3   192  ILE192      0.0276
    147  CG1       16.3690   35.0690   24.5750 C.3   192  ILE192      0.0022
    148  CG2       13.9370   35.4690   24.0770 C.3   192  ILE192      0.0022
    149  CD1       16.7420   34.4990   23.2180 C.3   192  ILE192      0.0001
    150  N         27.4320   36.1700   14.4520 N.3   257  ILE257     -0.1231
    151  CA        26.5630   35.4220   15.3560 C.3   257  ILE257      0.1692
    152  C         25.2080   36.1100   15.4790 C.2   257  ILE257      0.2592
    153  O         24.1570   35.4580   15.4290 O.2   257  ILE257     -0.2718
    154  CB        27.2370   35.2380   16.7280 C.3   257  ILE257      0.0266
    155  CG1       28.4560   34.3180   16.6030 C.3   257  ILE257      0.0019
    156  CG2       26.2410   34.6880   17.7400 C.3   257  ILE257      0.0020
    157  CD1       28.1260   32.9020   16.1630 C.3   257  ILE257      0.0001
    158  N         25.2090   37.4380   15.6160 N.am  258  SER258     -0.1952
    159  CA        23.9500   38.1700   15.7070 C.3   258  SER258      0.1924
    160  C         23.1140   37.9890   14.4470 C.2   258  SER258      0.2314
    161  O         21.8940   37.8100   14.5250 O.2   258  SER258     -0.2863
    162  CB        24.2200   39.6510   15.9690 C.3   258  SER258      0.2116
    163  OG        24.7850   39.8430   17.2600 O.3   258  SER258     -0.2180
    164  N         21.3150   34.4700   14.3440 N.3   261  TYR261     -0.1227
    165  CA        20.1530   34.2890   15.2060 C.3   261  TYR261      0.1736
    166  C         19.0940   35.3730   15.0410 C.2   261  TYR261      0.2595
    167  O         17.9090   35.0900   15.2440 O.2   261  TYR261     -0.2718
    168  CB        20.6010   34.1920   16.6710 C.3   261  TYR261      0.0548
    169  CG        21.2710   32.8630   16.9460 C.ar  261  TYR261     -0.0200
    170  CD1       20.5180   31.7090   17.1290 C.ar  261  TYR261     -0.0009
    171  CD2       22.6550   32.7480   16.9600 C.ar  261  TYR261     -0.0009
    172  CE1       21.1240   30.4850   17.3500 C.ar  261  TYR261      0.0417
    173  CE2       23.2700   31.5270   17.1820 C.ar  261  TYR261      0.0417
    174  CZ        22.5000   30.4000   17.3750 C.ar  261  TYR261      0.1957
    175  OH        23.1070   29.1820   17.5910 O.3   261  TYR261     -0.2866
    176  N         19.4720   36.5940   14.6520 N.am  262  ALA262     -0.1980
    177  CA        18.4610   37.6180   14.4030 C.3   262  ALA262      0.1597
    178  C         17.8250   37.4700   13.0300 C.2   262  ALA262      0.2287
    179  O         16.6460   37.8050   12.8610 O.2   262  ALA262     -0.2864
    180  CB        19.0590   39.0190   14.5420 C.3   262  ALA262      0.0319
    181  N         17.5310   44.7200   17.2230 N.3   268  ILE268     -0.1245
    182  CA        17.8370   44.5240   18.6370 C.3   268  ILE268      0.1561
    183  C         18.0670   45.8910   19.2680 C.2   268  ILE268      0.2260
    184  O         18.7860   46.7240   18.7040 O.2   268  ILE268     -0.2867
    185  CB        19.0690   43.6190   18.8280 C.3   268  ILE268      0.0252
    186  CG1       18.8490   42.2600   18.1560 C.3   268  ILE268      0.0019
    187  CG2       19.3910   43.4490   20.3090 C.3   268  ILE268      0.0019
    188  CD1       20.1290   41.5590   17.7670 C.3   268  ILE268      0.0001
@<TRIPOS>BOND
     1   179   178    2
     2   178   177    1
     3   164   165    1
     4   177   180    1
     5   177   176    1
     6   160   161    2
     7   160   159    1
     8   150   151    1
     9   176   166   am
    10   166   165    1
    11   166   167    2
    12   165   168    1
    13    10     9    2
    14   151   152    1
    15   151   154    1
    16    21    19    1
    17   153   152    2
    18   152   158   am
    19   158   159    1
    20    15    16    1
    21   159   162    1
    22   162   163    1
    23    16    19    1
    24    16    17    1
    25   157   155    1
    26     9     8    1
    27    19    20    1
    28   106   107    1
    29   155   154    1
    30   168   169    1
    31   154   156    1
    32   169   171   ar
    33   169   170   ar
    34   171   173   ar
    35    27    26    1
    36   170   172   ar
    37   173   174   ar
    38    17    22   am
    39    17    18    2
    40   181   182    1
    41   172   174   ar
    42   174   175    1
    43     7     8    1
    44    22    23    1
    45     8    11    1
    46   188   186    1
    47    11    12    1
    48   107   108    1
    49   107   110    1
    50    26    23    1
    51   186   185    1
    52   111   110    1
    53   111   112    1
    54   111   113    1
    55   108   109    2
    56    23    24    1
    57     4     3    2
    58   182   185    1
    59   182   183    1
    60    25    24    2
    61   184   183    2
    62    87    86    1
    63   185   187    1
    64     2     1    1
    65     2     3    1
    66     2     5    1
    67    24    28   am
    68    97    98    2
    69    97    96    1
    70   102   104   ar
    71   102   100   ar
    72    12    14    1
    73    12    13    1
    74    86    83    1
    75    99    96    1
    76    99   100    1
    77     6     5    1
    78    96    95    1
    79   104   105   ar
    80   100   101   ar
    81    83    84    1
    82    83    82    1
    83    28    29    1
    84    31    30    2
    85   123   122    1
    86    84    85    2
    87    30    29    1
    88   105   103   ar
    89    29    32    1
    90    82    79   am
    91   101   103   ar
    92   122   124    1
    93   122   121    2
    94   120   121    1
    95   120   119    1
    96   118   119    1
    97   118   115    1
    98   114   115    1
    99    40    39    1
   100    79    80    2
   101    79    78    1
   102    81    78    1
   103    41    39    1
   104   115   116    1
   105    32    33    1
   106    39    38    1
   107   149   147    1
   108   116   117    2
   109    78    77    1
   110    55    54    1
   111    45    44    2
   112   148   146    1
   113    54    51    1
   114    94    92    1
   115    38    35    1
   116   147   146    1
   117    77    73   am
   118    48    47    1
   119   146   143    1
   120    51    50    1
   121    51    52    1
   122    44    50   am
   123    44    43    1
   124    46    47    1
   125    46    43    1
   126    90    89    1
   127    90    91    2
   128    49    47    1
   129    35    34    1
   130    35    36    1
   131    73    74    2
   132    73    72    1
   133    56    52   am
   134    56    57    1
   135    43    42    1
   136    92    89    1
   137    92    93    1
   138    76    75    1
   139    89    88    1
   140    52    53    2
   141   143   144    1
   142   143   142    1
   143    57    58    1
   144    58    59    2
   145   144   145    2
   146    36    37    2
   147    72    75    1
   148    72    71    1
   149   125   126    1
   150   142   137   am
   151    71    62   am
   152   126   129    1
   153   126   127    1
   154   137   138    2
   155   137   136    1
   156   129   130    1
   157   134   133    2
   158   136   139    1
   159   136   135    1
   160    62    63    2
   161    62    61    1
   162   127   128    2
   163   133   135   am
   164   133   132    1
   165   139   141    1
   166   139   140    1
   167    60    61    1
   168    61    64    1
   169   132   131    1
   170    64    65    1
   171    65    66    1
   172    66    67    1
   173    69    68    1
   174    67    68    2
   175    68    70    1
