@<TRIPOS>MOLECULE
tmp/5v86A00.pdb
 184 177 0 0 0
SMALL
GASTEIGER

@<TRIPOS>ATOM
      1  N         22.6360  -14.7500   -8.7840 N.3   197  ILE197     -0.1245
      2  CA        21.4470  -14.9650   -9.5520 C.3   197  ILE197      0.1561
      3  C         21.0110  -16.4270   -9.5880 C.2   197  ILE197      0.2260
      4  O         19.8170  -16.7080   -9.4510 O.2   197  ILE197     -0.2867
      5  CB        21.6600  -14.4620  -11.0110 C.3   197  ILE197      0.0252
      6  CG1       21.9570  -12.9490  -10.9990 C.3   197  ILE197      0.0019
      7  CG2       20.4470  -14.7810  -11.8660 C.3   197  ILE197      0.0019
      8  CD1       20.8730  -12.0910  -10.3950 C.3   197  ILE197      0.0001
      9  N         19.3120  -17.1270   -6.3090 N.3   200  ILE200     -0.1231
     10  CA        18.0310  -16.4910   -6.1580 C.3   200  ILE200      0.1692
     11  C         16.9870  -17.2390   -6.9760 C.2   200  ILE200      0.2591
     12  O         15.8650  -17.4170   -6.5420 O.2   200  ILE200     -0.2718
     13  CB        18.0570  -14.9810   -6.5010 C.3   200  ILE200      0.0266
     14  CG1       19.0830  -14.2330   -5.6640 C.3   200  ILE200      0.0019
     15  CG2       16.6840  -14.3570   -6.2520 C.3   200  ILE200      0.0020
     16  CD1       19.4530  -12.8970   -6.2260 C.3   200  ILE200      0.0001
     17  N         17.3290  -17.6470   -8.1930 N.am  201  GLN201     -0.1979
     18  CA        16.4300  -18.4390   -8.9960 C.3   201  GLN201      0.1601
     19  C         16.0500  -19.7290   -8.2730 C.2   201  GLN201      0.2287
     20  O         14.8790  -20.1170   -8.2770 O.2   201  GLN201     -0.2864
     21  CB        17.0800  -18.7430  -10.3190 C.3   201  GLN201      0.0394
     22  CG        16.2620  -19.6510  -11.2530 C.3   201  GLN201      0.0908
     23  CD        15.1480  -18.9010  -11.9210 C.2   201  GLN201      0.2608
     24  OE1       15.3890  -17.9130  -12.6000 O.2   201  GLN201     -0.2717
     25  NE2       13.9180  -19.3870  -11.7650 N.am  201  GLN201     -0.0878
     26  N         16.0440  -20.2480   -5.0270 N.3   203  PHE203     -0.1227
     27  CA        15.1890  -19.7860   -3.9300 C.3   203  PHE203      0.1736
     28  C         13.7580  -19.5700   -4.4170 C.2   203  PHE203      0.2595
     29  O         12.8110  -20.0700   -3.8290 O.2   203  PHE203     -0.2718
     30  CB        15.8610  -18.5390   -3.3490 C.3   203  PHE203      0.0547
     31  CG        15.1690  -17.8930   -2.2190 C.ar  203  PHE203     -0.0202
     32  CD1       15.2190  -18.4050   -0.9600 C.ar  203  PHE203     -0.0042
     33  CD2       14.5870  -16.6650   -2.4070 C.ar  203  PHE203     -0.0042
     34  CE1       14.6160  -17.7070    0.0990 C.ar  203  PHE203     -0.0003
     35  CE2       14.0060  -15.9880   -1.3770 C.ar  203  PHE203     -0.0003
     36  CZ        14.0240  -16.5100   -0.1350 C.ar  203  PHE203     -0.0000
     37  N         13.5880  -18.8460   -5.5130 N.am  204  CYS204     -0.1970
     38  CA        12.2550  -18.6770   -6.1070 C.3   204  CYS204      0.1712
     39  C         11.6320  -20.0090   -6.5280 C.2   204  CYS204      0.2296
     40  O         10.4310  -20.2220   -6.3030 O.2   204  CYS204     -0.2864
     41  CB        12.3360  -17.7410   -7.3160 C.3   204  CYS204      0.0983
     42  SG        12.7670  -16.0370   -6.9050 S.3   204  CYS204     -0.0798
     43  N         10.2060  -15.5110  -10.7290 N.3   211  PRO211     -0.2102
     44  CA        11.0590  -14.3770  -10.3370 C.3   211  PRO211      0.1504
     45  C         10.4840  -13.0060  -10.6650 C.2   211  PRO211      0.2575
     46  O         10.8550  -12.0470   -9.9740 O.2   211  PRO211     -0.2718
     47  CB        12.3150  -14.5920  -11.1810 C.3   211  PRO211      0.0282
     48  CG        12.4070  -16.0800  -11.2820 C.3   211  PRO211      0.0208
     49  CD        10.9570  -16.5110  -11.5010 C.3   211  PRO211      0.0893
     50  N          9.6620  -12.8910  -11.7090 N.am  212  ALA212     -0.1980
     51  CA         9.1390  -11.5910  -12.1090 C.3   212  ALA212      0.1597
     52  C          7.8410  -11.2140  -11.3820 C.2   212  ALA212      0.2287
     53  O          7.2340  -10.1790  -11.6590 O.2   212  ALA212     -0.2864
     54  CB         8.9360  -11.5800  -13.6320 C.3   212  ALA212      0.0319
     55  N          7.9610  -11.8940   -5.3140 N.3   216  VAL216     -0.1231
     56  CA         9.4080  -11.9420   -5.1420 C.3   216  VAL216      0.1692
     57  C          9.9240  -10.5660   -4.6760 C.2   216  VAL216      0.2591
     58  O         10.7810  -10.4640   -3.7920 O.2   216  VAL216     -0.2718
     59  CB        10.0700  -12.4190   -6.4320 C.3   216  VAL216      0.0266
     60  CG1       11.5380  -12.1620   -6.4050 C.3   216  VAL216      0.0020
     61  CG2        9.7750  -13.9160   -6.6200 C.3   216  VAL216      0.0020
     62  N          9.3820   -9.4990   -5.2540 N.am  217  LEU217     -0.1980
     63  CA         9.7690   -8.1650   -4.8430 C.3   217  LEU217      0.1596
     64  C          9.3210   -7.8700   -3.3890 C.2   217  LEU217      0.2287
     65  O         10.0090   -7.1800   -2.6250 O.2   217  LEU217     -0.2864
     66  CB         9.1840   -7.1600   -5.8310 C.3   217  LEU217      0.0297
     67  CG         9.4800   -5.6900   -5.5020 C.3   217  LEU217      0.0022
     68  CD1       10.9810   -5.4470   -5.5160 C.3   217  LEU217      0.0001
     69  CD2        8.7630   -4.8030   -6.5540 C.3   217  LEU217      0.0001
     70  N          9.1350  -10.1560   -1.0670 N.3   219  ILE219     -0.1231
     71  CA        10.1340  -10.8300   -0.2750 C.3   219  ILE219      0.1692
     72  C         11.3740   -9.9740   -0.1320 C.2   219  ILE219      0.2591
     73  O         11.9050   -9.8430    0.9510 O.2   219  ILE219     -0.2718
     74  CB        10.4700  -12.2220   -0.8710 C.3   219  ILE219      0.0266
     75  CG1        9.2560  -13.1230   -0.6860 C.3   219  ILE219      0.0019
     76  CG2       11.7090  -12.8090   -0.1910 C.3   219  ILE219      0.0020
     77  CD1        9.2710  -14.3480   -1.5450 C.3   219  ILE219      0.0001
     78  N         11.8630   -9.4310   -1.2350 N.am  220  ALA220     -0.1980
     79  CA        13.0430   -8.5800   -1.2030 C.3   220  ALA220      0.1597
     80  C         12.8570   -7.4120   -0.2320 C.2   220  ALA220      0.2287
     81  O         13.7380   -7.0670    0.5300 O.2   220  ALA220     -0.2864
     82  CB        13.3620   -8.0750   -2.5960 C.3   220  ALA220      0.0319
     83  N         13.0780   -8.6450    3.3390 N.3   223  PHE223     -0.1241
     84  CA        14.4930   -8.9180    3.6220 C.3   223  PHE223      0.1605
     85  C         15.3870   -7.6770    3.5330 C.2   223  PHE223      0.2264
     86  O         16.5860   -7.7390    3.7160 O.2   223  PHE223     -0.2867
     87  CB        15.0200  -10.0030    2.6770 C.3   223  PHE223      0.0534
     88  CG        14.6370  -11.4080    3.0830 C.ar  223  PHE223     -0.0203
     89  CD1       15.5340  -12.2180    3.7400 C.ar  223  PHE223     -0.0042
     90  CD2       13.4060  -11.9240    2.8200 C.ar  223  PHE223     -0.0042
     91  CE1       15.2190  -13.4670    4.1110 C.ar  223  PHE223     -0.0003
     92  CE2       13.1020  -13.2390    3.2020 C.ar  223  PHE223     -0.0003
     93  CZ        14.0130  -13.9820    3.8310 C.ar  223  PHE223     -0.0000
     94  N         16.5330   -6.1620    1.0500 N.3   225  ALA225     -0.1245
     95  CA        17.6140   -6.4270    0.1180 C.3   225  ALA225      0.1562
     96  C         18.1330   -5.1330   -0.4870 C.2   225  ALA225      0.2260
     97  O         17.3670   -4.2980   -0.9360 O.2   225  ALA225     -0.2867
     98  CB        17.1680   -7.3940   -0.9900 C.3   225  ALA225      0.0290
     99  N         19.9750   -4.8030   -3.2570 N.3   227  THR227     -0.1203
    100  CA        20.0430   -4.7580   -4.7260 C.3   227  THR227      0.1994
    101  C         19.5010   -6.0310   -5.3540 C.2   227  THR227      0.2618
    102  O         19.6290   -7.1160   -4.7870 O.2   227  THR227     -0.2717
    103  CB        21.5060   -4.5750   -5.2220 C.3   227  THR227      0.1784
    104  OG1       21.5470   -4.6380   -6.6470 O.3   227  THR227     -0.2211
    105  CG2       22.4240   -5.6220   -4.7070 C.3   227  THR227      0.0376
    106  N         18.9010   -5.9240   -6.5360 N.am  228  GLN228     -0.1965
    107  CA        18.3230   -7.0740   -7.1900 C.3   228  GLN228      0.1733
    108  C         19.3560   -8.1070   -7.6030 C.2   228  GLN228      0.2616
    109  O         19.0100   -9.2670   -7.8370 O.2   228  GLN228     -0.2715
    110  CB        17.5340   -6.6340   -8.4310 C.3   228  GLN228      0.0408
    111  CG        18.3550   -5.8260   -9.4320 C.3   228  GLN228      0.0908
    112  CD        17.7020   -5.6900  -10.8020 C.2   228  GLN228      0.2608
    113  OE1       17.4860   -6.6860  -11.4940 O.2   228  GLN228     -0.2717
    114  NE2       17.4240   -4.4630  -11.2130 N.am  228  GLN228     -0.0878
    115  N         20.6080   -7.7020   -7.7310 N.am  229  CYS229     -0.1954
    116  CA        21.6000   -8.5860   -8.3270 C.3   229  CYS229      0.1843
    117  C         22.1560   -9.6300   -7.3780 C.2   229  CYS229      0.2625
    118  O         22.7990  -10.5740   -7.8300 O.2   229  CYS229     -0.2714
    119  CB        22.7390   -7.7920   -8.9880 C.3   229  CYS229      0.0997
    120  SG        23.9100   -6.9820   -7.8700 S.3   229  CYS229     -0.0797
    121  N         21.9190   -9.4870   -6.0900 N.am  230  GLU230     -0.1963
    122  CA        22.4440  -10.4610   -5.1570 C.3   230  GLU230      0.1733
    123  C         21.6040  -10.4260   -3.8910 C.2   230  GLU230      0.2616
    124  O         20.7790   -9.5460   -3.6990 O.2   230  GLU230     -0.2715
    125  CB        23.9080  -10.1820   -4.8080 C.3   230  GLU230      0.0429
    126  CG        24.0950   -8.9510   -3.9720 C.3   230  GLU230      0.1163
    127  CD        25.5150   -8.7880   -3.4430 C.2   230  GLU230      0.3649
    128  OE1       26.4500   -8.9290   -4.2480 O.co2 230  GLU230     -0.2457
    129  OE2       25.6660   -8.5070   -2.2210 O.co2 230  GLU230     -0.2457
    130  N         21.8270  -11.3890   -3.0280 N.am  231  PHE231     -0.1974
    131  CA        21.0720  -11.5440   -1.7890 C.3   231  PHE231      0.1639
    132  C         22.1610  -11.9100   -0.7720 C.2   231  PHE231      0.2290
    133  O         22.6930  -12.9870   -0.8230 O.2   231  PHE231     -0.2864
    134  CB        19.9930  -12.6220   -2.0830 C.3   231  PHE231      0.0560
    135  CG        19.0270  -12.9370   -0.9340 C.ar  231  PHE231     -0.0200
    136  CD1       18.1780  -14.0250   -1.0790 C.ar  231  PHE231     -0.0042
    137  CD2       18.9310  -12.1840    0.2160 C.ar  231  PHE231     -0.0042
    138  CE1       17.2690  -14.3490   -0.1100 C.ar  231  PHE231     -0.0003
    139  CE2       18.0270  -12.5470    1.2170 C.ar  231  PHE231     -0.0003
    140  CZ        17.2020  -13.6020    1.0460 C.ar  231  PHE231     -0.0000
    141  N         16.3860   -0.7460   -4.6410 N.3   278  PHE278     -0.1241
    142  CA        16.6010   -2.1480   -4.9260 C.3   278  PHE278      0.1605
    143  C         16.8430   -2.3740   -6.3970 C.2   278  PHE278      0.2264
    144  O         17.7000   -3.1840   -6.7800 O.2   278  PHE278     -0.2867
    145  CB        15.3640   -2.9030   -4.4470 C.3   278  PHE278      0.0534
    146  CG        15.3540   -4.3780   -4.8130 C.ar  278  PHE278     -0.0203
    147  CD1       16.1100   -5.2930   -4.1490 C.ar  278  PHE278     -0.0042
    148  CD2       14.5160   -4.8150   -5.8190 C.ar  278  PHE278     -0.0042
    149  CE1       16.0500   -6.6410   -4.5140 C.ar  278  PHE278     -0.0003
    150  CE2       14.4500   -6.1460   -6.1680 C.ar  278  PHE278     -0.0003
    151  CZ        15.2180   -7.0610   -5.5050 C.ar  278  PHE278     -0.0000
    152  N         14.6200    0.0380  -16.7610 N.3   291  MET291     -0.1245
    153  CA        14.4110   -0.6760  -15.5070 C.3   291  MET291      0.1570
    154  C         13.2780   -0.0350  -14.6850 C.2   291  MET291      0.2261
    155  O         12.4680   -0.7230  -14.0380 O.2   291  MET291     -0.2867
    156  CB        15.7000   -0.7300  -14.6870 C.3   291  MET291      0.0387
    157  CG        15.6110   -1.6690  -13.5110 C.3   291  MET291      0.0595
    158  SD        15.5600   -3.3800  -13.9980 S.3   291  MET291     -0.1393
    159  CE        17.2630   -3.5740  -14.5030 C.3   291  MET291      0.0692
    160  N         10.0190   -1.2160  -16.1650 N.3   294  ALA294     -0.1231
    161  CA         9.7390   -2.5990  -15.7640 C.3   294  ALA294      0.1694
    162  C          9.1840   -2.6670  -14.3540 C.2   294  ALA294      0.2592
    163  O          8.1720   -3.3330  -14.1010 O.2   294  ALA294     -0.2718
    164  CB        10.9740   -3.4640  -15.9180 C.3   294  ALA294      0.0304
    165  N          9.8340   -1.9740  -13.4260 N.am  295  TYR295     -0.1976
    166  CA         9.3450   -2.0270  -12.0560 C.3   295  TYR295      0.1639
    167  C          8.0610   -1.2370  -11.8750 C.2   295  TYR295      0.2290
    168  O          7.2070   -1.6510  -11.1270 O.2   295  TYR295     -0.2864
    169  CB        10.4330   -1.6450  -11.0580 C.3   295  TYR295      0.0560
    170  CG        11.2600   -2.8580  -10.6850 C.ar  295  TYR295     -0.0198
    171  CD1       10.7910   -3.7870   -9.7650 C.ar  295  TYR295     -0.0009
    172  CD2       12.4530   -3.1230  -11.3250 C.ar  295  TYR295     -0.0009
    173  CE1       11.5170   -4.9160   -9.4600 C.ar  295  TYR295      0.0417
    174  CE2       13.2030   -4.2470  -11.0230 C.ar  295  TYR295      0.0417
    175  CZ        12.7200   -5.1550  -10.1090 C.ar  295  TYR295      0.1957
    176  OH        13.4400   -6.2830   -9.7890 O.3   295  TYR295     -0.2866
    177  N          5.3350   -3.4930  -12.7930 N.3   298  LEU298     -0.1245
    178  CA         5.1010   -4.5280  -11.8110 C.3   298  LEU298      0.1561
    179  C          4.3210   -3.9790  -10.6080 C.2   298  LEU298      0.2260
    180  O          3.3580   -4.5830  -10.1660 O.2   298  LEU298     -0.2867
    181  CB         6.4220   -5.1000  -11.3680 C.3   298  LEU298      0.0270
    182  CG         6.3310   -6.2330  -10.3560 C.3   298  LEU298      0.0019
    183  CD1        5.5560   -7.3990  -10.9310 C.3   298  LEU298      0.0001
    184  CD2        7.7170   -6.6300   -9.9720 C.3   298  LEU298      0.0001
@<TRIPOS>BOND
     1   152   153    1
     2   160   161    1
     3   164   161    1
     4   161   162    1
     5   153   156    1
     6   153   154    1
     7   156   157    1
     8   154   155    2
     9   159   158    1
    10   162   163    2
    11   162   165   am
    12   158   157    1
    13    54    51    1
    14   165   166    1
    15   177   178    1
    16    24    23    2
    17    51    50    1
    18    51    52    1
    19   166   167    1
    20   166   169    1
    21    23    25   am
    22    23    22    1
    23   167   168    2
    24     7     5    1
    25   178   181    1
    26   178   179    1
    27    50    45   am
    28    53    52    2
    29    49    48    1
    30    49    43    1
    31   113   112    2
    32   181   182    1
    33   172   174   ar
    34   172   170   ar
    35    48    47    1
    36    22    21    1
    37   114   112   am
    38    47    44    1
    39   169   170    1
    40   174   175   ar
    41     5     6    1
    42     5     2    1
    43     6     8    1
    44   183   182    1
    45   112   111    1
    46    43    44    1
    47   170   171   ar
    48    45    44    1
    49    45    46    2
    50   179   180    2
    51   182   184    1
    52    21    18    1
    53   175   176    1
    54   175   173   ar
    55   171   173   ar
    56     3     2    1
    57     3     4    2
    58     2     1    1
    59   111   110    1
    60    18    19    1
    61    18    17    1
    62   119   116    1
    63   119   120    1
    64   110   107    1
    65   116   115    1
    66   116   117    1
    67    20    19    2
    68    17    11   am
    69   109   108    2
    70   118   117    2
    71   115   108   am
    72   108   107    1
    73   117   121   am
    74    41    42    1
    75    41    38    1
    76   107   106    1
    77    11    12    2
    78    11    10    1
    79   144   143    2
    80   104   103    1
    81    61    59    1
    82    69    67    1
    83   106   101   am
    84    39    40    2
    85    39    38    1
    86    13    15    1
    87    13    10    1
    88    13    14    1
    89    59    60    1
    90    59    56    1
    91   143   142    1
    92     9    10    1
    93    16    14    1
    94   150   148   ar
    95   150   151   ar
    96    38    37    1
    97   121   122    1
    98    66    67    1
    99    66    63    1
   100   148   146   ar
   101    68    67    1
   102    37    28   am
   103   151   149   ar
   104   101   102    2
   105   101   100    1
   106    55    56    1
   107    62    63    1
   108    62    57   am
   109   103   100    1
   110   103   105    1
   111   122   125    1
   112   122   123    1
   113    56    57    1
   114    26    27    1
   115   142   141    1
   116   142   145    1
   117    63    64    1
   118   146   145    1
   119   146   147   ar
   120   125   126    1
   121   100    99    1
   122    57    58    2
   123   149   147   ar
   124    28    27    1
   125    28    29    2
   126   128   127   ar
   127   126   127    1
   128    27    30    1
   129   123   124    2
   130   123   130   am
   131   127   129   ar
   132    64    65    2
   133    30    31    1
   134   130   131    1
   135    82    79    1
   136    33    31   ar
   137    33    35   ar
   138    31    32   ar
   139   134   131    1
   140   134   135    1
   141   131   132    1
   142    77    75    1
   143    35    36   ar
   144    78    79    1
   145    78    72   am
   146    79    80    1
   147   136   135   ar
   148   136   138   ar
   149    70    71    1
   150    98    95    1
   151    32    34   ar
   152    97    96    2
   153   135   137   ar
   154    74    75    1
   155    74    71    1
   156    74    76    1
   157   133   132    2
   158    96    95    1
   159    71    72    1
   160    80    81    2
   161    36    34   ar
   162    72    73    2
   163   138   140   ar
   164    95    94    1
   165   137   139   ar
   166   140   139   ar
   167    87    88    1
   168    87    84    1
   169    90    88   ar
   170    90    92   ar
   171    88    89   ar
   172    92    93   ar
   173    83    84    1
   174    85    84    1
   175    85    86    2
   176    89    91   ar
   177    93    91   ar
