@<TRIPOS>MOLECULE
tmp/5v87B00.pdb
 127 123 0 0 0
SMALL
GASTEIGER

@<TRIPOS>ATOM
      1  N         -9.3460   21.9160  -27.7950 N.3    51  PHE51      -0.1241
      2  CA        -9.4500   21.0620  -28.9730 C.3    51  PHE51       0.1605
      3  C         -9.6400   21.8510  -30.2600 C.2    51  PHE51       0.2264
      4  O         -9.0260   21.5230  -31.2820 O.2    51  PHE51      -0.2867
      5  CB       -10.6040   20.0610  -28.8070 C.3    51  PHE51       0.0534
      6  CG       -10.2840   18.9270  -27.8650 C.ar   51  PHE51      -0.0203
      7  CD1       -9.4850   17.8750  -28.2870 C.ar   51  PHE51      -0.0042
      8  CD2      -10.7660   18.9180  -26.5650 C.ar   51  PHE51      -0.0042
      9  CE1       -9.1670   16.8310  -27.4240 C.ar   51  PHE51      -0.0003
     10  CE2      -10.4570   17.8690  -25.7030 C.ar   51  PHE51      -0.0003
     11  CZ        -9.6560   16.8340  -26.1330 C.ar   51  PHE51      -0.0000
     12  N         -6.6350   23.2330  -32.1580 N.3    54  ARG54      -0.1245
     13  CA        -5.6930   22.3190  -32.8020 C.3    54  ARG54       0.1563
     14  C         -5.9230   22.2530  -34.3020 C.2    54  ARG54       0.2260
     15  O         -4.9660   22.1000  -35.0700 O.2    54  ARG54      -0.2867
     16  CB        -5.8030   20.9180  -32.2050 C.3    54  ARG54       0.0307
     17  CG        -5.6830   20.9290  -30.6990 C.3    54  ARG54       0.0489
     18  CD        -5.7430   19.5480  -30.0740 C.3    54  ARG54       0.2205
     19  NE        -5.9750   19.6640  -28.6390 N.pl3  54  ARG54      -0.0865
     20  CZ        -5.9870   18.6420  -27.7900 C.cat  54  ARG54       0.5346
     21  NH1       -5.7590   17.4030  -28.2130 N.pl3  54  ARG54       0.1354
     22  NH2       -6.2350   18.8650  -26.5050 N.pl3  54  ARG54       0.1354
     23  N         -2.3710   20.9830  -22.9240 N.3    86  ARG86      -0.1245
     24  CA        -2.7980   19.9570  -23.8740 C.3    86  ARG86       0.1563
     25  C         -2.8800   20.5360  -25.2830 C.2    86  ARG86       0.2260
     26  O         -2.4300   19.9040  -26.2530 O.2    86  ARG86      -0.2867
     27  CB        -4.1480   19.3560  -23.4430 C.3    86  ARG86       0.0307
     28  CG        -4.0920   18.4740  -22.1910 C.3    86  ARG86       0.0489
     29  CD        -5.4470   18.4460  -21.4740 C.3    86  ARG86       0.2205
     30  NE        -6.5150   17.8980  -22.3000 N.pl3  86  ARG86      -0.0865
     31  CZ        -7.7540   17.6750  -21.8670 C.cat  86  ARG86       0.5346
     32  NH1       -8.0800   17.9620  -20.6070 N.pl3  86  ARG86       0.1354
     33  NH2       -8.6630   17.1520  -22.6930 N.pl3  86  ARG86       0.1354
     34  N          0.7650   20.8720  -26.5390 N.3    89  SER89      -0.1202
     35  CA         1.4620   19.6290  -26.8400 C.3    89  SER89       0.2020
     36  C          0.8620   18.9380  -28.0570 C.2    89  SER89       0.2618
     37  O          1.5840   18.5550  -28.9850 O.2    89  SER89      -0.2717
     38  CB         1.4240   18.7100  -25.6190 C.3    89  SER89       0.2103
     39  OG         2.2390   17.5870  -25.8290 O.3    89  SER89      -0.2182
     40  N         -0.4590   18.7610  -28.0660 N.am   90  TYR90      -0.1975
     41  CA        -1.0910   18.0910  -29.1960 C.3    90  TYR90       0.1639
     42  C         -1.2730   19.0250  -30.3840 C.2    90  TYR90       0.2290
     43  O         -1.1670   18.5800  -31.5290 O.2    90  TYR90      -0.2864
     44  CB        -2.4330   17.4880  -28.7680 C.3    90  TYR90       0.0560
     45  CG        -2.3020   16.4140  -27.6980 C.ar   90  TYR90      -0.0198
     46  CD1       -2.0100   15.0970  -28.0290 C.ar   90  TYR90      -0.0009
     47  CD2       -2.4740   16.7250  -26.3570 C.ar   90  TYR90      -0.0009
     48  CE1       -1.8860   14.1120  -27.0400 C.ar   90  TYR90       0.0417
     49  CE2       -2.3470   15.7540  -25.3660 C.ar   90  TYR90       0.0417
     50  CZ        -2.0610   14.4490  -25.7160 C.ar   90  TYR90       0.1957
     51  OH        -1.9420   13.4890  -24.7130 O.3    90  TYR90      -0.2866
     52  N          2.1300   19.7080  -32.1880 N.3    93  GLU93      -0.1231
     53  CA         2.5360   18.4790  -32.8640 C.3    93  GLU93       0.1699
     54  C          1.8150   18.3230  -34.1960 C.2    93  GLU93       0.2592
     55  O          2.3910   17.8030  -35.1590 O.2    93  GLU93      -0.2718
     56  CB         2.2700   17.2720  -31.9610 C.3    93  GLU93       0.0402
     57  CG         2.6230   15.9200  -32.5660 C.3    93  GLU93       0.1161
     58  CD         1.9280   14.7700  -31.8580 C.2    93  GLU93       0.3649
     59  OE1        1.3690   14.9980  -30.7610 O.co2  93  GLU93      -0.2457
     60  OE2        1.9260   13.6430  -32.4020 O.co2  93  GLU93      -0.2457
     61  N          0.5660   18.7820  -34.2720 N.am   94  LYS94      -0.1980
     62  CA        -0.1900   18.7050  -35.5150 C.3    94  LYS94       0.1596
     63  C          0.2210   19.8030  -36.4910 C.2    94  LYS94       0.2287
     64  O          0.4130   19.5390  -37.6840 O.2    94  LYS94      -0.2864
     65  CB        -1.6850   18.7860  -35.2140 C.3    94  LYS94       0.0298
     66  CG        -2.1690   17.5450  -34.4310 C.3    94  LYS94       0.0038
     67  CD        -3.6780   17.6440  -34.2450 C.3    94  LYS94       0.0206
     68  CE        -4.2120   16.3250  -33.7170 C.3    94  LYS94       0.1093
     69  NZ        -4.0370   16.3650  -32.2440 N.3    94  LYS94      -0.1314
     70  N          2.9670   19.3840  -14.4880 N.3   118  TYR118     -0.1241
     71  CA         2.0320   19.0930  -15.5800 C.3   118  TYR118      0.1605
     72  C          2.5460   19.6370  -16.9100 C.2   118  TYR118      0.2264
     73  O          2.5530   18.9290  -17.9320 O.2   118  TYR118     -0.2867
     74  CB         0.6420   19.6670  -15.2620 C.3   118  TYR118      0.0534
     75  CG        -0.3960   19.1460  -16.2150 C.ar  118  TYR118     -0.0201
     76  CD1       -0.6090   19.7670  -17.4480 C.ar  118  TYR118     -0.0009
     77  CD2       -1.1240   18.0140  -15.9140 C.ar  118  TYR118     -0.0009
     78  CE1       -1.5380   19.2770  -18.3220 C.ar  118  TYR118      0.0417
     79  CE2       -2.0770   17.5160  -16.8040 C.ar  118  TYR118      0.0417
     80  CZ        -2.2600   18.1550  -18.0050 C.ar  118  TYR118      0.1957
     81  OH        -3.2090   17.6450  -18.8660 O.3   118  TYR118     -0.2866
     82  N          5.7850   17.9040  -18.3040 N.3   121  GLU121     -0.1231
     83  CA         5.5040   16.6010  -18.8890 C.3   121  GLU121      0.1699
     84  C          4.9000   16.7500  -20.2780 C.2   121  GLU121      0.2592
     85  O          5.2520   16.0030  -21.2010 O.2   121  GLU121     -0.2718
     86  CB         4.5630   15.8170  -17.9890 C.3   121  GLU121      0.0402
     87  CG         4.2600   14.4380  -18.5210 C.3   121  GLU121      0.1161
     88  CD         3.4180   13.6420  -17.5580 C.2   121  GLU121      0.3649
     89  OE1        3.6730   13.7400  -16.3270 O.co2 121  GLU121     -0.2457
     90  OE2        2.5000   12.9400  -18.0400 O.co2 121  GLU121     -0.2457
     91  N          3.9820   17.7010  -20.4400 N.am  122  LYS122     -0.1980
     92  CA         3.4100   17.9420  -21.7580 C.3   122  LYS122      0.1596
     93  C          4.4570   18.4670  -22.7300 C.2   122  LYS122      0.2287
     94  O          4.3950   18.1730  -23.9330 O.2   122  LYS122     -0.2864
     95  CB         2.2300   18.9120  -21.6430 C.3   122  LYS122      0.0298
     96  CG         1.0290   18.2810  -20.9690 C.3   122  LYS122      0.0038
     97  CD         0.2460   17.3880  -21.9550 C.3   122  LYS122      0.0206
     98  CE        -0.8580   16.6070  -21.2500 C.3   122  LYS122      0.1093
     99  NZ        -0.2670   15.5760  -20.3280 N.3   122  LYS122     -0.1314
    100  N          6.5400   15.4940  -23.6890 N.3   125  ALA125     -0.1231
    101  CA         5.7610   14.6860  -24.6220 C.3   125  ALA125      0.1694
    102  C          5.7660   15.2910  -26.0220 C.2   125  ALA125      0.2592
    103  O          5.8310   14.5650  -27.0240 O.2   125  ALA125     -0.2718
    104  CB         4.3260   14.5340  -24.1030 C.3   125  ALA125      0.0304
    105  N          5.6900   16.6180  -26.1150 N.am  126  PHE126     -0.1976
    106  CA         5.7710   17.2500  -27.4280 C.3   126  PHE126      0.1639
    107  C          7.0890   16.9230  -28.1160 C.2   126  PHE126      0.2290
    108  O          7.1180   16.6380  -29.3210 O.2   126  PHE126     -0.2864
    109  CB         5.5840   18.7620  -27.3010 C.3   126  PHE126      0.0560
    110  CG         5.9730   19.5090  -28.5340 C.ar  126  PHE126     -0.0200
    111  CD1        5.1050   19.6000  -29.6140 C.ar  126  PHE126     -0.0042
    112  CD2        7.2180   20.0950  -28.6320 C.ar  126  PHE126     -0.0042
    113  CE1        5.4760   20.2730  -30.7610 C.ar  126  PHE126     -0.0003
    114  CE2        7.5900   20.7680  -29.7760 C.ar  126  PHE126     -0.0003
    115  CZ         6.7150   20.8600  -30.8450 C.ar  126  PHE126     -0.0000
    116  N          6.9830   13.2630  -29.5460 N.3   129  TYR129     -0.1241
    117  CA         6.0960   12.9650  -30.6580 C.3   129  TYR129      0.1605
    118  C          6.2170   13.9480  -31.8130 C.2   129  TYR129      0.2264
    119  O          5.8300   13.6040  -32.9360 O.2   129  TYR129     -0.2867
    120  CB         4.6450   12.8990  -30.1600 C.3   129  TYR129      0.0534
    121  CG         4.4280   11.7100  -29.2510 C.ar  129  TYR129     -0.0201
    122  CD1        4.4060   10.4210  -29.7680 C.ar  129  TYR129     -0.0009
    123  CD2        4.2930   11.8680  -27.8770 C.ar  129  TYR129     -0.0009
    124  CE1        4.2370    9.3220  -28.9560 C.ar  129  TYR129      0.0417
    125  CE2        4.1220   10.7650  -27.0480 C.ar  129  TYR129      0.0417
    126  CZ         4.0910    9.4920  -27.6000 C.ar  129  TYR129      0.1957
    127  OH         3.9180    8.3820  -26.8040 O.3   129  TYR129     -0.2866
@<TRIPOS>BOND
     1    64    63    2
     2    63    62    1
     3    62    65    1
     4    62    61    1
     5    65    66    1
     6    55    54    2
     7    15    14    2
     8    66    67    1
     9    14    13    1
    10    61    54   am
    11    67    68    1
    12    54    53    1
    13    68    69    1
    14   119   118    2
    15    53    52    1
    16    53    56    1
    17    13    16    1
    18    13    12    1
    19    57    56    1
    20    57    58    1
    21    60    58   ar
    22    16    17    1
    23    58    59   ar
    24   118   117    1
    25    43    42    2
    26     4     3    2
    27   115   113   ar
    28   115   114   ar
    29   113   111   ar
    30    17    18    1
    31   117   120    1
    32   117   116    1
    33    42    41    1
    34     3     2    1
    35   120   121    1
    36    18    19    1
    37   114   112   ar
    38   122   121   ar
    39   122   124   ar
    40   111   110   ar
    41   108   107    2
    42   121   123   ar
    43    41    44    1
    44    41    40    1
    45    37    36    2
    46     2     5    1
    47     2     1    1
    48   124   126   ar
    49     5     6    1
    50    44    45    1
    51    19    20    2
    52   112   110   ar
    53   110   109    1
    54     7     6   ar
    55     7     9   ar
    56    21    20    1
    57   107   106    1
    58    40    36   am
    59    36    35    1
    60    46    45   ar
    61    46    48   ar
    62   123   125   ar
    63     6     8   ar
    64    20    22    1
    65    45    47   ar
    66   126   125   ar
    67   126   127    1
    68   106   109    1
    69   106   105    1
    70     9    11   ar
    71    48    50   ar
    72   103   102    2
    73    35    34    1
    74    35    38    1
    75     8    10   ar
    76    47    49   ar
    77    26    25    2
    78    11    10   ar
    79   105   102   am
    80   102   101    1
    81    39    38    1
    82    50    49   ar
    83    50    51    1
    84    25    24    1
    85   101   104    1
    86   101   100    1
    87    94    93    2
    88    24    27    1
    89    24    23    1
    90    27    28    1
    91    93    92    1
    92    33    31    1
    93    30    31    2
    94    30    29    1
    95    28    29    1
    96    97    98    1
    97    97    96    1
    98    31    32    1
    99    92    95    1
   100    92    91    1
   101    95    96    1
   102    98    99    1
   103    85    84    2
   104    91    84   am
   105    84    83    1
   106    83    82    1
   107    83    86    1
   108    81    80    1
   109    87    86    1
   110    87    88    1
   111    78    80   ar
   112    78    76   ar
   113    90    88   ar
   114    80    79   ar
   115    73    72    2
   116    88    89   ar
   117    76    75   ar
   118    72    71    1
   119    79    77   ar
   120    75    77   ar
   121    75    74    1
   122    71    74    1
   123    71    70    1
