@<TRIPOS>MOLECULE
tmp/5v88A00.pdb
 177 170 0 0 0
SMALL
GASTEIGER

@<TRIPOS>ATOM
      1  N         -6.8230   14.7310   -8.7150 N.3   198  ILE198     -0.1245
      2  CA        -5.7740   14.6700   -9.7120 C.3   198  ILE198      0.1561
      3  C         -5.0200   15.9930   -9.8000 C.2   198  ILE198      0.2260
      4  O         -3.8050   16.0110   -9.9540 O.2   198  ILE198     -0.2867
      5  CB        -6.3390   14.2950  -11.1050 C.3   198  ILE198      0.0252
      6  CG1       -7.5130   15.2080  -11.4610 C.3   198  ILE198      0.0019
      7  CG2       -6.7710   12.8500  -11.1080 C.3   198  ILE198      0.0019
      8  CD1       -8.1160   14.9590  -12.8730 C.3   198  ILE198      0.0001
      9  N         -2.7010   16.1740   -6.5920 N.3   201  ILE201     -0.1231
     10  CA        -1.4940   15.3560   -6.6340 C.3   201  ILE201      0.1692
     11  C         -0.5170   16.0090   -7.5810 C.2   201  ILE201      0.2591
     12  O          0.6660   16.0690   -7.2790 O.2   201  ILE201     -0.2718
     13  CB        -1.7580   13.8780   -7.0390 C.3   201  ILE201      0.0266
     14  CG1       -2.7700   13.2530   -6.0860 C.3   201  ILE201      0.0019
     15  CG2       -0.4500   13.0710   -6.9220 C.3   201  ILE201      0.0020
     16  CD1       -3.1680   11.7970   -6.4520 C.3   201  ILE201      0.0001
     17  N         -1.0060   16.5580   -8.6950 N.am  202  GLN202     -0.1979
     18  CA        -0.1130   17.2160   -9.6270 C.3   202  GLN202      0.1601
     19  C          0.5660   18.4250   -8.9570 C.2   202  GLN202      0.2287
     20  O          1.7640   18.6590   -9.1090 O.2   202  GLN202     -0.2864
     21  CB        -0.8770   17.6560  -10.8770 C.3   202  GLN202      0.0394
     22  CG         0.0030   18.3010  -11.9140 C.3   202  GLN202      0.0908
     23  CD         0.9170   17.3060  -12.5550 C.2   202  GLN202      0.2608
     24  OE1        0.4810   16.2260  -12.9700 O.2   202  GLN202     -0.2717
     25  NE2        2.1790   17.6530  -12.6510 N.am  202  GLN202     -0.0878
     26  N          1.0810   18.9590   -5.7450 N.3   204  PHE204     -0.1227
     27  CA         1.9810   18.4800   -4.7270 C.3   204  PHE204      0.1736
     28  C          3.3270   18.1380   -5.3690 C.2   204  PHE204      0.2595
     29  O          4.3770   18.5470   -4.8980 O.2   204  PHE204     -0.2718
     30  CB         1.3310   17.2780   -4.0680 C.3   204  PHE204      0.0547
     31  CG         2.0750   16.6710   -2.9230 C.ar  204  PHE204     -0.0202
     32  CD1        2.3830   17.3840   -1.7850 C.ar  204  PHE204     -0.0042
     33  CD2        2.3550   15.3230   -2.9440 C.ar  204  PHE204     -0.0042
     34  CE1        3.0060   16.7560   -0.7220 C.ar  204  PHE204     -0.0003
     35  CE2        2.9630   14.7050   -1.8880 C.ar  204  PHE204     -0.0003
     36  CZ         3.2910   15.4200   -0.7820 C.ar  204  PHE204     -0.0000
     37  N          3.2700   17.4130   -6.4760 N.am  205  CYS205     -0.1970
     38  CA         4.5000   17.0560   -7.2410 C.3   205  CYS205      0.1712
     39  C          5.1870   18.3250   -7.7370 C.2   205  CYS205      0.2296
     40  O          6.4100   18.4590   -7.5970 O.2   205  CYS205     -0.2864
     41  CB         4.1720   16.1310   -8.4110 C.3   205  CYS205      0.0983
     42  SG         3.6590   14.5050   -7.9280 S.3   205  CYS205     -0.0798
     43  N          5.6620   13.5360  -11.7910 N.3   212  PRO212     -0.2102
     44  CA         4.7420   12.5300  -11.2360 C.3   212  PRO212      0.1504
     45  C          5.1300   11.1090  -11.5780 C.2   212  PRO212      0.2575
     46  O          4.7960   10.2010  -10.8250 O.2   212  PRO212     -0.2718
     47  CB         3.4090   12.8840  -11.8760 C.3   212  PRO212      0.0282
     48  CG         3.5120   14.2850  -12.1850 C.3   212  PRO212      0.0208
     49  CD         4.9270   14.5400  -12.5770 C.3   212  PRO212      0.0893
     50  N          5.8580   10.9330  -12.6800 N.am  213  ALA213     -0.1980
     51  CA         6.3010    9.6080  -13.0990 C.3   213  ALA213      0.1597
     52  C          7.6700    9.2580  -12.5550 C.2   213  ALA213      0.2287
     53  O          8.2260    8.2280  -12.9160 O.2   213  ALA213     -0.2864
     54  CB         6.3250    9.5460  -14.6280 C.3   213  ALA213      0.0319
     55  N          8.3850   10.0700   -6.5250 N.3   217  VAL217     -0.1231
     56  CA         6.9860   10.1980   -6.1740 C.3   217  VAL217      0.1692
     57  C          6.4800    8.8620   -5.6090 C.2   217  VAL217      0.2591
     58  O          5.7560    8.8250   -4.6160 O.2   217  VAL217     -0.2718
     59  CB         6.1590   10.6580   -7.3800 C.3   217  VAL217      0.0266
     60  CG1        4.6740   10.5050   -7.1280 C.3   217  VAL217      0.0020
     61  CG2        6.5450   12.0630   -7.6670 C.3   217  VAL217      0.0020
     62  N          6.9140    7.7580   -6.2090 N.am  218  LEU218     -0.1980
     63  CA         6.5310    6.4410   -5.6960 C.3   218  LEU218      0.1596
     64  C          7.1160    6.2080   -4.2890 C.2   218  LEU218      0.2287
     65  O          6.4800    5.5920   -3.4210 O.2   218  LEU218     -0.2864
     66  CB         6.9880    5.3400   -6.6680 C.3   218  LEU218      0.0297
     67  CG         6.7340    3.8980   -6.2410 C.3   218  LEU218      0.0022
     68  CD1        5.2510    3.6330   -6.1020 C.3   218  LEU218      0.0001
     69  CD2        7.3830    3.0020   -7.2630 C.3   218  LEU218      0.0001
     70  N          7.7260    8.5200   -2.0290 N.3   220  ILE220     -0.1231
     71  CA         6.9010    9.2760   -1.0900 C.3   220  ILE220      0.1692
     72  C          5.6260    8.4920   -0.7860 C.2   220  ILE220      0.2591
     73  O          5.2370    8.3620    0.3660 O.2   220  ILE220     -0.2718
     74  CB         6.5460   10.6930   -1.6290 C.3   220  ILE220      0.0266
     75  CG1        7.8000   11.5450   -1.7340 C.3   220  ILE220      0.0019
     76  CG2        5.5480   11.3830   -0.7270 C.3   220  ILE220      0.0020
     77  CD1        7.5960   12.7720   -2.5990 C.3   220  ILE220      0.0001
     78  N          4.9920    7.9430   -1.8220 N.am  221  ALA221     -0.1980
     79  CA         3.7580    7.1740   -1.6200 C.3   221  ALA221      0.1597
     80  C          4.0210    6.0180   -0.6650 C.2   221  ALA221      0.2287
     81  O          3.2070    5.7230    0.2250 O.2   221  ALA221     -0.2864
     82  CB         3.2020    6.6630   -2.9670 C.3   221  ALA221      0.0319
     83  N          4.3750    7.3400    2.8170 N.3   224  PHE224     -0.1241
     84  CA         3.0360    7.7230    3.2860 C.3   224  PHE224      0.1605
     85  C          2.1060    6.5040    3.4210 C.2   224  PHE224      0.2264
     86  O          0.9340    6.6480    3.7780 O.2   224  PHE224     -0.2867
     87  CB         2.4140    8.7340    2.3280 C.3   224  PHE224      0.0534
     88  CG         2.8810   10.1560    2.5340 C.ar  224  PHE224     -0.0203
     89  CD1        4.2200   10.4490    2.6720 C.ar  224  PHE224     -0.0042
     90  CD2        1.9750   11.1930    2.5680 C.ar  224  PHE224     -0.0042
     91  CE1        4.6510   11.7460    2.8540 C.ar  224  PHE224     -0.0003
     92  CE2        2.4030   12.4890    2.7430 C.ar  224  PHE224     -0.0003
     93  CZ         3.7600   12.7580    2.8730 C.ar  224  PHE224     -0.0000
     94  N          0.5290    4.9260    1.2580 N.3   226  ALA226     -0.1245
     95  CA        -0.6730    5.1840    0.4760 C.3   226  ALA226      0.1562
     96  C         -1.2360    3.9000   -0.0760 C.2   226  ALA226      0.2260
     97  O         -0.5030    3.0010   -0.4880 O.2   226  ALA226     -0.2867
     98  CB        -0.3770    6.1690   -0.6370 C.3   226  ALA226      0.0290
     99  N         -2.8780    4.2880   -6.1340 N.3   229  GLN229     -0.1231
    100  CA        -2.2840    5.3660   -6.9060 C.3   229  GLN229      0.1698
    101  C         -3.2870    6.4480   -7.3320 C.2   229  GLN229      0.2592
    102  O         -2.8670    7.5830   -7.5260 O.2   229  GLN229     -0.2718
    103  CB        -1.5800    4.7960   -8.1570 C.3   229  GLN229      0.0381
    104  CG        -2.4710    3.9750   -9.0530 C.3   229  GLN229      0.0905
    105  CD        -1.8550    3.8050  -10.4360 C.2   229  GLN229      0.2608
    106  OE1       -1.5550    4.7950  -11.0900 O.2   229  GLN229     -0.2717
    107  NE2       -1.6740    2.5650  -10.8850 N.am  229  GLN229     -0.0878
    108  N         -4.5680    6.1160   -7.4910 N.am  230  CYS230     -0.1956
    109  CA        -5.5310    7.1030   -7.9860 C.3   230  CYS230      0.1843
    110  C         -6.3630    7.7120   -6.8790 C.2   230  CYS230      0.2625
    111  O         -7.4320    8.2730   -7.1260 O.2   230  CYS230     -0.2714
    112  CB        -6.4460    6.4810   -9.0370 C.3   230  CYS230      0.0997
    113  SG        -5.5200    5.8430  -10.4560 S.3   230  CYS230     -0.0797
    114  N         -5.8700    7.5990   -5.6560 N.am  231  GLU231     -0.1963
    115  CA        -6.4650    8.3050   -4.5420 C.3   231  GLU231      0.1733
    116  C         -5.3620    8.7030   -3.5700 C.2   231  GLU231      0.2616
    117  O         -4.2960    8.0980   -3.4890 O.2   231  GLU231     -0.2715
    118  CB        -7.5370    7.4640   -3.8540 C.3   231  GLU231      0.0429
    119  CG        -8.7880    7.2780   -4.7020 C.3   231  GLU231      0.1163
    120  CD        -9.9050    6.5720   -3.9650 C.2   231  GLU231      0.3649
    121  OE1      -10.4900    5.6370   -4.5460 O.co2 231  GLU231     -0.2457
    122  OE2      -10.2050    6.9530   -2.8130 O.co2 231  GLU231     -0.2457
    123  N         -5.6140    9.7630   -2.8450 N.am  232  PHE232     -0.1974
    124  CA        -4.6880   10.2060   -1.8540 C.3   232  PHE232      0.1639
    125  C         -5.5350   10.8380   -0.7780 C.2   232  PHE232      0.2290
    126  O         -6.1170   11.8890   -1.0200 O.2   232  PHE232     -0.2864
    127  CB        -3.7120   11.2100   -2.4600 C.3   232  PHE232      0.0560
    128  CG        -2.5390   11.5880   -1.5760 C.ar  232  PHE232     -0.0200
    129  CD1       -1.6550   12.6020   -1.9750 C.ar  232  PHE232     -0.0042
    130  CD2       -2.2720   10.9420   -0.3950 C.ar  232  PHE232     -0.0042
    131  CE1       -0.5520   12.9550   -1.2060 C.ar  232  PHE232     -0.0003
    132  CE2       -1.1730   11.2880    0.3670 C.ar  232  PHE232     -0.0003
    133  CZ        -0.3020   12.3090   -0.0390 C.ar  232  PHE232     -0.0000
    134  N          0.0140   -0.8060   -4.4610 N.3   279  PHE279     -0.1241
    135  CA        -0.2890    0.6020   -4.7090 C.3   279  PHE279      0.1605
    136  C         -0.7520    0.7900   -6.1260 C.2   279  PHE279      0.2264
    137  O         -1.7050    1.5360   -6.4060 O.2   279  PHE279     -0.2867
    138  CB         0.9640    1.4280   -4.4070 C.3   279  PHE279      0.0534
    139  CG         0.8740    2.8850   -4.7610 C.ar  279  PHE279     -0.0203
    140  CD1        0.1220    3.7660   -3.9990 C.ar  279  PHE279     -0.0042
    141  CD2        1.6070    3.3850   -5.8230 C.ar  279  PHE279     -0.0042
    142  CE1        0.1000    5.1260   -4.3230 C.ar  279  PHE279     -0.0003
    143  CE2        1.5930    4.7140   -6.1450 C.ar  279  PHE279     -0.0003
    144  CZ         0.8490    5.5810   -5.3950 C.ar  279  PHE279     -0.0000
    145  N          0.7120   -1.5500  -16.8350 N.3   292  MET292     -0.1245
    146  CA         1.0290   -0.8670  -15.5830 C.3   292  MET292      0.1570
    147  C          2.2240   -1.5320  -14.8980 C.2   292  MET292      0.2261
    148  O          3.0770   -0.8420  -14.3140 O.2   292  MET292     -0.2867
    149  CB        -0.1980   -0.8690  -14.6670 C.3   292  MET292      0.0387
    150  CG        -0.0720    0.0650  -13.4840 C.3   292  MET292      0.0595
    151  SD         0.1010    1.8150  -13.9120 S.3   292  MET292     -0.1393
    152  CE        -1.4720    2.0730  -14.7280 C.3   292  MET292      0.0692
    153  N          5.3270   -0.4830  -16.6270 N.3   295  ALA295     -0.1231
    154  CA         5.6670    0.9000  -16.2940 C.3   295  ALA295      0.1694
    155  C          6.3680    0.9570  -14.9360 C.2   295  ALA295      0.2592
    156  O          7.4090    1.5940  -14.7880 O.2   295  ALA295     -0.2718
    157  CB         4.4450    1.7650  -16.2850 C.3   295  ALA295      0.0304
    158  N          5.7930    0.2910  -13.9430 N.am  296  TYR296     -0.1976
    159  CA         6.3920    0.3300  -12.6100 C.3   296  TYR296      0.1639
    160  C          7.6870   -0.4950  -12.5240 C.2   296  TYR296      0.2290
    161  O          8.6230   -0.0920  -11.8490 O.2   296  TYR296     -0.2864
    162  CB         5.3610   -0.1120  -11.5670 C.3   296  TYR296      0.0560
    163  CG         4.5690    1.0790  -11.0430 C.ar  296  TYR296     -0.0198
    164  CD1        5.1960    2.0310  -10.2520 C.ar  296  TYR296     -0.0009
    165  CD2        3.2510    1.2760  -11.3840 C.ar  296  TYR296     -0.0009
    166  CE1        4.5100    3.1300   -9.7770 C.ar  296  TYR296      0.0417
    167  CE2        2.5420    2.3580  -10.9000 C.ar  296  TYR296      0.0417
    168  CZ         3.1940    3.2950  -10.1020 C.ar  296  TYR296      0.1957
    169  OH         2.5330    4.4080   -9.6180 O.3   296  TYR296     -0.2866
    170  N         10.4770    1.5570  -13.6200 N.3   299  LEU299     -0.1245
    171  CA        10.8460    2.5490  -12.6070 C.3   299  LEU299      0.1561
    172  C         11.6730    1.9270  -11.4990 C.2   299  LEU299      0.2260
    173  O         12.7320    2.4580  -11.1730 O.2   299  LEU299     -0.2867
    174  CB         9.6170    3.2160  -11.9880 C.3   299  LEU299      0.0270
    175  CG         9.1090    4.5730  -12.4240 C.3   299  LEU299      0.0019
    176  CD1        7.9820    4.9870  -11.4560 C.3   299  LEU299      0.0001
    177  CD2       10.2440    5.5740  -12.4040 C.3   299  LEU299      0.0001
@<TRIPOS>BOND
     1   145   146    1
     2   153   154    1
     3   154   157    1
     4   154   155    1
     5   146   147    1
     6   146   149    1
     7   155   156    2
     8   155   158   am
     9   147   148    2
    10   152   151    1
    11   149   150    1
    12    54    51    1
    13   158   159    1
    14   151   150    1
    15   170   171    1
    16    51    50    1
    17    51    52    1
    18    24    23    2
    19    53    52    2
    20     8     6    1
    21    50    45   am
    22    25    23   am
    23   159   160    1
    24   159   162    1
    25   171   174    1
    26   171   172    1
    27    49    48    1
    28    49    43    1
    29    23    22    1
    30   160   161    2
    31   175   177    1
    32   175   174    1
    33   175   176    1
    34    48    47    1
    35    22    21    1
    36    47    44    1
    37    43    44    1
    38    45    44    1
    39    45    46    2
    40   162   163    1
    41   172   173    2
    42     6     5    1
    43   165   163   ar
    44   165   167   ar
    45     7     5    1
    46     5     2    1
    47   106   105    2
    48   163   164   ar
    49   167   168   ar
    50   107   105   am
    51    21    18    1
    52   113   112    1
    53   105   104    1
    54   164   166   ar
    55   168   166   ar
    56   168   169    1
    57     4     3    2
    58     3     2    1
    59     2     1    1
    60    18    19    1
    61    18    17    1
    62    20    19    2
    63   104   103    1
    64   112   109    1
    65    17    11   am
    66    41    42    1
    67    41    38    1
    68   103   100    1
    69   109   108    1
    70   109   110    1
    71    39    40    2
    72    39    38    1
    73    61    59    1
    74    11    12    2
    75    11    10    1
    76   102   101    2
    77   108   101   am
    78    59    60    1
    79    59    56    1
    80   101   100    1
    81    69    67    1
    82    38    37    1
    83   111   110    2
    84    13    15    1
    85    13    10    1
    86    13    14    1
    87   100    99    1
    88   110   114   am
    89    66    67    1
    90    66    63    1
    91    10     9    1
    92    55    56    1
    93    37    28   am
    94    16    14    1
    95   137   136    2
    96    67    68    1
    97    62    63    1
    98    62    57   am
    99    56    57    1
   100   143   141   ar
   101   143   144   ar
   102   136   135    1
   103   141   139   ar
   104    26    27    1
   105    63    64    1
   106   114   115    1
   107    57    58    2
   108   144   142   ar
   109    28    29    2
   110    28    27    1
   111   139   138    1
   112   139   140   ar
   113    27    30    1
   114   135   134    1
   115   135   138    1
   116   119   120    1
   117   119   118    1
   118   121   120   ar
   119   115   118    1
   120   115   116    1
   121   142   140   ar
   122    64    65    2
   123    30    31    1
   124   120   122   ar
   125   116   117    2
   126   116   123   am
   127    82    79    1
   128    33    31   ar
   129    33    35   ar
   130    31    32   ar
   131   123   124    1
   132    77    75    1
   133   127   124    1
   134   127   128    1
   135    70    71    1
   136   129   128   ar
   137   129   131   ar
   138    35    36   ar
   139   124   125    1
   140    78    79    1
   141    78    72   am
   142    32    34   ar
   143    75    74    1
   144    74    71    1
   145    74    76    1
   146    79    80    1
   147   128   130   ar
   148   131   133   ar
   149    71    72    1
   150   126   125    2
   151    72    73    2
   152    36    34   ar
   153    80    81    2
   154    98    95    1
   155    97    96    2
   156   130   132   ar
   157    96    95    1
   158   133   132   ar
   159    95    94    1
   160    87    88    1
   161    87    84    1
   162    88    90   ar
   163    88    89   ar
   164    90    92   ar
   165    89    91   ar
   166    92    93   ar
   167    83    84    1
   168    91    93   ar
   169    84    85    1
   170    85    86    2
