@<TRIPOS>MOLECULE
tmp/5v8cA00.pdb
 203 184 0 0 0
SMALL
GASTEIGER

@<TRIPOS>ATOM
      1  N          9.8230   -1.5840   12.3670 N.3    25  ILE25      -0.1245
      2  CA         8.6950   -0.6640   12.2310 C.3    25  ILE25       0.1561
      3  C          8.2900   -0.6340   10.7790 C.2    25  ILE25       0.2260
      4  O          9.1080   -0.3020    9.9260 O.2    25  ILE25      -0.2867
      5  CB         8.9650    0.7560   12.8000 C.3    25  ILE25       0.0252
      6  CG1        9.4550    0.6880   14.2750 C.3    25  ILE25       0.0019
      7  CG2        7.7160    1.6350   12.6480 C.3    25  ILE25       0.0019
      8  CD1        9.3730    2.0030   15.0710 C.3    25  ILE25       0.0001
      9  N          7.2270    2.0810    4.4420 N.3    35  VAL35      -0.1245
     10  CA         8.2990    2.4240    5.3780 C.3    35  VAL35       0.1561
     11  C          8.7880    1.1670    6.0960 C.2    35  VAL35       0.2260
     12  O          7.9780    0.3910    6.6040 O.2    35  VAL35      -0.2867
     13  CB         7.8190    3.5020    6.3810 C.3    35  VAL35       0.0252
     14  CG1        8.8810    3.7930    7.4370 C.3    35  VAL35       0.0019
     15  CG2        7.4150    4.7850    5.6560 C.3    35  VAL35       0.0019
     16  N         11.8670    0.4180    8.8410 N.3    37  ALA37      -0.1245
     17  CA        12.9490    0.9160    9.6830 C.3    37  ALA37       0.1562
     18  C         13.2450   -0.0480   10.8280 C.2    37  ALA37       0.2260
     19  O         12.3300   -0.6350   11.4170 O.2    37  ALA37      -0.2867
     20  CB        12.5910    2.2880   10.2450 C.3    37  ALA37       0.0290
     21  N         14.7400   -0.1770   14.5840 N.3    39  VAL39      -0.1245
     22  CA        15.0700    0.6480   15.7430 C.3    39  VAL39       0.1561
     23  C         15.9340   -0.1640   16.6690 C.2    39  VAL39       0.2260
     24  O         15.5100   -1.2270   17.1270 O.2    39  VAL39      -0.2867
     25  CB        13.8050    1.2100   16.4320 C.3    39  VAL39       0.0252
     26  CG1       14.1730    2.1150   17.5960 C.3    39  VAL39       0.0019
     27  CG2       12.9370    1.9590   15.4270 C.3    39  VAL39       0.0019
     28  N         18.5110    4.3120   14.3510 N.3    48  ILE48      -0.1245
     29  CA        17.4140    3.9560   13.4660 C.3    48  ILE48       0.1561
     30  C         17.9850    3.8480   12.0570 C.2    48  ILE48       0.2260
     31  O         18.6250    4.7830   11.5750 O.2    48  ILE48      -0.2867
     32  CB        16.2480    4.9710   13.5790 C.3    48  ILE48       0.0252
     33  CG1       15.5730    4.8650   14.9590 C.3    48  ILE48       0.0019
     34  CG2       15.2310    4.8000   12.4420 C.3    48  ILE48       0.0019
     35  CD1       14.7920    6.0810   15.3620 C.3    48  ILE48       0.0001
     36  N          6.2890   -3.6680   15.1000 N.3    94  VAL94      -0.1245
     37  CA         5.2920   -2.6000   15.1180 C.3    94  VAL94       0.1561
     38  C          4.8280   -2.3420   13.6780 C.2    94  VAL94       0.2260
     39  O          5.6560   -2.1670   12.7760 O.2    94  VAL94      -0.2867
     40  CB         5.7900   -1.2970   15.8050 C.3    94  VAL94       0.0252
     41  CG1        4.6310   -0.3340   16.0520 C.3    94  VAL94       0.0019
     42  CG2        6.5090   -1.6030   17.1130 C.3    94  VAL94       0.0019
     43  N          2.0070   -0.0080   11.3370 N.3    96  ILE96      -0.1245
     44  CA         1.1810    1.1950   11.3350 C.3    96  ILE96       0.1561
     45  C          0.6210    1.3820    9.9340 C.2    96  ILE96       0.2260
     46  O          1.3840    1.4350    8.9670 O.2    96  ILE96      -0.2867
     47  CB         1.9890    2.4600   11.7960 C.3    96  ILE96       0.0252
     48  CG1        2.9920    2.1460   12.9200 C.3    96  ILE96       0.0019
     49  CG2        1.0540    3.5950   12.2140 C.3    96  ILE96       0.0019
     50  CD1        4.1660    3.0400   12.9670 C.3    96  ILE96       0.0001
     51  N         -1.0650    6.0970   11.0420 N.3   101  PHE101     -0.1241
     52  CA         0.0190    7.0780   10.9290 C.3   101  PHE101      0.1605
     53  C         -0.4970    8.5110   11.0320 C.2   101  PHE101      0.2264
     54  O          0.0220    9.2820   11.8360 O.2   101  PHE101     -0.2867
     55  CB         0.8030    6.8820    9.6180 C.3   101  PHE101      0.0534
     56  CG         2.0540    7.7160    9.4860 C.ar  101  PHE101     -0.0203
     57  CD1        3.0900    7.5980   10.4060 C.ar  101  PHE101     -0.0042
     58  CD2        2.2070    8.6040    8.4310 C.ar  101  PHE101     -0.0042
     59  CE1        4.2590    8.3500   10.2680 C.ar  101  PHE101     -0.0003
     60  CE2        3.3810    9.3420    8.2830 C.ar  101  PHE101     -0.0003
     61  CZ         4.4060    9.1980    9.1930 C.ar  101  PHE101     -0.0000
     62  N         -1.7390    9.2680   14.6720 N.3   104  ILE104     -0.1231
     63  CA        -0.5680    9.3890   15.5390 C.3   104  ILE104      0.1692
     64  C          0.0960   10.7640   15.3660 C.2   104  ILE104      0.2591
     65  O          0.4050   11.4250   16.3560 O.2   104  ILE104     -0.2718
     66  CB         0.4250    8.2220   15.2800 C.3   104  ILE104      0.0266
     67  CG1       -0.1140    6.8890   15.8410 C.3   104  ILE104      0.0019
     68  CG2        1.8220    8.5380   15.8300 C.3   104  ILE104      0.0020
     69  CD1        0.7390    5.6440   15.4590 C.3   104  ILE104      0.0001
     70  N          0.2730   11.2040   14.1210 N.am  105  ILE105     -0.1980
     71  CA         0.9150   12.4800   13.8320 C.3   105  ILE105      0.1595
     72  C          0.0540   13.6380   14.2820 C.2   105  ILE105      0.2287
     73  O          0.5810   14.6060   14.8260 O.2   105  ILE105     -0.2864
     74  CB         1.3440   12.5520   12.3460 C.3   105  ILE105      0.0276
     75  CG1        2.5180   11.5850   12.1140 C.3   105  ILE105      0.0022
     76  CG2        1.6900   13.9990   11.8970 C.3   105  ILE105      0.0022
     77  CD1        3.2600   11.8210   10.8940 C.3   105  ILE105      0.0001
     78  N         10.8390   12.9810    8.2980 N.3   177  VAL177     -0.1231
     79  CA         9.6240   12.6170    9.0190 C.3   177  VAL177      0.1692
     80  C          9.9760   11.8400   10.2770 C.2   177  VAL177      0.2591
     81  O          9.5270   12.2230   11.3520 O.2   177  VAL177     -0.2718
     82  CB         8.6260   11.8750    8.1020 C.3   177  VAL177      0.0266
     83  CG1        7.5620   11.1320    8.9020 C.3   177  VAL177      0.0020
     84  CG2        7.9820   12.8420    7.1130 C.3   177  VAL177      0.0020
     85  N         10.8460   10.8140   10.1590 N.am  178  MET178     -0.1979
     86  CA        11.3150   10.0020   11.2840 C.3   178  MET178      0.1605
     87  C         11.9870   10.8530   12.3420 C.2   178  MET178      0.2287
     88  O         11.7870   10.6030   13.5290 O.2   178  MET178     -0.2864
     89  CB        12.2930    8.9290   10.8140 C.3   178  MET178      0.0413
     90  CG        11.6270    7.6640   10.4010 C.3   178  MET178      0.0598
     91  SD        12.8340    6.4200    9.9330 S.3   178  MET178     -0.1393
     92  CE        11.9580    5.6540    8.6500 C.3   178  MET178      0.0692
     93  N          9.2720   13.0740   13.8820 N.3   181  VAL181     -0.1231
     94  CA         8.4480   12.2500   14.7640 C.3   181  VAL181      0.1692
     95  C          9.1330   12.1120   16.1070 C.2   181  VAL181      0.2591
     96  O          8.5200   12.4170   17.1310 O.2   181  VAL181     -0.2718
     97  CB         8.0580   10.8830   14.1480 C.3   181  VAL181      0.0266
     98  CG1        7.4180    9.9770   15.1940 C.3   181  VAL181      0.0020
     99  CG2        7.1190   11.0600   12.9570 C.3   181  VAL181      0.0020
    100  N         10.4250   11.7350   16.0970 N.am  182  LEU182     -0.1980
    101  CA        11.2400   11.5850   17.3010 C.3   182  LEU182      0.1596
    102  C         11.2930   12.8800   18.1130 C.2   182  LEU182      0.2287
    103  O         11.1490   12.8490   19.3380 O.2   182  LEU182     -0.2864
    104  CB        12.6610   11.1590   16.9260 C.3   182  LEU182      0.0297
    105  CG        12.9760    9.6650   16.9360 C.3   182  LEU182      0.0022
    106  CD1       14.4390    9.4460   16.6700 C.3   182  LEU182      0.0001
    107  CD2       12.6050    9.0110   18.2700 C.3   182  LEU182      0.0001
    108  N          7.8310   13.6080   19.6390 N.3   185  ILE185     -0.1245
    109  CA         7.6040   12.6350   20.7180 C.3   185  ILE185      0.1561
    110  C          8.1440   13.1520   22.0640 C.2   185  ILE185      0.2260
    111  O          7.4090   13.1570   23.0520 O.2   185  ILE185     -0.2867
    112  CB         8.1580   11.2270   20.3320 C.3   185  ILE185      0.0252
    113  CG1        7.1960   10.4700   19.3730 C.3   185  ILE185      0.0019
    114  CG2        8.5390   10.3780   21.5540 C.3   185  ILE185      0.0019
    115  CD1        5.9180    9.8140   20.0050 C.3   185  ILE185      0.0001
    116  N          6.5710   14.5130   25.5010 N.3   189  ALA189     -0.1245
    117  CA         6.9800   13.7380   26.6750 C.3   189  ALA189      0.1562
    118  C          7.3370   14.6280   27.8700 C.2   189  ALA189      0.2260
    119  O          7.5450   14.1140   28.9720 O.2   189  ALA189     -0.2867
    120  CB         8.1490   12.8310   26.3240 C.3   189  ALA189      0.0290
    121  N          1.0490   12.9330   27.7580 N.3   195  LEU195     -0.1245
    122  CA         1.4380   11.5190   27.7330 C.3   195  LEU195      0.1561
    123  C          0.3030   10.5230   27.9890 C.2   195  LEU195      0.2260
    124  O          0.1690    9.5800   27.2220 O.2   195  LEU195     -0.2867
    125  CB         2.5950   11.2580   28.7040 C.3   195  LEU195      0.0270
    126  CG         3.9520   11.8030   28.2720 C.3   195  LEU195      0.0019
    127  CD1        4.8130   12.1310   29.4790 C.3   195  LEU195      0.0001
    128  CD2        4.6760   10.8180   27.3590 C.3   195  LEU195      0.0001
    129  N         -1.9210   10.5370   24.9580 N.3   198  LEU198     -0.1231
    130  CA        -1.0330   10.2710   23.8360 C.3   198  LEU198      0.1693
    131  C         -0.6520    8.7790   23.7690 C.2   198  LEU198      0.2591
    132  O         -0.8940    8.1300   22.7450 O.2   198  LEU198     -0.2718
    133  CB         0.2110   11.1690   23.9220 C.3   198  LEU198      0.0284
    134  CG         1.3280   10.8720   22.9220 C.3   198  LEU198      0.0019
    135  CD1        0.8970   11.1910   21.4810 C.3   198  LEU198      0.0001
    136  CD2        2.5970   11.6080   23.2980 C.3   198  LEU198      0.0001
    137  N         -0.1040    8.2380   24.8830 N.am  199  ALA199     -0.1980
    138  CA         0.2980    6.8410   25.0370 C.3   199  ALA199      0.1597
    139  C         -0.9080    5.9380   24.8420 C.2   199  ALA199      0.2287
    140  O         -0.7820    4.8820   24.2270 O.2   199  ALA199     -0.2864
    141  CB         0.8970    6.6140   26.4160 C.3   199  ALA199      0.0319
    142  N         -1.6940    6.0970   20.9100 N.3   202  VAL202     -0.1245
    143  CA        -0.6510    5.3450   20.2050 C.3   202  VAL202      0.1561
    144  C         -0.9090    3.8290   20.2720 C.2   202  VAL202      0.2260
    145  O         -0.8660    3.1620   19.2410 O.2   202  VAL202     -0.2867
    146  CB         0.7740    5.7340   20.6710 C.3   202  VAL202      0.0252
    147  CG1        1.7470    4.5590   20.5530 C.3   202  VAL202      0.0019
    148  CG2        1.2870    6.9320   19.8780 C.3   202  VAL202      0.0019
    149  N         -1.8710    1.0920   16.4610 N.3   206  ILE206     -0.1245
    150  CA        -0.6680    0.2940   16.2600 C.3   206  ILE206      0.1561
    151  C         -1.0230   -1.1810   16.2460 C.2   206  ILE206      0.2260
    152  O         -1.9220   -1.6190   16.9690 O.2   206  ILE206     -0.2867
    153  CB         0.3330    0.6260   17.4220 C.3   206  ILE206      0.0252
    154  CG1        1.2380    1.8390   17.0900 C.3   206  ILE206      0.0019
    155  CG2        1.1670   -0.5710   17.9390 C.3   206  ILE206      0.0019
    156  CD1        1.7590    1.8960   15.7720 C.3   206  ILE206      0.0001
    157  N          7.2660   -1.7980   24.7720 N.3   217  LEU217     -0.1231
    158  CA         7.1930   -0.5550   24.0230 C.3   217  LEU217      0.1693
    159  C          7.5610    0.6530   24.9020 C.2   217  LEU217      0.2591
    160  O          8.2010    1.5810   24.4170 O.2   217  LEU217     -0.2718
    161  CB         5.7910   -0.3960   23.4180 C.3   217  LEU217      0.0284
    162  CG         5.6580    0.5500   22.2200 C.3   217  LEU217      0.0019
    163  CD1        6.7910    0.3630   21.2350 C.3   217  LEU217      0.0001
    164  CD2        4.3340    0.3560   21.5230 C.3   217  LEU217      0.0001
    165  N          7.1850    0.6190   26.1940 N.am  218  ALA218     -0.1980
    166  CA         7.4950    1.6530   27.1880 C.3   218  ALA218      0.1597
    167  C          9.0030    1.7320   27.4400 C.2   218  ALA218      0.2287
    168  O          9.5350    2.8230   27.5940 O.2   218  ALA218     -0.2864
    169  CB         6.7680    1.3580   28.4910 C.3   218  ALA218      0.0319
    170  N         11.3470    0.8950   25.2410 N.3   220  LEU220     -0.1231
    171  CA        11.8970    1.4460   23.9980 C.3   220  LEU220      0.1693
    172  C         11.8470    2.9720   24.0840 C.2   220  LEU220      0.2593
    173  O         12.8740    3.6200   23.8860 O.2   220  LEU220     -0.2718
    174  CB        11.0950    0.9430   22.7730 C.3   220  LEU220      0.0284
    175  CG        11.4070    1.6010   21.4120 C.3   220  LEU220      0.0019
    176  CD1       12.8300    1.2980   20.9570 C.3   220  LEU220      0.0001
    177  CD2       10.4060    1.1790   20.3420 C.3   220  LEU220      0.0001
    178  N         10.6790    3.5100   24.4560 N.am  221  GLY221     -0.1942
    179  CA        10.4600    4.9400   24.6550 C.3   221  GLY221      0.2014
    180  C         11.3280    5.5330   25.7510 C.2   221  GLY221      0.2638
    181  O         11.8070    6.6590   25.6150 O.2   221  GLY221     -0.2714
    182  N         11.5550    4.7660   26.8350 N.am  222  ARG222     -0.1977
    183  CA        12.4150    5.1330   27.9600 C.3   222  ARG222      0.1597
    184  C         13.8930    5.1810   27.5220 C.2   222  ARG222      0.2287
    185  O         14.6290    6.0760   27.9420 O.2   222  ARG222     -0.2864
    186  CB        12.2630    4.1100   29.1010 C.3   222  ARG222      0.0334
    187  CG        11.1400    4.4060   30.0710 C.3   222  ARG222      0.0492
    188  CD        11.2360    3.5250   31.3070 C.3   222  ARG222      0.2205
    189  NE        10.3080    2.3910   31.2580 N.pl3 222  ARG222     -0.0865
    190  CZ        10.6900    1.1190   31.2300 C.cat 222  ARG222      0.5346
    191  NH1       11.9820    0.8050   31.2330 N.pl3 222  ARG222      0.1354
    192  NH2        9.7820    0.1480   31.1940 N.pl3 222  ARG222      0.1354
    193  N         14.8790    5.5970   24.4390 N.3   224  ALA224     -0.1231
    194  CA        14.9290    6.6400   23.4200 C.3   224  ALA224      0.1694
    195  C         15.0360    8.0220   24.0720 C.2   224  ALA224      0.2592
    196  O         15.8480    8.8320   23.6220 O.2   224  ALA224     -0.2718
    197  CB        13.7020    6.5640   22.5290 C.3   224  ALA224      0.0304
    198  N         14.2640    8.2740   25.1590 N.am  225  SER225     -0.1952
    199  CA        14.3000    9.5450   25.9040 C.3   225  SER225      0.1924
    200  C         15.6960    9.7850   26.4860 C.2   225  SER225      0.2314
    201  O         16.2680   10.8590   26.3060 O.2   225  SER225     -0.2863
    202  CB        13.2590    9.5530   27.0190 C.3   225  SER225      0.2116
    203  OG        11.9710    9.2120   26.5320 O.3   225  SER225     -0.2180
@<TRIPOS>BOND
     1     9    10    1
     2    10    11    1
     3    10    13    1
     4    15    13    1
     5    11    12    2
     6    13    14    1
     7    84    82    1
     8    82    83    1
     9    82    79    1
    10    60    58   ar
    11    60    61   ar
    12    78    79    1
    13    58    56   ar
    14    92    91    1
    15    16    17    1
    16    46    45    2
    17    79    80    1
    18    61    59   ar
    19    56    55    1
    20    56    57   ar
    21    55    52    1
    22    17    20    1
    23    17    18    1
    24     4     3    2
    25    91    90    1
    26    45    44    1
    27    85    80   am
    28    85    86    1
    29    59    57   ar
    30    80    81    2
    31    90    89    1
    32     3     2    1
    33    89    86    1
    34    18    19    2
    35    77    75    1
    36    52    53    1
    37    52    51    1
    38    53    54    2
    39    86    87    1
    40    44    43    1
    41    44    47    1
    42    31    30    2
    43    47    49    1
    44    47    48    1
    45    76    74    1
    46    30    29    1
    47    75    74    1
    48     2     1    1
    49     2     5    1
    50    87    88    2
    51    74    71    1
    52    34    32    1
    53     7     5    1
    54    39    38    2
    55     5     6    1
    56    48    50    1
    57    99    97    1
    58    29    32    1
    59    29    28    1
    60    32    33    1
    61    38    37    1
    62    71    70    1
    63    71    72    1
    64    93    94    1
    65    70    64   am
    66    97    94    1
    67    97    98    1
    68     6     8    1
    69    72    73    2
    70    21    22    1
    71    62    63    1
    72    94    95    1
    73    33    35    1
    74    36    37    1
    75    37    40    1
    76    66    63    1
    77    66    68    1
    78    66    67    1
    79    64    63    1
    80    64    65    2
    81    27    25    1
    82    69    67    1
    83    22    25    1
    84    22    23    1
    85   156   154    1
    86    40    41    1
    87    40    42    1
    88   100    95   am
    89   100   101    1
    90    95    96    2
    91   151   150    1
    92   151   152    2
    93   150   149    1
    94   150   153    1
    95    25    26    1
    96    23    24    2
    97   106   105    1
    98   104   105    1
    99   104   101    1
   100   105   107    1
   101   154   153    1
   102   101   102    1
   103   153   155    1
   104   102   103    2
   105   145   144    2
   106   113   115    1
   107   113   112    1
   108   108   109    1
   109   148   146    1
   110   143   144    1
   111   143   146    1
   112   143   142    1
   113   112   109    1
   114   112   114    1
   115   177   175    1
   116   147   146    1
   117   109   110    1
   118   176   175    1
   119   163   162    1
   120   175   174    1
   121   135   134    1
   122   164   162    1
   123   110   111    2
   124   162   161    1
   125   197   194    1
   126   132   131    2
   127   174   171    1
   128   134   136    1
   129   134   133    1
   130   161   158    1
   131   194   195    1
   132   194   193    1
   133   196   195    2
   134   131   130    1
   135   131   137   am
   136   130   133    1
   137   130   129    1
   138   173   172    2
   139   171   172    1
   140   171   170    1
   141   158   157    1
   142   158   159    1
   143   195   198   am
   144   172   178   am
   145   140   139    2
   146   160   159    2
   147   178   179    1
   148   179   180    1
   149   139   138    1
   150   137   138    1
   151   159   165   am
   152   138   141    1
   153   198   199    1
   154   116   117    1
   155   181   180    2
   156   180   182   am
   157   199   200    1
   158   199   202    1
   159   165   166    1
   160   201   200    2
   161   120   117    1
   162   203   202    1
   163   117   118    1
   164   182   183    1
   165   166   167    1
   166   166   169    1
   167   124   123    2
   168   128   126    1
   169   167   168    2
   170   184   185    2
   171   184   183    1
   172   122   121    1
   173   122   123    1
   174   122   125    1
   175   118   119    2
   176   183   186    1
   177   126   125    1
   178   126   127    1
   179   186   187    1
   180   187   188    1
   181   192   190    1
   182   190   191    1
   183   190   189    2
   184   189   188    1
