@<TRIPOS>MOLECULE
tmp/5v8eA00.pdb
 118 113 0 0 0
SMALL
GASTEIGER

@<TRIPOS>ATOM
      1  N        -70.4320   -9.2810  -17.2750 N.3    13  LYS13      -0.1231
      2  CA       -71.2960   -8.1130  -17.3510 C.3    13  LYS13       0.1693
      3  C        -71.1690   -7.3960  -18.7210 C.2    13  LYS13       0.2592
      4  O        -70.0760   -7.0650  -19.1230 O.2    13  LYS13      -0.2718
      5  CB       -70.9390   -7.1530  -16.2170 C.3    13  LYS13       0.0285
      6  CG       -71.8430   -5.9610  -16.0870 C.3    13  LYS13       0.0035
      7  CD       -71.4020   -5.0910  -14.9110 C.3    13  LYS13       0.0206
      8  CE       -71.5400   -3.6280  -15.2450 C.3    13  LYS13       0.1093
      9  NZ       -70.9790   -3.3760  -16.6120 N.3    13  LYS13      -0.1314
     10  N        -72.2920   -7.1660  -19.3970 N.am   14  ASN14      -0.1974
     11  CA       -72.3550   -6.4080  -20.6620 C.3    14  ASN14       0.1688
     12  C        -71.3050   -6.7960  -21.6900 C.2    14  ASN14       0.2292
     13  O        -70.4020   -6.0190  -21.9830 O.2    14  ASN14      -0.2864
     14  CB       -72.2370   -4.9000  -20.4010 C.3    14  ASN14       0.1181
     15  CG       -73.3610   -4.3710  -19.5490 C.2    14  ASN14       0.2629
     16  OD1      -74.4650   -4.9010  -19.5720 O.2    14  ASN14      -0.2716
     17  ND2      -73.0870   -3.3200  -18.7850 N.am   14  ASN14      -0.0877
     18  N        -61.4690   -5.0360  -19.9230 N.3    52  SER52      -0.1217
     19  CA       -62.7550   -5.4310  -19.3810 C.3    52  SER52       0.1889
     20  C        -62.8060   -6.9470  -19.2830 C.2    52  SER52       0.2288
     21  O        -62.2100   -7.6380  -20.1060 O.2    52  SER52      -0.2866
     22  CB       -63.8980   -4.9270  -20.2570 C.3    52  SER52       0.2089
     23  OG       -65.1580   -5.3670  -19.7770 O.3    52  SER52      -0.2183
     24  N        -67.0420   -8.4350  -11.5850 N.3   111  HIS111     -0.1226
     25  CA       -66.6890   -8.1780  -12.9950 C.3   111  HIS111      0.1752
     26  C        -65.4110   -7.3750  -13.1470 C.2   111  HIS111      0.2596
     27  O        -65.0850   -6.9210  -14.2560 O.2   111  HIS111     -0.2718
     28  CB       -67.8160   -7.4490  -13.7180 C.3   111  HIS111      0.0759
     29  CG       -68.0600   -6.0730  -13.1920 C.ar  111  HIS111      0.0818
     30  ND1      -68.8350   -5.8290  -12.0810 N.ar  111  HIS111     -0.2268
     31  CD2      -67.6230   -4.8640  -13.6170 C.ar  111  HIS111      0.1154
     32  CE1      -68.8630   -4.5310  -11.8370 C.ar  111  HIS111      0.1986
     33  NE2      -68.1420   -3.9210  -12.7610 N.ar  111  HIS111     -0.2212
     34  N        -64.6800   -7.2120  -12.0450 N.am  112  HIS112     -0.1975
     35  CA       -63.4070   -6.5160  -12.0880 C.3   112  HIS112      0.1656
     36  C        -62.2970   -7.5270  -12.2150 C.2   112  HIS112      0.2291
     37  O        -62.4840   -8.7160  -11.8990 O.2   112  HIS112     -0.2864
     38  CB       -63.1900   -5.6580  -10.8220 C.3   112  HIS112      0.0771
     39  CG       -64.1940   -4.5590  -10.6500 C.ar  112  HIS112      0.0820
     40  ND1      -65.3410   -4.7120   -9.9010 N.ar  112  HIS112     -0.2267
     41  CD2      -64.2340   -3.2970  -11.1490 C.ar  112  HIS112      0.1154
     42  CE1      -66.0420   -3.5900   -9.9370 C.ar  112  HIS112      0.1986
     43  NE2      -65.3940   -2.7180  -10.6920 N.ar  112  HIS112     -0.2212
     44  N        -73.3210   -3.7470   -9.3600 N.3   160  PHE160     -0.1241
     45  CA       -73.3740   -2.8520  -10.5230 C.3   160  PHE160      0.1605
     46  C        -74.7580   -2.2450  -10.6030 C.2   160  PHE160      0.2264
     47  O        -75.7450   -2.9510  -10.3920 O.2   160  PHE160     -0.2867
     48  CB       -73.0360   -3.5810  -11.8350 C.3   160  PHE160      0.0534
     49  CG       -73.3700   -5.0430  -11.8210 C.ar  160  PHE160     -0.0203
     50  CD1      -72.4080   -5.9810  -11.4620 C.ar  160  PHE160     -0.0042
     51  CD2      -74.6310   -5.4820  -12.1660 C.ar  160  PHE160     -0.0042
     52  CE1      -72.7030   -7.3360  -11.4340 C.ar  160  PHE160     -0.0003
     53  CE2      -74.9340   -6.8330  -12.1420 C.ar  160  PHE160     -0.0003
     54  CZ       -73.9630   -7.7620  -11.7770 C.ar  160  PHE160     -0.0000
     55  N        -62.4470    4.8710  -13.7110 N.3   246  ASP246     -0.1225
     56  CA       -63.6430    4.1310  -13.3280 C.3   246  ASP246      0.1805
     57  C        -63.1790    3.1310  -12.2570 C.2   246  ASP246      0.2598
     58  O        -62.0190    3.1690  -11.8310 O.2   246  ASP246     -0.2718
     59  CB       -64.3540    3.4440  -14.5180 C.3   246  ASP246      0.1424
     60  CG       -63.4670    2.4580  -15.2860 C.2   246  ASP246      0.3668
     61  OD1      -62.6130    1.7930  -14.6620 O.co2 246  ASP246     -0.2456
     62  OD2      -63.6270    2.3450  -16.5430 O.co2 246  ASP246     -0.2456
     63  N        -64.0560    2.2350  -11.8380 N.am  247  SER247     -0.1938
     64  CA       -63.7740    1.4460  -10.6380 C.3   247  SER247      0.2055
     65  C        -62.6250    0.4530  -10.8040 C.2   247  SER247      0.2643
     66  O        -62.1130   -0.0350   -9.7800 O.2   247  SER247     -0.2714
     67  CB       -65.0480    0.7390  -10.1660 C.3   247  SER247      0.2130
     68  OG       -65.5020   -0.2170  -11.1180 O.3   247  SER247     -0.2179
     69  N        -62.1590    0.1910  -12.0460 N.am  248  PHE248     -0.1973
     70  CA       -60.9790   -0.6840  -12.2240 C.3   248  PHE248      0.1639
     71  C        -59.7310   -0.1260  -11.5370 C.2   248  PHE248      0.2290
     72  O        -58.7770   -0.8580  -11.2010 O.2   248  PHE248     -0.2864
     73  CB       -60.6600   -0.9160  -13.7310 C.3   248  PHE248      0.0560
     74  CG       -61.2780   -2.1820  -14.2980 C.ar  248  PHE248     -0.0200
     75  CD1      -62.6530   -2.2780  -14.4760 C.ar  248  PHE248     -0.0042
     76  CD2      -60.4920   -3.2830  -14.5980 C.ar  248  PHE248     -0.0042
     77  CE1      -63.2350   -3.4470  -14.9520 C.ar  248  PHE248     -0.0003
     78  CE2      -61.0600   -4.4590  -15.0800 C.ar  248  PHE248     -0.0003
     79  CZ       -62.4320   -4.5390  -15.2630 C.ar  248  PHE248     -0.0000
     80  N        -68.2380   10.2890  -12.7390 N.3   269  ARG269     -0.1245
     81  CA       -69.6010    9.9310  -12.3370 C.3   269  ARG269      0.1563
     82  C        -70.0720   10.6480  -11.0550 C.2   269  ARG269      0.2260
     83  O        -71.2780   10.7960  -10.8460 O.2   269  ARG269     -0.2867
     84  CB       -69.7250    8.4240  -12.1190 C.3   269  ARG269      0.0307
     85  CG       -69.6160    7.5970  -13.3940 C.3   269  ARG269      0.0489
     86  CD       -69.5000    6.1260  -13.0830 C.3   269  ARG269      0.2205
     87  NE       -68.2750    5.8340  -12.3510 N.pl3 269  ARG269     -0.0865
     88  CZ       -67.8200    4.6050  -12.1230 C.cat 269  ARG269      0.5346
     89  NH1      -68.4980    3.5580  -12.5680 N.pl3 269  ARG269      0.1354
     90  NH2      -66.6920    4.4230  -11.4520 N.pl3 269  ARG269      0.1354
     91  N        -61.7100    1.1400  -18.0620 N.3   293  SER293     -0.1217
     92  CA       -61.7780   -0.1860  -18.6540 C.3   293  SER293      0.1889
     93  C        -61.8840   -0.0690  -20.1880 C.2   293  SER293      0.2288
     94  O        -62.5060    0.8670  -20.7020 O.2   293  SER293     -0.2866
     95  CB       -62.9680   -0.9520  -18.0830 C.3   293  SER293      0.2089
     96  OG       -63.7910   -1.4710  -19.1220 O.3   293  SER293     -0.2183
     97  N        -63.7330   -1.2100  -22.1580 N.3   295  SER295     -0.1202
     98  CA       -65.0900   -1.1890  -22.6710 C.3   295  SER295      0.2020
     99  C        -65.7690    0.1260  -22.3070 C.2   295  SER295      0.2618
    100  O        -66.9190    0.3640  -22.6530 O.2   295  SER295     -0.2717
    101  CB       -65.9040   -2.3720  -22.1540 C.3   295  SER295      0.2103
    102  OG       -66.2390   -2.2090  -20.8010 O.3   295  SER295     -0.2182
    103  N        -65.0340    0.9900  -21.6240 N.am  296  ASN296     -0.1974
    104  CA       -65.5550    2.2930  -21.2360 C.3   296  ASN296      0.1688
    105  C        -64.9300    3.3420  -22.1650 C.2   296  ASN296      0.2292
    106  O        -64.0210    4.1030  -21.7960 O.2   296  ASN296     -0.2864
    107  CB       -65.2640    2.5630  -19.7420 C.3   296  ASN296      0.1181
    108  CG       -65.9450    3.8130  -19.2340 C.2   296  ASN296      0.2629
    109  OD1      -66.8510    4.3690  -19.8800 O.2   296  ASN296     -0.2716
    110  ND2      -65.5160    4.2720  -18.0810 N.am  296  ASN296     -0.0877
    111  N        -68.7610    9.3680  -18.8590 N.3   301  MET301     -0.1245
    112  CA       -67.4980    9.7030  -18.2150 C.3   301  MET301      0.1570
    113  C        -66.5170   10.4310  -19.1420 C.2   301  MET301      0.2261
    114  O        -65.3520   10.6520  -18.7910 O.2   301  MET301     -0.2867
    115  CB       -66.8590    8.4290  -17.6520 C.3   301  MET301      0.0387
    116  CG       -67.8090    7.6810  -16.7010 C.3   301  MET301      0.0595
    117  SD       -67.0640    6.2740  -15.8610 S.3   301  MET301     -0.1393
    118  CE       -65.7330    7.0620  -15.0030 C.3   301  MET301      0.0692
@<TRIPOS>BOND
     1    98    99    1
     2    98    97    1
     3    98   101    1
     4   100    99    2
     5    99   103   am
     6   105   106    2
     7   105   104    1
     8   101   102    1
     9    13    12    2
    10    12    11    1
    11   103   104    1
    12   104   107    1
    13    94    93    2
    14    11    14    1
    15    11    10    1
    16    14    15    1
    17    22    23    1
    18    22    19    1
    19    93    92    1
    20    21    20    2
    21    18    19    1
    22   109   108    2
    23   107   108    1
    24    16    15    2
    25    15    17   am
    26    10     3   am
    27    19    20    1
    28   108   110   am
    29   113   114    2
    30   113   112    1
    31     4     3    2
    32    96    95    1
    33   111   112    1
    34     3     2    1
    35    92    95    1
    36    92    91    1
    37   112   115    1
    38   115   116    1
    39     2     1    1
    40     2     5    1
    41   116   117    1
    42     9     8    1
    43    62    60   ar
    44     5     6    1
    45     6     7    1
    46   117   118    1
    47    60    61   ar
    48    60    59    1
    49    79    78   ar
    50    79    77   ar
    51     8     7    1
    52    78    76   ar
    53    77    75   ar
    54    76    74   ar
    55    59    56    1
    56    75    74   ar
    57    74    73    1
    58    27    26    2
    59    73    70    1
    60    28    29    1
    61    28    25    1
    62    55    56    1
    63    31    29   ar
    64    31    33   ar
    65    85    86    1
    66    85    84    1
    67    56    57    1
    68    29    30   ar
    69    26    25    1
    70    26    34   am
    71    86    87    1
    72    25    24    1
    73    33    32   ar
    74    80    81    1
    75    89    88    1
    76    87    88    2
    77    81    84    1
    78    81    82    1
    79    57    63   am
    80    57    58    2
    81    70    69    1
    82    70    71    1
    83    36    35    1
    84    36    37    2
    85    51    53   ar
    86    51    49   ar
    87    53    54   ar
    88    88    90    1
    89    35    34    1
    90    35    38    1
    91    30    32   ar
    92    69    65   am
    93    63    64    1
    94    48    49    1
    95    48    45    1
    96    49    50   ar
    97    54    52   ar
    98    71    72    2
    99    50    52   ar
   100    41    43   ar
   101    41    39   ar
   102    68    67    1
   103    82    83    2
   104    38    39    1
   105    65    64    1
   106    65    66    2
   107    43    42   ar
   108    39    40   ar
   109    64    67    1
   110    46    45    1
   111    46    47    2
   112    45    44    1
   113    42    40   ar
