@<TRIPOS>MOLECULE
tmp/5v8fF01.pdb
 84 79 0 0 0
SMALL
GASTEIGER

@<TRIPOS>ATOM
      1  N        166.9410  119.5170  140.9560 N.3   384  LYS384     -0.1231
      2  CA       167.1980  119.6500  139.5420 C.3   384  LYS384      0.1693
      3  C        166.9750  121.0910  139.1190 C.2   384  LYS384      0.2591
      4  O        166.0370  121.7450  139.5700 O.2   384  LYS384     -0.2718
      5  CB       166.2960  118.7140  138.7340 C.3   384  LYS384      0.0285
      6  CG       166.8950  117.3380  138.4600 C.3   384  LYS384      0.0035
      7  CD       167.1590  116.5540  139.7390 C.3   384  LYS384      0.0206
      8  CE       167.9580  115.2900  139.4570 C.3   384  LYS384      0.1093
      9  NZ       168.0150  114.3800  140.6340 N.3   384  LYS384     -0.1314
     10  N        167.8570  121.5850  138.2630 N.am  385  ILE385     -0.1980
     11  CA       167.6240  122.8430  137.5770 C.3   385  ILE385      0.1595
     12  C        167.9750  122.6620  136.1020 C.2   385  ILE385      0.2287
     13  O        169.0960  122.2870  135.7650 O.2   385  ILE385     -0.2864
     14  CB       168.4400  123.9800  138.1900 C.3   385  ILE385      0.0276
     15  CG1      169.8300  123.4700  138.5710 C.3   385  ILE385      0.0022
     16  CG2      167.7460  124.5110  139.4270 C.3   385  ILE385      0.0022
     17  CD1      170.7780  124.5640  139.0090 C.3   385  ILE385      0.0001
     18  N        153.4040  123.6600  130.5980 N.3   473  HIS473     -0.1241
     19  CA       153.6600  124.6800  131.6050 C.3   473  HIS473      0.1621
     20  C        154.3260  124.0410  132.8040 C.2   473  HIS473      0.2264
     21  O        155.1140  124.6620  133.5150 O.2   473  HIS473     -0.2867
     22  CB       152.3480  125.3550  132.0150 C.3   473  HIS473      0.0745
     23  CG       152.5260  126.5290  132.9230 C.ar  473  HIS473      0.0817
     24  ND1      151.5530  126.9460  133.8060 N.ar  473  HIS473     -0.2268
     25  CD2      153.5610  127.3870  133.0740 C.ar  473  HIS473      0.1154
     26  CE1      151.9860  128.0020  134.4700 C.ar  473  HIS473      0.1986
     27  NE2      153.2040  128.2890  134.0460 N.ar  473  HIS473     -0.2212
     28  N        159.3240  122.9490  134.3860 N.3   477  GLU477     -0.1245
     29  CA       159.8660  122.6650  135.7120 C.3   477  GLU477      0.1567
     30  C        160.8130  121.4660  135.6090 C.2   477  GLU477      0.2260
     31  O        161.6980  121.2550  136.4290 O.2   477  GLU477     -0.2867
     32  CB       158.7080  122.4060  136.6770 C.3   477  GLU477      0.0388
     33  CG       159.0900  121.9880  138.0650 C.3   477  GLU477      0.1160
     34  CD       159.3240  120.4980  138.1820 C.2   477  GLU477      0.3649
     35  OE1      158.8880  119.7400  137.2920 O.co2 477  GLU477     -0.2457
     36  OE2      159.9580  120.0840  139.1710 O.co2 477  GLU477     -0.2457
     37  N        153.4480  134.0170  132.5900 N.3   524  ALA524     -0.1245
     38  CA       153.8620  132.8790  133.3960 C.3   524  ALA524      0.1562
     39  C        154.4130  131.7480  132.5330 C.2   524  ALA524      0.2260
     40  O        155.2260  130.9460  132.9950 O.2   524  ALA524     -0.2867
     41  CB       152.6970  132.3860  134.2360 C.3   524  ALA524      0.0290
     42  N        158.0370  133.0960  130.7740 N.3   527  SER527     -0.1202
     43  CA       159.1510  133.0910  131.7170 C.3   527  SER527      0.2020
     44  C        159.8750  131.7430  131.7520 C.2   527  SER527      0.2618
     45  O        161.0280  131.6640  132.1710 O.2   527  SER527     -0.2717
     46  CB       158.6660  133.4610  133.1160 C.3   527  SER527      0.2103
     47  OG       157.8190  132.4610  133.6440 O.3   527  SER527     -0.2182
     48  N        159.1880  130.6850  131.3330 N.am  528  ARG528     -0.1979
     49  CA       159.7960  129.3650  131.2220 C.3   528  ARG528      0.1597
     50  C        160.5270  129.1870  129.9030 C.2   528  ARG528      0.2287
     51  O        161.3930  128.3210  129.7700 O.2   528  ARG528     -0.2864
     52  CB       158.7340  128.2910  131.3890 C.3   528  ARG528      0.0334
     53  CG       158.1040  128.3240  132.7560 C.3   528  ARG528      0.0492
     54  CD       156.8540  127.4840  132.8210 C.3   528  ARG528      0.2205
     55  NE       156.2720  127.5340  134.1530 N.pl3 528  ARG528     -0.0865
     56  CZ       156.8680  127.0500  135.2340 C.cat 528  ARG528      0.5346
     57  NH1      158.0670  126.4910  135.1320 N.pl3 528  ARG528      0.1354
     58  NH2      156.2690  127.1290  136.4130 N.pl3 528  ARG528      0.1354
     59  N        164.2900  135.8740  137.0440 N.3   621  PRO621     -0.2102
     60  CA       165.5540  135.1800  137.3010 C.3   621  PRO621      0.1504
     61  C        165.7160  133.9320  136.4260 C.2   621  PRO621      0.2575
     62  O        166.8350  133.4260  136.2730 O.2   621  PRO621     -0.2718
     63  CB       165.4630  134.8160  138.7900 C.3   621  PRO621      0.0282
     64  CG       164.0400  135.0270  139.1670 C.3   621  PRO621      0.0208
     65  CD       163.5450  136.1130  138.2800 C.3   621  PRO621      0.0893
     66  N        164.6120  133.4420  135.8620 N.am  622  ARG622     -0.1980
     67  CA       164.6680  132.3590  134.8820 C.3   622  ARG622      0.1597
     68  C        165.3680  132.8160  133.5920 C.2   622  ARG622      0.2287
     69  O        165.9060  131.9870  132.8570 O.2   622  ARG622     -0.2864
     70  CB       163.2620  131.8100  134.5720 C.3   622  ARG622      0.0334
     71  CG       162.9670  130.4520  135.2350 C.3   622  ARG622      0.0492
     72  CD       161.5130  129.9930  135.1020 C.3   622  ARG622      0.2205
     73  NE       160.9420  129.5010  136.3420 N.pl3 622  ARG622     -0.0865
     74  CZ       159.6760  129.1340  136.5370 C.cat 622  ARG622      0.5346
     75  NH1      158.8430  129.2030  135.5160 N.pl3 622  ARG622      0.1354
     76  NH2      159.2610  128.6630  137.7200 N.pl3 622  ARG622      0.1354
     77  N        169.2060  132.7300  134.7040 N.3   625  LEU625     -0.1245
     78  CA       169.6100  131.3370  134.6680 C.3   625  LEU625      0.1561
     79  C        169.6350  130.8350  133.2230 C.2   625  LEU625      0.2260
     80  O        170.5000  130.0370  132.8400 O.2   625  LEU625     -0.2867
     81  CB       168.6810  130.4800  135.5200 C.3   625  LEU625      0.0270
     82  CG       169.2500  129.0890  135.7960 C.3   625  LEU625      0.0019
     83  CD1      169.0190  128.7030  137.2450 C.3   625  LEU625      0.0001
     84  CD2      168.6650  128.0400  134.8490 C.3   625  LEU625      0.0001
@<TRIPOS>BOND
     1    51    50    2
     2    50    49    1
     3    18    19    1
     4    42    43    1
     5    49    48    1
     6    49    52    1
     7    48    44   am
     8    52    53    1
     9    19    22    1
    10    19    20    1
    11    43    44    1
    12    43    46    1
    13    44    45    2
    14    22    23    1
    15    39    40    2
    16    39    38    1
    17    37    38    1
    18    53    54    1
    19    20    21    2
    20    54    55    1
    21    80    79    2
    22    69    68    2
    23    23    25   ar
    24    23    24   ar
    25    25    27   ar
    26    46    47    1
    27    79    78    1
    28    38    41    1
    29    68    67    1
    30    24    26   ar
    31    27    26   ar
    32    55    56    2
    33    28    29    1
    34    70    67    1
    35    70    71    1
    36    78    77    1
    37    78    81    1
    38    84    82    1
    39    67    66    1
    40    72    71    1
    41    72    73    1
    42    57    56    1
    43    56    58    1
    44    75    74    1
    45    81    82    1
    46    30    29    1
    47    30    31    2
    48    29    32    1
    49    13    12    2
    50    82    83    1
    51    66    61   am
    52    12    11    1
    53    62    61    2
    54    73    74    2
    55    61    60    1
    56    74    76    1
    57    32    33    1
    58    59    60    1
    59    59    65    1
    60    35    34   ar
    61    60    63    1
    62    11    14    1
    63    11    10    1
    64    33    34    1
    65    34    36   ar
    66    14    15    1
    67    14    16    1
    68    10     3   am
    69    65    64    1
    70     6     5    1
    71     6     7    1
    72    15    17    1
    73     5     2    1
    74    63    64    1
    75     3     2    1
    76     3     4    2
    77     8     7    1
    78     8     9    1
    79     2     1    1
