@<TRIPOS>MOLECULE
tmp/5v8fH00.pdb
 195 189 0 0 0
SMALL
GASTEIGER

@<TRIPOS>ATOM
      1  N        138.2660  204.4440   89.5010 N.3    11  ALA11      -0.1231
      2  CA       137.6380  204.4110   88.1870 C.3    11  ALA11       0.1694
      3  C        138.3720  203.4580   87.2510 C.2    11  ALA11       0.2592
      4  O        137.9280  203.2090   86.1300 O.2    11  ALA11      -0.2718
      5  CB       137.5920  205.8080   87.5880 C.3    11  ALA11       0.0304
      6  N        139.4910  202.9200   87.7230 N.am   12  ARG12      -0.1966
      7  CA       140.3610  202.0940   86.8940 C.3    12  ARG12       0.1729
      8  C        139.7460  200.7480   86.5260 C.2    12  ARG12       0.2616
      9  O        140.0840  200.1680   85.4950 O.2    12  ARG12      -0.2715
     10  CB       141.6980  201.8720   87.6000 C.3    12  ARG12       0.0348
     11  CG       142.5240  203.1340   87.7310 C.3    12  ARG12       0.0492
     12  CD       143.8850  202.8440   88.3220 C.3    12  ARG12       0.2205
     13  NE       144.7370  204.0300   88.3210 N.pl3  12  ARG12      -0.0865
     14  CZ       144.7610  204.9330   89.2970 C.cat  12  ARG12       0.5346
     15  NH1      143.9840  204.7830   90.3610 N.pl3  12  ARG12       0.1354
     16  NH2      145.5690  205.9820   89.2140 N.pl3  12  ARG12       0.1354
     17  N        138.8500  200.2500   87.3700 N.am   13  THR13      -0.1951
     18  CA       138.1930  198.9770   87.1040 C.3    13  THR13       0.1897
     19  C        137.2040  199.1320   85.9480 C.2    13  THR13       0.2313
     20  O        136.6620  200.2140   85.7310 O.2    13  THR13      -0.2863
     21  CB       137.4680  198.4420   88.3600 C.3    13  THR13       0.1794
     22  OG1      136.9220  197.1450   88.0890 O.3    13  THR13      -0.2208
     23  CG2      136.3510  199.3860   88.7870 C.3    13  THR13       0.0378
     24  N        126.3750  194.6440   96.3400 N.3    37  ILE37      -0.1231
     25  CA       127.8000  194.5280   96.0560 C.3    37  ILE37       0.1692
     26  C        128.4580  193.7540   97.1790 C.2    37  ILE37       0.2593
     27  O        128.1920  194.0050   98.3560 O.2    37  ILE37      -0.2718
     28  CB       128.4900  195.9050   95.8980 C.3    37  ILE37       0.0266
     29  CG1      127.8980  196.6790   94.7170 C.3    37  ILE37       0.0019
     30  CG2      129.9950  195.7390   95.7030 C.3    37  ILE37       0.0020
     31  CD1      128.4650  198.0760   94.5570 C.3    37  ILE37       0.0001
     32  N        129.3040  192.7970   96.8170 N.am   38  THR38      -0.1939
     33  CA       129.9850  191.9890   97.8130 C.3    38  THR38       0.2028
     34  C        131.3520  191.5420   97.3160 C.2    38  THR38       0.2643
     35  O        131.5950  191.4400   96.1130 O.2    38  THR38      -0.2714
     36  CB       129.1480  190.7590   98.2050 C.3    38  THR38       0.1808
     37  OG1      129.7640  190.0890   99.3100 O.3    38  THR38      -0.2208
     38  CG2      129.0170  189.7980   97.0350 C.3    38  THR38       0.0379
     39  N        132.2520  191.2970   98.2590 N.am   39  GLY39      -0.1940
     40  CA       133.5830  190.8220   97.9380 C.3    39  GLY39       0.1999
     41  C        134.6030  191.3060   98.9510 C.2    39  GLY39       0.2481
     42  O        134.2400  191.9140   99.9570 O.2    39  GLY39      -0.2729
     43  N        135.8850  191.0250   98.6930 N.am   40  PRO40      -0.2715
     44  CA       136.9870  191.3790   99.5880 C.3    40  PRO40       0.1521
     45  C        137.1890  192.8830   99.7760 C.2    40  PRO40       0.2440
     46  O        136.7900  193.6860   98.9050 O.2    40  PRO40      -0.2731
     47  CB       138.1940  190.7720   98.8880 C.3    40  PRO40       0.0310
     48  CG       137.6500  189.5880   98.2050 C.3    40  PRO40       0.0237
     49  CD       136.2980  190.0250   97.6970 C.3    40  PRO40       0.0939
     50  N        137.7890  193.2660  100.9190 N.am   41  PRO41      -0.2716
     51  CA       138.2430  194.6180  101.2590 C.3    41  PRO41       0.1536
     52  C        139.5280  194.9720  100.5240 C.2    41  PRO41       0.2599
     53  O        140.2530  194.0670  100.1150 O.2    41  PRO41      -0.2715
     54  CB       138.4560  194.5460  102.7630 C.3    41  PRO41       0.0310
     55  CG       138.8180  193.1210  102.9940 C.3    41  PRO41       0.0237
     56  CD       137.9670  192.3390  102.0530 C.3    41  PRO41       0.0939
     57  N        139.8020  196.2570  100.3550 N.am   42  GLY42      -0.1941
     58  CA       140.9840  196.6820   99.6270 C.3    42  GLY42       0.2014
     59  C        140.6440  196.7760   98.1520 C.2    42  GLY42       0.2640
     60  O        141.5000  197.0120   97.3080 O.2    42  GLY42      -0.2714
     61  N        139.3670  196.5490   97.8590 N.am   43  THR43      -0.1936
     62  CA       138.8500  196.6150   96.5020 C.3    43  THR43       0.2028
     63  C        138.5580  198.0480   96.0890 C.2    43  THR43       0.2643
     64  O        138.5510  198.3680   94.9060 O.2    43  THR43      -0.2714
     65  CB       137.5760  195.7430   96.3580 C.3    43  THR43       0.1808
     66  OG1      136.5230  196.1420   97.2510 O.3    43  THR43      -0.2208
     67  CG2      137.9640  194.3150   96.6500 C.3    43  THR43       0.0379
     68  N        138.3300  198.9100   97.0820 N.am   44  GLY44      -0.1939
     69  CA       138.1310  200.3250   96.8530 C.3    44  GLY44       0.2014
     70  C        136.6820  200.7250   96.6610 C.2    44  GLY44       0.2639
     71  O        136.4070  201.8880   96.3900 O.2    44  GLY44      -0.2714
     72  N        135.7640  199.7830   96.8800 N.am   45  LYS45      -0.1963
     73  CA       134.3830  199.8760   96.3850 C.3    45  LYS45       0.1728
     74  C        133.7410  201.2460   96.5840 C.2    45  LYS45       0.2617
     75  O        133.1730  201.8330   95.6500 O.2    45  LYS45      -0.2715
     76  CB       133.5220  198.8050   97.0670 C.3    45  LYS45       0.0311
     77  CG       132.0350  199.1230   97.1310 C.3    45  LYS45       0.0038
     78  CD       131.3070  198.1440   98.0380 C.3    45  LYS45       0.0206
     79  CE       131.9210  198.1060   99.4310 C.3    45  LYS45       0.1093
     80  NZ       131.9790  199.4500  100.0690 N.3    45  LYS45      -0.1314
     81  N        133.8620  201.7600   97.8000 N.am   46  THR46      -0.1937
     82  CA       133.3070  203.0570   98.1400 C.3    46  THR46       0.2028
     83  C        133.9240  204.1800   97.3040 C.2    46  THR46       0.2642
     84  O        133.2380  205.1340   96.9380 O.2    46  THR46      -0.2714
     85  CB       133.5130  203.3600   99.6330 C.3    46  THR46       0.1808
     86  OG1      133.0260  202.2630  100.4150 O.3    46  THR46      -0.2208
     87  CG2      132.7730  204.6240  100.0250 C.3    46  THR46       0.0379
     88  N        135.2130  204.0540   96.9890 N.am   47  ALA47      -0.1963
     89  CA       135.9400  205.1000   96.2650 C.3    47  ALA47       0.1728
     90  C        135.4520  205.2690   94.8250 C.2    47  ALA47       0.2616
     91  O        135.1720  206.3890   94.3890 O.2    47  ALA47      -0.2715
     92  CB       137.4370  204.8130   96.2820 C.3    47  ALA47       0.0334
     93  N        135.3600  204.1690   94.0820 N.am   48  GLN48      -0.1977
     94  CA       134.8250  204.2370   92.7270 C.3    48  GLN48       0.1601
     95  C        133.3410  204.5670   92.7730 C.2    48  GLN48       0.2287
     96  O        132.8120  205.1880   91.8500 O.2    48  GLN48      -0.2864
     97  CB       135.0450  202.9290   91.9630 C.3    48  GLN48       0.0394
     98  CG       136.4900  202.6410   91.6060 C.3    48  GLN48       0.0908
     99  CD       137.2320  201.9700   92.7330 C.2    48  GLN48       0.2608
    100  OE1      136.6910  201.7930   93.8190 O.2    48  GLN48      -0.2717
    101  NE2      138.4710  201.5800   92.4800 N.am   48  GLN48      -0.0878
    102  N        128.2370  200.1420  104.0040 N.3   123  GLU123     -0.1245
    103  CA       128.4270  199.0430  104.9420 C.3   123  GLU123      0.1567
    104  C        127.0800  198.4110  105.2730 C.2   123  GLU123      0.2260
    105  O        126.7010  198.2910  106.4400 O.2   123  GLU123     -0.2867
    106  CB       129.1400  199.5230  106.2100 C.3   123  GLU123      0.0388
    107  CG       130.5180  200.1180  105.9460 C.3   123  GLU123      0.1160
    108  CD       131.4900  199.1090  105.3620 C.2   123  GLU123      0.3649
    109  OE1      131.4060  197.9220  105.7380 O.co2 123  GLU123     -0.2457
    110  OE2      132.3360  199.5030  104.5270 O.co2 123  GLU123     -0.2457
    111  N        128.4500  195.1590  100.7880 N.3   161  ALA161     -0.1231
    112  CA       128.5990  194.1050  101.7970 C.3   161  ALA161      0.1694
    113  C        129.9080  193.3340  101.6190 C.2   161  ALA161      0.2592
    114  O        130.5630  193.4590  100.5870 O.2   161  ALA161     -0.2718
    115  CB       127.4130  193.1530  101.7480 C.3   161  ALA161      0.0304
    116  N        130.3040  192.5500  102.6220 N.am  162  ASN162     -0.1974
    117  CA       131.5750  191.8280  102.5340 C.3   162  ASN162      0.1688
    118  C        131.4320  190.3410  102.2070 C.2   162  ASN162      0.2292
    119  O        131.6050  189.9350  101.0570 O.2   162  ASN162     -0.2864
    120  CB       132.3420  191.9820  103.8540 C.3   162  ASN162      0.1181
    121  CG       133.7240  191.3260  103.8340 C.2   162  ASN162      0.2629
    122  OD1      134.0770  190.5760  102.9240 O.2   162  ASN162     -0.2716
    123  ND2      134.5120  191.6110  104.8640 N.am  162  ASN162     -0.0877
    124  N        133.0130  193.3130   93.6880 N.3   187  PHE187     -0.1241
    125  CA       134.2750  194.0070   93.6030 C.3   187  PHE187      0.1605
    126  C        135.2950  193.1250   94.2870 C.2   187  PHE187      0.2264
    127  O        135.2610  192.9340   95.5030 O.2   187  PHE187     -0.2867
    128  CB       134.1800  195.3950   94.2320 C.3   187  PHE187      0.0534
    129  CG       133.2420  196.3190   93.5030 C.ar  187  PHE187     -0.0203
    130  CD1      132.8830  196.0670   92.1890 C.ar  187  PHE187     -0.0042
    131  CD2      132.7190  197.4350   94.1290 C.ar  187  PHE187     -0.0042
    132  CE1      132.0210  196.9100   91.5160 C.ar  187  PHE187     -0.0003
    133  CE2      131.8580  198.2850   93.4620 C.ar  187  PHE187     -0.0003
    134  CZ       131.5080  198.0220   92.1540 C.ar  187  PHE187     -0.0000
    135  N        145.2660  192.7690   88.2750 N.3   195  MET195     -0.1245
    136  CA       145.3670  193.7250   89.3690 C.3   195  MET195      0.1570
    137  C        146.6700  194.4950   89.2130 C.2   195  MET195      0.2261
    138  O        146.7520  195.6620   89.5830 O.2   195  MET195     -0.2867
    139  CB       145.3030  193.0410   90.7380 C.3   195  MET195      0.0387
    140  CG       143.9330  192.4890   91.1100 C.3   195  MET195      0.0595
    141  SD       142.5820  193.6800   90.9480 S.3   195  MET195     -0.1393
    142  CE       142.8310  194.6920   92.4030 C.3   195  MET195      0.0692
    143  N        146.0420  197.1240   86.8310 N.3   198  ILE198     -0.1245
    144  CA       145.5140  198.2500   87.5890 C.3   198  ILE198      0.1561
    145  C        146.6490  198.9770   88.3200 C.2   198  ILE198      0.2260
    146  O        146.5870  200.1870   88.5200 O.2   198  ILE198     -0.2867
    147  CB       144.4330  197.7870   88.5940 C.3   198  ILE198      0.0252
    148  CG1      143.2690  197.1280   87.8480 C.3   198  ILE198      0.0019
    149  CG2      143.9250  198.9520   89.4310 C.3   198  ILE198      0.0019
    150  CD1      142.1920  196.5750   88.7560 C.3   198  ILE198      0.0001
    151  N        147.9650  202.6590   87.9540 N.3   202  LYS202     -0.1245
    152  CA       148.1540  203.5830   89.0730 C.3   202  LYS202      0.1561
    153  C        149.5590  204.1650   89.0440 C.2   202  LYS202      0.2260
    154  O        149.9190  204.9990   89.8750 O.2   202  LYS202     -0.2867
    155  CB       147.9150  202.8830   90.4130 C.3   202  LYS202      0.0271
    156  CG       146.4870  202.4380   90.6430 C.3   202  LYS202      0.0035
    157  CD       146.3290  201.6920   91.9520 C.3   202  LYS202      0.0206
    158  CE       144.8830  201.2860   92.1720 C.3   202  LYS202      0.1093
    159  NZ       143.9790  202.4690   92.1930 N.3   202  LYS202     -0.1314
    160  N        144.8550  194.5760   98.4640 N.3   229  ASP229     -0.1225
    161  CA       144.7300  196.0190   98.4700 C.3   229  ASP229      0.1805
    162  C        146.0320  196.5190   97.8680 C.2   229  ASP229      0.2598
    163  O        147.0930  196.3470   98.4670 O.2   229  ASP229     -0.2718
    164  CB       144.5120  196.5330   99.8900 C.3   229  ASP229      0.1424
    165  CG       144.0820  197.9790   99.9380 C.2   229  ASP229      0.3668
    166  OD1      143.9130  198.6000   98.8650 O.co2 229  ASP229     -0.2456
    167  OD2      143.8920  198.4900  101.0590 O.co2 229  ASP229     -0.2456
    168  N        145.9740  197.1250   96.6900 N.am  230  LEU230     -0.1966
    169  CA       147.2030  197.5040   96.0040 C.3   230  LEU230      0.1728
    170  C        147.6910  198.8430   96.5270 C.2   230  LEU230      0.2616
    171  O        148.8880  199.1420   96.5210 O.2   230  LEU230     -0.2715
    172  CB       146.9860  197.5410   94.4940 C.3   230  LEU230      0.0311
    173  CG       146.5140  196.2100   93.9010 C.3   230  LEU230      0.0022
    174  CD1      145.9760  196.4150   92.5000 C.3   230  LEU230      0.0001
    175  CD2      147.6330  195.1760   93.9040 C.3   230  LEU230      0.0001
    176  N        146.7380  199.6470   96.9800 N.am  231  ARG231     -0.1963
    177  CA       147.0480  200.9340   97.5700 C.3   231  ARG231      0.1729
    178  C        147.9110  200.7340   98.8060 C.2   231  ARG231      0.2616
    179  O        148.7760  201.5540   99.1030 O.2   231  ARG231     -0.2715
    180  CB       145.7680  201.6900   97.9250 C.3   231  ARG231      0.0348
    181  CG       146.0130  203.0850   98.4710 C.3   231  ARG231      0.0492
    182  CD       146.8060  203.9290   97.4860 C.3   231  ARG231      0.2205
    183  NE       146.1300  204.0350   96.1960 N.pl3 231  ARG231     -0.0865
    184  CZ       145.2470  204.9800   95.8900 C.cat 231  ARG231      0.5346
    185  NH1      144.9310  205.9080   96.7830 N.pl3 231  ARG231      0.1354
    186  NH2      144.6790  204.9990   94.6920 N.pl3 231  ARG231      0.1354
    187  N        147.6780  199.6350   99.5180 N.am  232  LYS232     -0.1977
    188  CA       148.4700  199.3130  100.7000 C.3   232  LYS232      0.1596
    189  C        149.8330  198.7710  100.2990 C.2   232  LYS232      0.2287
    190  O        150.8120  198.9280  101.0320 O.2   232  LYS232     -0.2864
    191  CB       147.7360  198.3090  101.5900 C.3   232  LYS232      0.0298
    192  CG       146.5400  198.9050  102.3140 C.3   232  LYS232      0.0038
    193  CD       146.9340  200.1650  103.0710 C.3   232  LYS232      0.0206
    194  CE       145.7250  200.8510  103.6840 C.3   232  LYS232      0.1093
    195  NZ       146.1000  202.1110  104.3830 N.3   232  LYS232     -0.1314
@<TRIPOS>BOND
     1     9     8    2
     2    20    19    2
     3    19    18    1
     4     4     3    2
     5     8     7    1
     6     8    17   am
     7   143   144    1
     8     7    10    1
     9     7     6    1
    10    18    17    1
    11    18    21    1
    12     3     6   am
    13     3     2    1
    14     5     2    1
    15   144   145    1
    16   144   147    1
    17    10    11    1
    18    11    12    1
    19   148   147    1
    20   148   150    1
    21   151   152    1
    22    22    21    1
    23     2     1    1
    24   135   136    1
    25   145   146    2
    26    13    12    1
    27    13    14    2
    28    21    23    1
    29   147   149    1
    30   153   152    1
    31   153   154    2
    32   152   155    1
    33   137   136    1
    34   137   138    2
    35    16    14    1
    36    14    15    1
    37   136   139    1
    38   155   156    1
    39   156   157    1
    40   139   140    1
    41   141   140    1
    42   141   142    1
    43   132   134   ar
    44   132   130   ar
    45    98    97    1
    46    98    99    1
    47    96    95    2
    48   157   158    1
    49    97    94    1
    50   134   133   ar
    51   158   159    1
    52   130   129   ar
    53   101    99   am
    54   174   173    1
    55    94    95    1
    56    94    93    1
    57    99   100    2
    58   133   131   ar
    59   129   131   ar
    60   129   128    1
    61   125   124    1
    62   125   128    1
    63   125   126    1
    64   173   175    1
    65   173   172    1
    66    93    90   am
    67   126   127    2
    68    91    90    2
    69   172   169    1
    70    31    29    1
    71   186   184    1
    72    29    28    1
    73    90    89    1
    74    64    63    2
    75    75    74    2
    76    30    28    1
    77   184   183    2
    78   184   185    1
    79    28    25    1
    80   169   170    1
    81   169   168    1
    82    25    24    1
    83    25    26    1
    84    63    62    1
    85    63    68   am
    86    35    34    2
    87   183   182    1
    88    89    92    1
    89    89    88    1
    90    65    62    1
    91    65    67    1
    92    65    66    1
    93    73    74    1
    94    73    72    1
    95    73    76    1
    96    71    70    2
    97    62    61    1
    98   171   170    2
    99   170   176   am
   100    74    81   am
   101    70    69    1
   102    70    72   am
   103   168   162   am
   104    32    26   am
   105    32    33    1
   106    69    68    1
   107    84    83    2
   108   176   177    1
   109    88    83   am
   110    38    36    1
   111    76    77    1
   112    77    78    1
   113    26    27    2
   114    83    82    1
   115    60    59    2
   116    34    33    1
   117    34    39   am
   118   182   181    1
   119   177   180    1
   120   177   178    1
   121    49    48    1
   122    49    43    1
   123    81    82    1
   124    33    36    1
   125    61    59   am
   126   162   163    2
   127   162   161    1
   128   180   181    1
   129    40    39    1
   130    40    41    1
   131    78    79    1
   132    82    85    1
   133    59    58    1
   134    36    37    1
   135    48    47    1
   136   160   161    1
   137   161   164    1
   138    43    41   am
   139    43    44    1
   140   178   179    2
   141   178   187   am
   142   166   165   ar
   143    47    44    1
   144    46    45    2
   145    41    42    2
   146    79    80    1
   147   187   188    1
   148    44    45    1
   149    58    57    1
   150    85    87    1
   151    85    86    1
   152    45    50   am
   153   164   165    1
   154   165   167   ar
   155    53    52    2
   156   189   188    1
   157   189   190    2
   158    57    52   am
   159    52    51    1
   160   114   113    2
   161   188   191    1
   162   111   112    1
   163    50    51    1
   164    50    56    1
   165   119   118    2
   166    51    54    1
   167   191   192    1
   168   113   112    1
   169   113   116   am
   170   115   112    1
   171    56    55    1
   172   118   117    1
   173   192   193    1
   174   117   116    1
   175   117   120    1
   176    54    55    1
   177   122   121    2
   178   193   194    1
   179   194   195    1
   180   121   120    1
   181   121   123   am
   182   102   103    1
   183   110   108   ar
   184   103   104    1
   185   103   106    1
   186   104   105    2
   187   108   109   ar
   188   108   107    1
   189   107   106    1
