@<TRIPOS>MOLECULE
tmp/5v8fC00.pdb
 96 93 0 0 0
SMALL
GASTEIGER

@<TRIPOS>ATOM
      1  N        138.0710  115.5520  165.6950 N.3   380  ARG380     -0.1231
      2  CA       138.4280  115.8320  164.3200 C.3   380  ARG380      0.1694
      3  C        138.5520  117.3490  164.1300 C.2   380  ARG380      0.2592
      4  O        137.8610  117.9600  163.3130 O.2   380  ARG380     -0.2718
      5  CB       137.3920  115.2080  163.3810 C.3   380  ARG380      0.0321
      6  CG       137.1600  113.7200  163.6450 C.3   380  ARG380      0.0489
      7  CD       138.4830  112.9550  163.7060 C.3   380  ARG380      0.2205
      8  NE       139.2500  113.1150  162.4750 N.pl3 380  ARG380     -0.0865
      9  CZ       139.0400  112.4060  161.3710 C.cat 380  ARG380      0.5346
     10  NH1      139.7780  112.6220  160.2910 N.pl3 380  ARG380      0.1354
     11  NH2      138.0860  111.4850  161.3470 N.pl3 380  ARG380      0.1354
     12  N        139.4090  117.9430  164.9490 N.am  381  TYR381     -0.1976
     13  CA       139.7110  119.3620  164.8960 C.3   381  TYR381      0.1639
     14  C        140.9270  119.6430  164.0250 C.2   381  TYR381      0.2290
     15  O        141.4810  120.7400  164.0750 O.2   381  TYR381     -0.2864
     16  CB       139.9220  119.9220  166.3020 C.3   381  TYR381      0.0560
     17  CG       138.6330  120.0390  167.0750 C.ar  381  TYR381     -0.0198
     18  CD1      137.7740  121.1110  166.8780 C.ar  381  TYR381     -0.0009
     19  CD2      138.2730  119.0780  167.9950 C.ar  381  TYR381     -0.0009
     20  CE1      136.5920  121.2210  167.5820 C.ar  381  TYR381      0.0417
     21  CE2      137.0920  119.1770  168.6990 C.ar  381  TYR381      0.0417
     22  CZ       136.2600  120.2490  168.4920 C.ar  381  TYR381      0.1957
     23  OH       135.0850  120.3420  169.2030 O.3   381  TYR381     -0.2866
     24  N        137.3530  120.5290  150.0540 N.3   469  HIS469     -0.1241
     25  CA       136.3590  121.0810  150.9610 C.3   469  HIS469      0.1621
     26  C        136.0600  120.1320  152.0920 C.2   469  HIS469      0.2264
     27  O        135.9380  120.5570  153.2300 O.2   469  HIS469     -0.2867
     28  CB       135.0710  121.4160  150.2210 C.3   469  HIS469      0.0745
     29  CG       135.1250  122.7170  149.4870 C.ar  469  HIS469      0.0817
     30  ND1      135.6220  123.8720  150.0510 N.ar  469  HIS469     -0.2268
     31  CD2      134.7370  123.0460  148.2310 C.ar  469  HIS469      0.1154
     32  CE1      135.5410  124.8570  149.1710 C.ar  469  HIS469      0.1986
     33  NE2      135.0070  124.3820  148.0590 N.ar  469  HIS469     -0.2212
     34  N        139.3580  119.8350  156.1310 N.3   473  GLU473     -0.1229
     35  CA       138.5990  120.2570  157.2990 C.3   473  GLU473      0.1734
     36  C        138.1380  119.1690  158.2070 C.2   473  GLU473      0.2593
     37  O        138.6370  118.9870  159.3130 O.2   473  GLU473     -0.2718
     38  CB       137.3530  120.9820  156.8580 C.3   473  GLU473      0.0836
     39  CG       137.5980  122.3860  156.4590 C.3   473  GLU473      0.2844
     40  CD       138.1010  123.2470  157.5830 C.2   473  GLU473      0.4040
     41  OE1      138.0920  122.7950  158.7520 O.co2 473  GLU473     -0.2418
     42  OE2      138.4890  124.4020  157.2540 O.co2 473  GLU473     -0.2418
     43  N        137.1110  118.4820  157.7390 N.am  474  GLN474     -0.1979
     44  CA       136.6160  117.2930  158.3980 C.3   474  GLN474      0.1601
     45  C        137.7000  116.2010  158.4070 C.2   474  GLN474      0.2287
     46  O        137.6340  115.2700  159.2020 O.2   474  GLN474     -0.2864
     47  CB       135.3480  116.8050  157.6930 C.3   474  GLN474      0.0394
     48  CG       134.1870  117.7830  157.8620 C.3   474  GLN474      0.0908
     49  CD       132.9440  117.3510  157.1100 C.2   474  GLN474      0.2608
     50  OE1      133.0200  116.6230  156.1280 O.2   474  GLN474     -0.2717
     51  NE2      131.7880  117.8200  157.5640 N.am  474  GLN474     -0.0878
     52  N        135.3770  130.6660  150.5400 N.3   520  PRO520     -0.2116
     53  CA       135.3810  129.6440  151.5850 C.3   520  PRO520      0.1372
     54  C        136.6780  128.8440  151.6050 C.2   520  PRO520      0.2244
     55  O        137.3550  128.7220  152.6380 O.2   520  PRO520     -0.2868
     56  CB       134.2050  128.7390  151.2080 C.3   520  PRO520      0.0268
     57  CG       133.9010  129.0590  149.7860 C.3   520  PRO520      0.0207
     58  CD       134.2230  130.5140  149.6470 C.3   520  PRO520      0.0892
     59  N        139.7220  128.7360  154.3600 N.3   524  ARG524     -0.1245
     60  CA       139.9560  127.4390  154.9670 C.3   524  ARG524      0.1563
     61  C        141.4480  127.2970  155.1680 C.2   524  ARG524      0.2260
     62  O        141.9030  126.8120  156.2040 O.2   524  ARG524     -0.2867
     63  CB       139.4340  126.3190  154.0670 C.3   524  ARG524      0.0307
     64  CG       139.5310  124.9320  154.6820 C.3   524  ARG524      0.0489
     65  CD       139.0420  123.8640  153.7180 C.3   524  ARG524      0.2204
     66  NE       137.6170  123.9990  153.4270 N.pl3 524  ARG524     -0.0894
     67  CZ       136.6480  123.5070  154.1910 C.cat 524  ARG524      0.4955
     68  NH1      136.9480  122.8420  155.2990 N.pl3 524  ARG524     -0.0811
     69  NH2      135.3790  123.6780  153.8490 N.pl3 524  ARG524      0.1317
     70  N        136.5650  132.4240  162.2970 N.3   618  THR618     -0.1203
     71  CA       136.9490  131.5610  163.4110 C.3   618  THR618      0.1994
     72  C        138.1330  130.6920  162.9990 C.2   618  THR618      0.2617
     73  O        138.9860  130.3010  163.8130 O.2   618  THR618     -0.2717
     74  CB       135.7710  130.6940  163.8630 C.3   618  THR618      0.1784
     75  OG1      136.1070  130.0030  165.0700 O.3   618  THR618     -0.2211
     76  CG2      135.4590  129.6800  162.8230 C.3   618  THR618      0.0376
     77  N        138.1860  130.4640  161.6950 N.am  619  ARG619     -0.1979
     78  CA       139.2290  129.7060  161.0750 C.3   619  ARG619      0.1597
     79  C        140.5730  130.3440  161.3580 C.2   619  ARG619      0.2287
     80  O        141.5380  129.6340  161.5530 O.2   619  ARG619     -0.2864
     81  CB       138.9740  129.5940  159.5810 C.3   619  ARG619      0.0334
     82  CG       139.6010  128.3680  158.9720 C.3   619  ARG619      0.0492
     83  CD       139.1740  127.0990  159.6920 C.3   619  ARG619      0.2205
     84  NE       137.8190  126.6250  159.4140 N.pl3 619  ARG619     -0.0865
     85  CZ       137.1640  126.7290  158.2540 C.cat 619  ARG619      0.5346
     86  NH1      135.9390  126.2380  158.1650 N.pl3 619  ARG619      0.1354
     87  NH2      137.6880  127.2990  157.1750 N.pl3 619  ARG619      0.1354
     88  N        141.4790  129.0800  164.8610 N.3   622  GLU622     -0.1245
     89  CA       141.9360  127.7080  164.7590 C.3   622  GLU622      0.1567
     90  C        143.3620  127.6840  164.2180 C.2   622  GLU622      0.2260
     91  O        144.2370  126.9740  164.7230 O.2   622  GLU622     -0.2867
     92  CB       141.0000  126.8990  163.8610 C.3   622  GLU622      0.0388
     93  CG       140.7620  125.4970  164.3670 C.3   622  GLU622      0.1160
     94  CD       140.3620  125.4660  165.8310 C.2   622  GLU622      0.3649
     95  OE1      139.7030  126.4180  166.3120 O.co2 622  GLU622     -0.2457
     96  OE2      140.7160  124.4820  166.5110 O.co2 622  GLU622     -0.2457
@<TRIPOS>BOND
     1    33    31   ar
     2    33    32   ar
     3    31    29   ar
     4    32    30   ar
     5    29    30   ar
     6    29    28    1
     7    58    57    1
     8    58    52    1
     9    57    56    1
    10    24    25    1
    11    28    25    1
    12    52    53    1
    13    25    26    1
    14    56    53    1
    15    53    54    1
    16    54    55    2
    17    26    27    2
    18    66    65    1
    19    66    67    1
    20    65    64    1
    21    69    67    2
    22    63    64    1
    23    63    60    1
    24    67    68    1
    25    59    60    1
    26    60    61    1
    27    61    62    2
    28    68    39    1
    29    50    49    2
    30    34    35    1
    31    39    38    1
    32    39    40    1
    33    38    35    1
    34    49    51   am
    35    49    48    1
    36    87    85    1
    37    42    40   ar
    38    35    36    1
    39    40    41   ar
    40    47    48    1
    41    47    44    1
    42    43    36   am
    43    43    44    1
    44    86    85    1
    45    36    37    2
    46    85    84    2
    47    44    45    1
    48    45    46    2
    49    82    81    1
    50    82    83    1
    51    84    83    1
    52    81    78    1
    53    10     9    1
    54    78    79    1
    55    78    77    1
    56    11     9    1
    57    79    80    2
    58     9     8    2
    59    77    72   am
    60    70    71    1
    61     8     7    1
    62    76    74    1
    63    72    71    1
    64    72    73    2
    65     4     3    2
    66     5     6    1
    67     5     2    1
    68    71    74    1
    69     6     7    1
    70    92    93    1
    71    92    89    1
    72    74    75    1
    73    14    15    2
    74    14    13    1
    75     3     2    1
    76     3    12   am
    77    90    91    2
    78    90    89    1
    79     2     1    1
    80    93    94    1
    81    89    88    1
    82    13    12    1
    83    13    16    1
    84    94    95   ar
    85    94    96   ar
    86    16    17    1
    87    18    17   ar
    88    18    20   ar
    89    17    19   ar
    90    20    22   ar
    91    19    21   ar
    92    22    21   ar
    93    22    23    1
