@<TRIPOS>MOLECULE
tmp/5v8fE01.pdb
 157 153 0 0 0
SMALL
GASTEIGER

@<TRIPOS>ATOM
      1  N        130.1160  121.4950  172.2990 N.3   317  ALA317     -0.1231
      2  CA       131.3470  122.1520  171.8750 C.3   317  ALA317      0.1694
      3  C        131.0280  123.4090  171.0930 C.2   317  ALA317      0.2592
      4  O        131.6360  124.4590  171.2920 O.2   317  ALA317     -0.2718
      5  CB       132.1770  121.2210  171.0430 C.3   317  ALA317      0.0304
      6  N        130.0640  123.2850  170.1940 N.am  318  VAL318     -0.1966
      7  CA       129.6140  124.3950  169.3720 C.3   318  VAL318      0.1727
      8  C        129.1510  125.5780  170.2160 C.2   318  VAL318      0.2616
      9  O        128.4700  125.3760  171.2130 O.2   318  VAL318     -0.2715
     10  CB       128.4700  123.9470  168.4840 C.3   318  VAL318      0.0290
     11  CG1      128.1610  125.0130  167.4760 C.3   318  VAL318      0.0023
     12  CG2      128.8380  122.6400  167.8080 C.3   318  VAL318      0.0023
     13  N        129.4930  126.8080  169.8360 N.am  319  PHE319     -0.1974
     14  CA       129.1070  127.9550  170.6630 C.3   319  PHE319      0.1639
     15  C        127.8270  128.6500  170.2460 C.2   319  PHE319      0.2290
     16  O        127.6770  129.0590  169.0940 O.2   319  PHE319     -0.2864
     17  CB       130.1920  129.0130  170.6940 C.3   319  PHE319      0.0560
     18  CG       129.7760  130.2530  171.4320 C.ar  319  PHE319     -0.0200
     19  CD1      129.7100  130.2560  172.8100 C.ar  319  PHE319     -0.0042
     20  CD2      129.4210  131.4040  170.7580 C.ar  319  PHE319     -0.0042
     21  CE1      129.3210  131.3950  173.5060 C.ar  319  PHE319     -0.0003
     22  CE2      129.0350  132.5450  171.4520 C.ar  319  PHE319     -0.0003
     23  CZ       128.9850  132.5360  172.8280 C.ar  319  PHE319     -0.0000
     24  N        124.4560  129.8690  168.9520 N.3   321  HIS321     -0.1241
     25  CA       123.3300  129.5480  168.0960 C.3   321  HIS321      0.1621
     26  C        122.0790  129.5610  168.9820 C.2   321  HIS321      0.2264
     27  O        121.5190  130.6430  169.1590 O.2   321  HIS321     -0.2867
     28  CB       123.5600  128.2450  167.3450 C.3   321  HIS321      0.0745
     29  CG       124.5610  128.4000  166.2420 C.ar  321  HIS321      0.0817
     30  ND1      125.8860  128.0570  166.3770 N.ar  321  HIS321     -0.2268
     31  CD2      124.4620  129.0070  165.0400 C.ar  321  HIS321      0.1154
     32  CE1      126.5470  128.3740  165.2790 C.ar  321  HIS321      0.1986
     33  NE2      125.7010  128.9530  164.4510 N.ar  321  HIS321     -0.2212
     34  N        130.9640  129.8180  155.6680 N.3   358  PRO358     -0.2102
     35  CA       131.8620  128.9220  156.3920 C.3   358  PRO358      0.1504
     36  C        132.3720  129.4310  157.7230 C.2   358  PRO358      0.2576
     37  O        131.9760  130.5110  158.1760 O.2   358  PRO358     -0.2718
     38  CB       133.0280  128.7680  155.4260 C.3   358  PRO358      0.0282
     39  CG       132.4650  129.0950  154.0730 C.3   358  PRO358      0.0208
     40  CD       131.0450  129.5520  154.2220 C.3   358  PRO358      0.0893
     41  N        133.2470  128.6310  158.3270 N.am  359  SER359     -0.1938
     42  CA       133.7870  128.9090  159.6580 C.3   359  SER359      0.2055
     43  C        132.6210  129.0790  160.5840 C.2   359  SER359      0.2644
     44  O        132.6050  129.9640  161.4480 O.2   359  SER359     -0.2714
     45  CB       134.6860  130.1260  159.6260 C.3   359  SER359      0.2130
     46  OG       135.7530  129.9830  158.7160 O.3   359  SER359     -0.2179
     47  N        131.5270  128.3470  160.3360 N.am  360  THR360     -0.1936
     48  CA       130.3820  128.7770  161.0790 C.3   360  THR360      0.2028
     49  C        129.9890  127.6270  161.8510 C.2   360  THR360      0.2643
     50  O        128.9930  127.6610  162.5800 O.2   360  THR360     -0.2714
     51  CB       129.3060  129.3690  160.2410 C.3   360  THR360      0.1808
     52  OG1      129.9170  130.2670  159.2990 O.3   360  THR360     -0.2208
     53  CG2      128.3920  130.1490  161.1110 C.3   360  THR360      0.0379
     54  N        130.7200  126.5410  161.5950 N.am  361  SER361     -0.1935
     55  CA       130.4460  125.3380  162.3850 C.3   361  SER361      0.2055
     56  C        129.1770  124.6360  161.8900 C.2   361  SER361      0.2643
     57  O        128.7350  123.6710  162.4980 O.2   361  SER361     -0.2714
     58  CB       130.3230  125.6350  163.9140 C.3   361  SER361      0.2130
     59  OG       129.1520  126.3530  164.2360 O.3   361  SER361     -0.2179
     60  N        128.5830  125.1190  160.8010 N.am  362  LYS362     -0.1963
     61  CA       127.5380  124.3420  160.1410 C.3   362  LYS362      0.1728
     62  C        127.9370  122.8740  159.8240 C.2   362  LYS362      0.2617
     63  O        127.1010  121.9820  159.9340 O.2   362  LYS362     -0.2715
     64  CB       127.0900  125.0370  158.8610 C.3   362  LYS362      0.0311
     65  CG       127.9830  124.7800  157.6960 C.3   362  LYS362      0.0038
     66  CD       127.4750  125.4820  156.5020 C.3   362  LYS362      0.0206
     67  CE       127.1400  126.8990  156.8530 C.3   362  LYS362      0.1093
     68  NZ       126.9610  127.6800  155.6230 N.3   362  LYS362     -0.1314
     69  N        129.1950  122.6220  159.4470 N.am  363  SER363     -0.1936
     70  CA       129.6780  121.2520  159.2080 C.3   363  SER363      0.2055
     71  C        129.6910  120.4880  160.5240 C.2   363  SER363      0.2642
     72  O        129.4570  119.2630  160.5850 O.2   363  SER363     -0.2714
     73  CB       131.0810  121.2450  158.5910 C.3   363  SER363      0.2130
     74  OG       131.1200  121.8160  157.2910 O.3   363  SER363     -0.2179
     75  N        129.9630  121.2370  161.5830 N.am  364  GLN364     -0.1976
     76  CA       130.1290  120.6650  162.8980 C.3   364  GLN364      0.1601
     77  C        128.9090  119.9280  163.3880 C.2   364  GLN364      0.2287
     78  O        129.0290  118.8460  163.9680 O.2   364  GLN364     -0.2864
     79  CB       130.5130  121.7420  163.9000 C.3   364  GLN364      0.0394
     80  CG       131.9880  121.7820  164.0940 C.3   364  GLN364      0.0908
     81  CD       132.5970  120.4060  163.9440 C.2   364  GLN364      0.2608
     82  OE1      133.1150  120.0490  162.8820 O.2   364  GLN364     -0.2717
     83  NE2      132.5170  119.6110  165.0010 N.am  364  GLN364     -0.0878
     84  N        126.2560  117.7930  152.7340 N.3   420  ASP420     -0.1225
     85  CA       126.7930  119.1600  152.6790 C.3   420  ASP420      0.1805
     86  C        126.8780  119.6770  151.2860 C.2   420  ASP420      0.2597
     87  O        126.9910  118.8940  150.3340 O.2   420  ASP420     -0.2718
     88  CB       128.1760  119.2430  153.2870 C.3   420  ASP420      0.1424
     89  CG       128.1500  119.0880  154.7720 C.2   420  ASP420      0.3668
     90  OD1      127.0570  119.2000  155.3570 O.co2 420  ASP420     -0.2456
     91  OD2      129.2210  118.7970  155.3580 O.co2 420  ASP420     -0.2456
     92  N        126.8490  120.9970  151.1760 N.am  421  GLU421     -0.1979
     93  CA       127.1710  121.6420  149.9200 C.3   421  GLU421      0.1602
     94  C        126.2530  121.1470  148.8360 C.2   421  GLU421      0.2287
     95  O        126.6670  120.3940  147.9510 O.2   421  GLU421     -0.2864
     96  CB       128.6080  121.3740  149.5290 C.3   421  GLU421      0.0415
     97  CG       129.5960  121.4590  150.6930 C.3   421  GLU421      0.1163
     98  CD       130.8890  122.1240  150.2490 C.2   421  GLU421      0.3649
     99  OE1      131.3420  121.8430  149.1190 O.co2 421  GLU421     -0.2457
    100  OE2      131.4380  122.9570  151.0200 O.co2 421  GLU421     -0.2457
    101  N        123.7930  121.5130  154.1180 N.3   462  ALA462     -0.1245
    102  CA       124.8110  122.5120  154.4840 C.3   462  ALA462      0.1562
    103  C        125.2070  123.6820  153.5580 C.2   462  ALA462      0.2260
    104  O        125.9420  124.5640  154.0100 O.2   462  ALA462     -0.2867
    105  CB       126.0680  121.7760  154.8280 C.3   462  ALA462      0.0290
    106  N        127.0890  126.2780  151.3400 N.3   464  ASN464     -0.1240
    107  CA       127.5270  127.6540  151.4840 C.3   464  ASN464      0.1653
    108  C        126.8580  128.5130  150.4070 C.2   464  ASN464      0.2266
    109  O        126.5910  128.0310  149.3120 O.2   464  ASN464     -0.2867
    110  CB       129.0570  127.7680  151.3980 C.3   464  ASN464      0.1155
    111  CG       129.7960  127.1960  152.6210 C.2   464  ASN464      0.2627
    112  OD1      129.2480  127.0760  153.7420 O.2   464  ASN464     -0.2716
    113  ND2      131.0840  126.9060  152.4040 N.am  464  ASN464     -0.0877
    114  N        133.6150  134.0080  171.6300 N.3   508  LEU508     -0.1245
    115  CA       133.9830  132.9800  170.6630 C.3   508  LEU508      0.1561
    116  C        135.3580  132.4640  170.9920 C.2   508  LEU508      0.2260
    117  O        135.5730  131.2620  171.2050 O.2   508  LEU508     -0.2867
    118  CB       133.9590  133.5250  169.2360 C.3   508  LEU508      0.0270
    119  CG       132.6410  133.4280  168.4790 C.3   508  LEU508      0.0019
    120  CD1      132.8710  133.5320  166.9770 C.3   508  LEU508      0.0001
    121  CD2      132.0100  132.1210  168.8220 C.3   508  LEU508      0.0001
    122  N        135.7930  130.5970  174.2570 N.3   511  HIS511     -0.1226
    123  CA       135.1890  129.2690  174.2530 C.3   511  HIS511      0.1752
    124  C        135.9670  128.2410  173.4380 C.2   511  HIS511      0.2595
    125  O        136.2540  127.1410  173.9310 O.2   511  HIS511     -0.2718
    126  CB       133.7630  129.3500  173.7360 C.3   511  HIS511      0.0759
    127  CG       133.0090  128.0710  173.8730 C.ar  511  HIS511      0.0818
    128  ND1      132.5600  127.6030  175.0880 N.ar  511  HIS511     -0.2268
    129  CD2      132.6390  127.1500  172.9530 C.ar  511  HIS511      0.1154
    130  CE1      131.9360  126.4530  174.9090 C.ar  511  HIS511      0.1986
    131  NE2      131.9700  126.1550  173.6220 N.ar  511  HIS511     -0.2212
    132  N        136.3090  128.5830  172.1970 N.am  512  ILE512     -0.1980
    133  CA       137.0910  127.6790  171.3560 C.3   512  ILE512      0.1595
    134  C        138.4580  127.3960  171.9790 C.2   512  ILE512      0.2287
    135  O        138.9100  126.2460  172.0380 O.2   512  ILE512     -0.2864
    136  CB       137.2850  128.2500  169.9470 C.3   512  ILE512      0.0276
    137  CG1      136.0120  128.0660  169.1340 C.3   512  ILE512      0.0022
    138  CG2      138.3840  127.5190  169.2350 C.3   512  ILE512      0.0022
    139  CD1      136.1410  128.5390  167.7260 C.3   512  ILE512      0.0001
    140  N        138.2730  125.1130  174.6450 N.3   515  LEU515     -0.1231
    141  CA       138.1610  123.7760  174.0850 C.3   515  LEU515      0.1693
    142  C        139.5270  123.1700  173.8300 C.2   515  LEU515      0.2592
    143  O        139.7670  122.0280  174.2150 O.2   515  LEU515     -0.2718
    144  CB       137.3700  123.7840  172.7830 C.3   515  LEU515      0.0284
    145  CG       135.8530  123.7480  172.9170 C.3   515  LEU515      0.0019
    146  CD1      135.1890  123.6890  171.5470 C.3   515  LEU515      0.0001
    147  CD2      135.4060  122.5820  173.7990 C.3   515  LEU515      0.0001
    148  N        140.4130  123.9140  173.1700 N.am  516  HIS516     -0.1976
    149  CA       141.7380  123.3710  172.8570 C.3   516  HIS516      0.1656
    150  C        142.5670  123.1440  174.0920 C.2   516  HIS516      0.2291
    151  O        143.4400  122.2790  174.1080 O.2   516  HIS516     -0.2864
    152  CB       142.4820  124.2800  171.9090 C.3   516  HIS516      0.0771
    153  CG       142.0430  124.1260  170.4990 C.ar  516  HIS516      0.0820
    154  ND1      142.6760  123.2840  169.6130 N.ar  516  HIS516     -0.2267
    155  CD2      141.0220  124.6940  169.8180 C.ar  516  HIS516      0.1154
    156  CE1      142.0700  123.3440  168.4430 C.ar  516  HIS516      0.1986
    157  NE2      141.0670  124.1990  168.5380 N.ar  516  HIS516     -0.2212
@<TRIPOS>BOND
     1    95    94    2
     2    94    93    1
     3    99    98   ar
     4   109   108    2
     5    96    93    1
     6    96    97    1
     7    93    92    1
     8    98    97    1
     9    98   100   ar
    10    87    86    2
    11   108   107    1
    12    92    86   am
    13    86    85    1
    14   106   107    1
    15   110   107    1
    16   110   111    1
    17   113   111   am
    18   111   112    2
    19    85    84    1
    20    85    88    1
    21    88    89    1
    22   103   104    2
    23   103   102    1
    24    39    40    1
    25    39    38    1
    26   101   102    1
    27    40    34    1
    28   102   105    1
    29    89    90   ar
    30    89    91   ar
    31    38    35    1
    32    68    67    1
    33    34    35    1
    34    35    36    1
    35    66    67    1
    36    66    65    1
    37    74    73    1
    38    65    64    1
    39    36    37    2
    40    36    41   am
    41    41    42    1
    42    73    70    1
    43    46    45    1
    44    64    61    1
    45    70    69    1
    46    70    71    1
    47    52    51    1
    48    69    62   am
    49    45    42    1
    50    42    43    1
    51    62    63    2
    52    62    61    1
    53    61    60    1
    54    51    48    1
    55    51    53    1
    56    47    43   am
    57    47    48    1
    58    71    72    2
    59    71    75   am
    60    43    44    2
    61    60    56   am
    62    48    49    1
    63    75    76    1
    64    54    49   am
    65    54    55    1
    66    49    50    2
    67    56    55    1
    68    56    57    2
    69    55    58    1
    70    82    81    2
    71    76    77    1
    72    76    79    1
    73    77    78    2
    74    79    80    1
    75    58    59    1
    76    81    80    1
    77    81    83   am
    78    33    31   ar
    79    33    32   ar
    80    31    29   ar
    81    32    30   ar
    82    29    30   ar
    83    29    28    1
    84   120   119    1
    85    28    25    1
    86    11    10    1
    87   139   137    1
    88    12    10    1
    89    25    24    1
    90    25    26    1
    91   156   157   ar
    92   156   154   ar
    93   119   121    1
    94   119   118    1
    95    10     7    1
    96   157   155   ar
    97    26    27    2
    98    16    15    2
    99   137   136    1
   100   138   136    1
   101   118   115    1
   102     7     6    1
   103     7     8    1
   104   154   153   ar
   105   155   153   ar
   106    13     8   am
   107    13    14    1
   108   136   133    1
   109     6     3   am
   110     8     9    2
   111    15    14    1
   112   153   152    1
   113   115   116    1
   114   115   114    1
   115    14    17    1
   116    17    18    1
   117    20    18   ar
   118    20    22   ar
   119   116   117    2
   120     5     2    1
   121     3     4    2
   122     3     2    1
   123   133   134    1
   124   133   132    1
   125    18    19   ar
   126    22    23   ar
   127   146   145    1
   128     2     1    1
   129   152   149    1
   130   134   135    2
   131   132   124   am
   132   144   145    1
   133   144   141    1
   134    19    21   ar
   135    23    21   ar
   136   149   148    1
   137   149   150    1
   138   145   147    1
   139   129   131   ar
   140   129   127   ar
   141   148   142   am
   142   124   125    2
   143   124   123    1
   144   131   130   ar
   145   126   127    1
   146   126   123    1
   147   142   141    1
   148   142   143    2
   149   127   128   ar
   150   141   140    1
   151   150   151    2
   152   123   122    1
   153   130   128   ar
