@<TRIPOS>MOLECULE
tmp/5v8fL00.pdb
 144 142 0 0 0
SMALL
GASTEIGER

@<TRIPOS>ATOM
      1  N        143.1960  191.8580  173.5180 N.3    16  TYR16      -0.1227
      2  CA       142.6140  192.2350  172.2550 C.3    16  TYR16       0.1736
      3  C        143.5300  193.2260  171.5220 C.2    16  TYR16       0.2596
      4  O        143.4440  193.3700  170.3050 O.2    16  TYR16      -0.2718
      5  CB       141.2260  192.8240  172.4510 C.3    16  TYR16       0.0548
      6  CG       140.6200  193.1840  171.1400 C.ar   16  TYR16      -0.0200
      7  CD1      140.0700  192.2090  170.3280 C.ar   16  TYR16      -0.0009
      8  CD2      140.6530  194.4920  170.6810 C.ar   16  TYR16      -0.0009
      9  CE1      139.5400  192.5300  169.0990 C.ar   16  TYR16       0.0417
     10  CE2      140.1310  194.8300  169.4560 C.ar   16  TYR16       0.0417
     11  CZ       139.5720  193.8460  168.6640 C.ar   16  TYR16       0.1957
     12  OH       139.0420  194.1730  167.4310 O.3    16  TYR16      -0.2866
     13  N        144.4070  193.8990  172.2680 N.am   17  GLY17      -0.1942
     14  CA       145.4030  194.8010  171.6990 C.3    17  GLY17       0.2014
     15  C        144.8850  196.0470  170.9960 C.2    17  GLY17       0.2639
     16  O        145.4780  196.5030  170.0190 O.2    17  GLY17      -0.2714
     17  N        143.7940  196.6170  171.4960 N.am   18  THR18      -0.1950
     18  CA       143.1690  197.7650  170.8410 C.3    18  THR18       0.1897
     19  C        143.7650  199.1150  171.2650 C.2    18  THR18       0.2313
     20  O        143.4420  200.1520  170.6840 O.2    18  THR18      -0.2863
     21  CB       141.6490  197.7980  171.1140 C.3    18  THR18       0.1794
     22  OG1      141.0530  198.8870  170.3990 O.3    18  THR18      -0.2208
     23  CG2      141.3760  197.9590  172.6060 C.3    18  THR18       0.0378
     24  N        148.4530  183.6150  155.1470 N.3    58  PRO58      -0.2102
     25  CA       147.1570  183.0160  155.4300 C.3    58  PRO58       0.1504
     26  C        146.3440  183.9400  156.3180 C.2    58  PRO58       0.2576
     27  O        146.9150  184.8590  156.9030 O.2    58  PRO58      -0.2718
     28  CB       147.5170  181.7200  156.1470 C.3    58  PRO58       0.0282
     29  CG       148.8020  182.0270  156.8190 C.3    58  PRO58       0.0208
     30  CD       149.5310  182.9630  155.9000 C.3    58  PRO58       0.0893
     31  N        145.0440  183.6870  156.4320 N.am   59  ARG59      -0.1966
     32  CA       144.1490  184.5470  157.2000 C.3    59  ARG59       0.1729
     33  C        144.5620  184.6140  158.6480 C.2    59  ARG59       0.2616
     34  O        145.2390  183.7160  159.1550 O.2    59  ARG59      -0.2715
     35  CB       142.7240  184.0410  157.1160 C.3    59  ARG59       0.0348
     36  CG       142.1550  184.1050  155.7510 C.3    59  ARG59       0.0492
     37  CD       141.9520  185.5270  155.3890 C.3    59  ARG59       0.2205
     38  NE       141.5540  185.6520  153.9930 N.pl3  59  ARG59      -0.0865
     39  CZ       141.4760  186.8080  153.3540 C.cat  59  ARG59       0.5346
     40  NH1      141.7600  187.9470  153.9670 N.pl3  59  ARG59       0.1354
     41  NH2      141.1080  186.7930  152.0760 N.pl3  59  ARG59       0.1354
     42  N        144.1490  185.6890  159.3080 N.am   60  GLN60      -0.1963
     43  CA       144.6060  185.9730  160.6620 C.3    60  GLN60       0.1733
     44  C        146.1260  186.0110  160.7100 C.2    60  GLN60       0.2617
     45  O        146.7350  185.6360  161.7170 O.2    60  GLN60      -0.2715
     46  CB       144.0730  184.9410  161.6760 C.3    60  GLN60       0.0408
     47  CG       142.6620  185.1940  162.1800 C.3    60  GLN60       0.0908
     48  CD       142.3620  186.6760  162.4060 C.2    60  GLN60       0.2608
     49  OE1      143.1780  187.4250  162.9610 O.2    60  GLN60      -0.2717
     50  NE2      141.1930  187.0990  161.9450 N.am   60  GLN60      -0.0878
     51  N        146.7430  186.4190  159.6110 N.am   61  SER61      -0.1936
     52  CA       148.0730  186.9490  159.7000 C.3    61  SER61       0.2055
     53  C        147.8980  188.3840  160.1280 C.2    61  SER61       0.2643
     54  O        146.9040  189.0600  159.7850 O.2    61  SER61      -0.2714
     55  CB       148.8040  186.8460  158.3800 C.3    61  SER61       0.2130
     56  OG       148.8840  185.4970  157.9910 O.3    61  SER61      -0.2179
     57  N        148.8620  188.8450  160.8980 N.am   62  TYR62      -0.1959
     58  CA       148.7830  190.1270  161.5770 C.3    62  TYR62       0.1771
     59  C        148.9700  191.2740  160.6050 C.2    62  TYR62       0.2619
     60  O        149.0100  192.4410  161.0050 O.2    62  TYR62      -0.2715
     61  CB       149.7870  190.1600  162.7220 C.3    62  TYR62       0.0574
     62  CG       149.3480  189.1830  163.7790 C.ar   62  TYR62      -0.0198
     63  CD1      148.1670  189.3790  164.4720 C.ar   62  TYR62      -0.0009
     64  CD2      150.0940  188.0480  164.0570 C.ar   62  TYR62      -0.0009
     65  CE1      147.7400  188.4950  165.4310 C.ar   62  TYR62       0.0417
     66  CE2      149.6760  187.1520  165.0160 C.ar   62  TYR62       0.0417
     67  CZ       148.5030  187.3810  165.7010 C.ar   62  TYR62       0.1957
     68  OH       148.0850  186.4800  166.6620 O.3    62  TYR62      -0.2866
     69  N        149.1120  190.9350  159.3250 N.am   63  LYS63      -0.1963
     70  CA       149.3800  191.9040  158.2620 C.3    63  LYS63       0.1728
     71  C        148.6080  193.2370  158.3680 C.2    63  LYS63       0.2617
     72  O        149.2370  194.2790  158.5420 O.2    63  LYS63      -0.2715
     73  CB       149.1120  191.2390  156.9120 C.3    63  LYS63       0.0311
     74  CG       147.6820  190.8330  156.6840 C.3    63  LYS63       0.0038
     75  CD       147.5380  190.2140  155.3150 C.3    63  LYS63       0.0206
     76  CE       146.1170  189.7920  155.0460 C.3    63  LYS63       0.1093
     77  NZ       146.0160  189.1940  153.7060 N.3    63  LYS63      -0.1314
     78  N        147.2840  193.2290  158.2510 N.am   64  THR64      -0.1937
     79  CA       146.5190  194.4590  158.4540 C.3    64  THR64       0.2028
     80  C        146.8910  195.0640  159.7870 C.2    64  THR64       0.2642
     81  O        147.1670  196.2590  159.8820 O.2    64  THR64      -0.2714
     82  CB       145.0030  194.2340  158.4460 C.3    64  THR64       0.1808
     83  OG1      144.6540  193.3240  157.3930 O.3    64  THR64      -0.2208
     84  CG2      144.2470  195.5560  158.2750 C.3    64  THR64       0.0379
     85  N        146.9020  194.2180  160.8120 N.am   65  TYR65      -0.1973
     86  CA       147.2000  194.6420  162.1750 C.3    65  TYR65       0.1639
     87  C        148.5770  195.2580  162.3240 C.2    65  TYR65       0.2290
     88  O        148.7040  196.3320  162.8870 O.2    65  TYR65      -0.2864
     89  CB       147.0850  193.4660  163.1340 C.3    65  TYR65       0.0560
     90  CG       147.5870  193.7710  164.5360 C.ar   65  TYR65      -0.0198
     91  CD1      146.7900  194.4450  165.4510 C.ar   65  TYR65      -0.0009
     92  CD2      148.8500  193.3670  164.9520 C.ar   65  TYR65      -0.0009
     93  CE1      147.2440  194.7140  166.7320 C.ar   65  TYR65       0.0417
     94  CE2      149.3080  193.6310  166.2290 C.ar   65  TYR65       0.0417
     95  CZ       148.5050  194.3020  167.1150 C.ar   65  TYR65       0.1957
     96  OH       148.9720  194.5610  168.3860 O.3    65  TYR65      -0.2866
     97  N        148.7780  198.5600  160.6460 N.3    68  ASP68      -0.1239
     98  CA       148.1580  199.5180  161.5490 C.3    68  ASP68       0.1674
     99  C        149.0900  199.9200  162.6740 C.2    68  ASP68       0.2266
    100  O        149.1260  201.0810  163.0650 O.2    68  ASP68      -0.2867
    101  CB       146.8720  198.9410  162.1430 C.3    68  ASP68       0.1410
    102  CG       145.6520  199.2560  161.3090 C.2    68  ASP68       0.3668
    103  OD1      145.8320  199.7300  160.1640 O.co2  68  ASP68      -0.2456
    104  OD2      144.5130  199.0310  161.8050 O.co2  68  ASP68      -0.2456
    105  N        143.2950  195.5360  150.6680 N.3   139  ASP139     -0.1225
    106  CA       143.0890  194.2240  151.2310 C.3   139  ASP139      0.1805
    107  C        142.5030  193.3520  150.1410 C.2   139  ASP139      0.2597
    108  O        141.6530  193.8170  149.3740 O.2   139  ASP139     -0.2718
    109  CB       142.1680  194.2720  152.4540 C.3   139  ASP139      0.1424
    110  CG       142.1860  192.9750  153.2460 C.2   139  ASP139      0.3668
    111  OD1      143.1730  192.7510  153.9760 O.co2 139  ASP139     -0.2456
    112  OD2      141.2130  192.1760  153.1360 O.co2 139  ASP139     -0.2456
    113  N        142.9790  192.1110  150.0580 N.am  140  GLU140     -0.1979
    114  CA       142.4110  191.1320  149.1510 C.3   140  GLU140      0.1602
    115  C        142.5600  191.5940  147.7040 C.2   140  GLU140      0.2287
    116  O        141.6260  191.4710  146.9170 O.2   140  GLU140     -0.2864
    117  CB       140.9370  190.9100  149.5010 C.3   140  GLU140      0.0415
    118  CG       140.2970  189.6530  148.9390 C.3   140  GLU140      0.1163
    119  CD       140.4810  188.4670  149.8480 C.2   140  GLU140      0.3649
    120  OE1      141.2980  188.5900  150.7830 O.co2 140  GLU140     -0.2457
    121  OE2      139.8130  187.4150  149.6400 O.co2 140  GLU140     -0.2457
    122  N        145.7460  186.4650  150.4180 N.3   174  THR174     -0.1218
    123  CA       146.1140  185.1380  150.9050 C.3   174  THR174      0.1862
    124  C        146.6780  184.1760  149.8620 C.2   174  THR174      0.2287
    125  O        147.2810  183.1560  150.2060 O.2   174  THR174     -0.2866
    126  CB       144.9080  184.4550  151.5400 C.3   174  THR174      0.1770
    127  OG1      144.1540  185.4120  152.2900 O.3   174  THR174     -0.2211
    128  CG2      145.3430  183.3310  152.4510 C.3   174  THR174      0.0375
    129  N        145.7610  183.4490  166.6690 N.3   257  PRO257     -0.2116
    130  CA       144.5230  184.2130  166.8790 C.3   257  PRO257      0.1372
    131  C        143.3500  183.3810  167.3790 C.2   257  PRO257      0.2244
    132  O        142.5260  183.8920  168.1410 O.2   257  PRO257     -0.2868
    133  CB       144.2160  184.7800  165.4910 C.3   257  PRO257      0.0268
    134  CG       145.4900  184.6840  164.7490 C.3   257  PRO257      0.0207
    135  CD       146.1520  183.4670  165.2520 C.3   257  PRO257      0.0892
    136  N        143.9650  183.1680  171.1060 N.3   260  LYS260     -0.1245
    137  CA       143.6320  184.4360  171.7570 C.3   260  LYS260      0.1561
    138  C        142.1250  184.5670  171.9210 C.2   260  LYS260      0.2260
    139  O        141.6040  185.0100  172.9760 O.2   260  LYS260     -0.2867
    140  CB       144.1810  185.5940  170.9350 C.3   260  LYS260      0.0271
    141  CG       143.9390  186.9680  171.5020 C.3   260  LYS260      0.0035
    142  CD       144.4270  188.0000  170.5040 C.3   260  LYS260      0.0206
    143  CE       145.8860  187.7750  170.1410 C.3   260  LYS260      0.1093
    144  NZ       146.2730  188.5600  168.9360 N.3   260  LYS260     -0.1314
@<TRIPOS>BOND
     1   116   115    2
     2   115   114    1
     3   118   117    1
     4   118   119    1
     5   114   117    1
     6   114   113    1
     7   108   107    2
     8   121   119   ar
     9   119   120   ar
    10   124   125    2
    11   124   123    1
    12   113   107   am
    13   107   106    1
    14   122   123    1
    15   105   106    1
    16   123   126    1
    17   106   109    1
    18   126   127    1
    19   126   128    1
    20    41    39    1
    21   109   110    1
    22   112   110   ar
    23   110   111   ar
    24    39    40    1
    25    39    38    2
    26    77    76    1
    27    38    37    1
    28    76    75    1
    29    24    25    1
    30    24    30    1
    31    75    74    1
    32    37    36    1
    33    25    28    1
    34    25    26    1
    35    36    35    1
    36    30    29    1
    37    28    29    1
    38    26    31   am
    39    26    27    2
    40    31    32    1
    41    74    73    1
    42    73    70    1
    43    35    32    1
    44    32    33    1
    45    83    82    1
    46    56    55    1
    47    78    71   am
    48    78    79    1
    49    70    71    1
    50    70    69    1
    51    84    82    1
    52    71    72    2
    53    55    52    1
    54    82    79    1
    55    79    80    1
    56    33    34    2
    57    33    42   am
    58    42    43    1
    59    69    59   am
    60    51    52    1
    61    51    44   am
    62    52    53    1
    63    54    53    2
    64    80    81    2
    65    80    85   am
    66    53    57   am
    67   103   102   ar
    68    59    60    2
    69    59    58    1
    70    97    98    1
    71    43    44    1
    72    43    46    1
    73    44    45    2
    74    85    86    1
    75    57    58    1
    76   102   104   ar
    77   102   101    1
    78    98   101    1
    79    98    99    1
    80    58    61    1
    81    46    47    1
    82    50    48   am
    83    86    87    1
    84    86    89    1
    85    47    48    1
    86    87    88    2
    87    48    49    2
    88    99   100    2
    89    61    62    1
    90    89    90    1
    91    62    64   ar
    92    62    63   ar
    93    64    66   ar
    94    63    65   ar
    95    90    92   ar
    96    90    91   ar
    97   134   135    1
    98   134   133    1
    99    92    94   ar
   100    66    67   ar
   101   135   129    1
   102    65    67   ar
   103    91    93   ar
   104   133   130    1
   105    67    68    1
   106    94    95   ar
   107   129   130    1
   108    93    95   ar
   109   130   131    1
   110    95    96    1
   111   131   132    2
   112    12    11    1
   113    11     9   ar
   114    11    10   ar
   115   144   143    1
   116     9     7   ar
   117    10     8   ar
   118    16    15    2
   119   143   142    1
   120     4     3    2
   121     7     6   ar
   122    22    21    1
   123   142   141    1
   124     8     6   ar
   125    20    19    2
   126    18    21    1
   127    18    19    1
   128    18    17    1
   129   140   141    1
   130   140   137    1
   131    15    17   am
   132    15    14    1
   133   136   137    1
   134    21    23    1
   135     6     5    1
   136     3     2    1
   137     3    13   am
   138    14    13    1
   139   137   138    1
   140   138   139    2
   141     2     5    1
   142     2     1    1
