@<TRIPOS>MOLECULE
tmp/5v8fA00.pdb
 157 153 0 0 0
SMALL
GASTEIGER

@<TRIPOS>ATOM
      1  N         90.7730  115.4680  150.2620 N.3   274  SER274     -0.1202
      2  CA        91.6230  116.1370  151.2360 C.3   274  SER274      0.2020
      3  C         92.4260  117.3410  150.7080 C.2   274  SER274      0.2619
      4  O         93.1180  117.9910  151.4820 O.2   274  SER274     -0.2717
      5  CB        92.5960  115.1200  151.8410 C.3   274  SER274      0.2103
      6  OG        93.3190  115.6650  152.9320 O.3   274  SER274     -0.2182
      7  N         92.3370  117.6360  149.4170 N.am  275  ILE275     -0.1965
      8  CA        93.2600  118.5650  148.8000 C.3   275  ILE275      0.1727
      9  C         92.7880  120.0060  148.7900 C.2   275  ILE275      0.2616
     10  O         93.6100  120.9490  148.6350 O.2   275  ILE275     -0.2715
     11  CB        93.5490  118.0930  147.3780 C.3   275  ILE275      0.0290
     12  CG1       94.3070  116.7540  147.4840 C.3   275  ILE275      0.0022
     13  CG2       94.2940  119.1390  146.5650 C.3   275  ILE275      0.0023
     14  CD1       94.4450  116.0170  146.1830 C.3   275  ILE275      0.0001
     15  N         91.4840  120.1720  149.0350 N.am  276  TYR276     -0.1960
     16  CA        90.7820  121.4330  148.8030 C.3   276  TYR276      0.1771
     17  C         91.0540  121.8110  147.3800 C.2   276  TYR276      0.2620
     18  O         90.4550  121.2760  146.4350 O.2   276  TYR276     -0.2715
     19  CB        91.1860  122.5390  149.7530 C.3   276  TYR276      0.0574
     20  CG        90.3430  123.7900  149.6370 C.ar  276  TYR276     -0.0198
     21  CD1       89.1270  123.9050  150.2880 C.ar  276  TYR276     -0.0009
     22  CD2       90.7770  124.8530  148.8760 C.ar  276  TYR276     -0.0009
     23  CE1       88.3700  125.0480  150.1700 C.ar  276  TYR276      0.0417
     24  CE2       90.0370  125.9800  148.7470 C.ar  276  TYR276      0.0417
     25  CZ        88.8390  126.0840  149.3940 C.ar  276  TYR276      0.1957
     26  OH        88.1050  127.2380  149.2550 O.3   276  TYR276     -0.2866
     27  N         91.8960  122.8180  147.2340 N.am  277  GLY277     -0.1954
     28  CA        92.5670  123.1160  145.9900 C.3   277  GLY277      0.1869
     29  C         91.5440  123.4760  144.9660 C.2   277  GLY277      0.2309
     30  O         90.4500  123.9440  145.2820 O.2   277  GLY277     -0.2863
     31  N        103.3380  123.9320  140.3510 N.3   314  ASP314     -0.1225
     32  CA       103.8930  125.1420  140.9420 C.3   314  ASP314      0.1790
     33  C        103.9930  124.8020  142.4220 C.2   314  ASP314      0.2440
     34  O        103.0250  124.3150  142.9940 O.2   314  ASP314     -0.2733
     35  CB       102.9860  126.3510  140.6640 C.3   314  ASP314      0.1423
     36  CG       103.3460  127.5890  141.4650 C.2   314  ASP314      0.3668
     37  OD1      104.5060  127.7310  141.8880 O.co2 314  ASP314     -0.2456
     38  OD2      102.4430  128.4490  141.6460 O.co2 314  ASP314     -0.2456
     39  N        105.1520  125.0690  143.0460 N.am  315  PRO315     -0.2718
     40  CA       105.3730  124.5780  144.4080 C.3   315  PRO315      0.1535
     41  C        104.3400  125.1210  145.3520 C.2   315  PRO315      0.2599
     42  O        103.9280  126.2640  145.1850 O.2   315  PRO315     -0.2715
     43  CB       106.7590  125.1080  144.7550 C.3   315  PRO315      0.0310
     44  CG       107.4410  125.2210  143.4510 C.3   315  PRO315      0.0237
     45  CD       106.3900  125.5600  142.4310 C.3   315  PRO315      0.0939
     46  N        103.9140  124.3270  146.3230 N.am  316  GLY316     -0.1941
     47  CA       102.8620  124.7820  147.2120 C.3   316  GLY316      0.2014
     48  C        101.5150  124.2910  146.7280 C.2   316  GLY316      0.2640
     49  O        100.5500  124.2430  147.4940 O.2   316  GLY316     -0.2714
     50  N        101.4590  123.9090  145.4590 N.am  317  THR317     -0.1936
     51  CA       100.2460  123.3700  144.8730 C.3   317  THR317      0.2028
     52  C        100.5020  121.8770  144.8510 C.2   317  THR317      0.2642
     53  O        101.5420  121.4340  144.3640 O.2   317  THR317     -0.2714
     54  CB       100.0260  123.8800  143.4400 C.3   317  THR317      0.1808
     55  OG1      100.2710  125.2910  143.3890 O.3   317  THR317     -0.2208
     56  CG2       98.6010  123.6000  142.9870 C.3   317  THR317      0.0379
     57  N         99.5680  121.0910  145.3740 N.am  318  ALA318     -0.1963
     58  CA        99.7790  119.6480  145.4370 C.3   318  ALA318      0.1728
     59  C         99.4330  118.8880  144.1600 C.2   318  ALA318      0.2616
     60  O         98.5230  118.0590  144.1480 O.2   318  ALA318     -0.2715
     61  CB        99.0250  119.0590  146.6210 C.3   318  ALA318      0.0334
     62  N        100.1650  119.1760  143.0850 N.am  319  LYS319     -0.1963
     63  CA        99.9830  118.4720  141.8240 C.3   319  LYS319      0.1728
     64  C        100.4030  117.0210  142.0230 C.2   319  LYS319      0.2617
     65  O         99.7480  116.0940  141.5460 O.2   319  LYS319     -0.2715
     66  CB       100.8170  119.1210  140.7190 C.3   319  LYS319      0.0311
     67  CG       102.3170  119.0460  140.9480 C.3   319  LYS319      0.0038
     68  CD       103.0840  119.6870  139.8020 C.3   319  LYS319      0.0206
     69  CE       104.5850  119.6120  140.0320 C.3   319  LYS319      0.1093
     70  NZ       105.3490  120.2360  138.9180 N.3   319  LYS319     -0.1314
     71  N        101.5120  116.8450  142.7380 N.am  320  SER320     -0.1936
     72  CA       102.0530  115.5290  143.0390 C.3   320  SER320      0.2055
     73  C        101.0940  114.7190  143.9010 C.2   320  SER320      0.2642
     74  O        100.9180  113.5210  143.6820 O.2   320  SER320     -0.2714
     75  CB       103.4080  115.6550  143.7380 C.3   320  SER320      0.2130
     76  OG       103.3060  116.4440  144.9110 O.3   320  SER320     -0.2179
     77  N        100.4710  115.3690  144.8820 N.am  321  GLN321     -0.1976
     78  CA        99.5450  114.6610  145.7400 C.3   321  GLN321      0.1601
     79  C         98.2980  114.1550  145.0060 C.2   321  GLN321      0.2287
     80  O         97.9250  112.9960  145.1920 O.2   321  GLN321     -0.2864
     81  CB        99.1120  115.5480  146.8940 C.3   321  GLN321      0.0394
     82  CG        98.2420  114.8150  147.8800 C.3   321  GLN321      0.0908
     83  CD        98.9880  113.6820  148.5610 C.2   321  GLN321      0.2608
     84  OE1      100.0050  113.8950  149.2330 O.2   321  GLN321     -0.2717
     85  NE2       98.4930  112.4500  148.3740 N.am  321  GLN321     -0.0878
     86  N        105.5240  112.0690  136.6700 N.3   377  ASP377     -0.1225
     87  CA       105.6720  113.4490  137.0850 C.3   377  ASP377      0.1805
     88  C        107.0960  113.9220  136.9160 C.2   377  ASP377      0.2597
     89  O        108.0010  113.1200  136.6790 O.2   377  ASP377     -0.2718
     90  CB       105.2010  113.6360  138.5290 C.3   377  ASP377      0.1424
     91  CG       106.0840  112.9440  139.5440 C.2   377  ASP377      0.3668
     92  OD1      106.9200  112.0950  139.1530 O.co2 377  ASP377     -0.2456
     93  OD2      105.9120  113.2590  140.7500 O.co2 377  ASP377     -0.2456
     94  N        107.2690  115.2330  137.0170 N.am  378  GLU378     -0.1979
     95  CA       108.5720  115.8280  136.8830 C.3   378  GLU378      0.1602
     96  C        109.1250  115.4820  135.5060 C.2   378  GLU378      0.2287
     97  O        110.0690  114.7040  135.3680 O.2   378  GLU378     -0.2864
     98  CB       109.4910  115.3410  138.0040 C.3   378  GLU378      0.0415
     99  CG       110.8310  116.0360  138.0380 C.3   378  GLU378      0.1163
    100  CD       110.7240  117.4910  137.6320 C.2   378  GLU378      0.3649
    101  OE1      109.9950  118.2470  138.3180 O.co2 378  GLU378     -0.2457
    102  OE2      111.3650  117.8620  136.6140 O.co2 378  GLU378     -0.2457
    103  N        102.7880  115.4040  135.9940 N.3   419  ALA419     -0.1245
    104  CA       102.9430  116.5880  136.8300 C.3   419  ALA419      0.1562
    105  C        104.2320  117.3090  136.4540 C.2   419  ALA419      0.2260
    106  O        105.3240  116.7630  136.6000 O.2   419  ALA419     -0.2867
    107  CB       102.9300  116.2220  138.2970 C.3   419  ALA419      0.0290
    108  N        106.8820  120.6640  136.4040 N.3   421  ASN421     -0.1240
    109  CA       107.3650  121.8270  137.1350 C.3   421  ASN421      0.1653
    110  C        108.0220  122.8540  136.2190 C.2   421  ASN421      0.2266
    111  O        109.0630  122.5820  135.6250 O.2   421  ASN421     -0.2867
    112  CB       108.3460  121.4020  138.2220 C.3   421  ASN421      0.1155
    113  CG       108.5560  122.4790  139.2620 C.2   421  ASN421      0.2627
    114  OD1      107.6680  123.2910  139.5180 O.2   421  ASN421     -0.2716
    115  ND2      109.7240  122.4740  139.8960 N.am  421  ASN421     -0.0877
    116  N         91.0580  127.9800  152.9800 N.3   465  LEU465     -0.1245
    117  CA        92.0560  126.9750  152.6470 C.3   465  LEU465      0.1561
    118  C         92.7560  126.4660  153.9000 C.2   465  LEU465      0.2260
    119  O         92.8830  125.2520  154.1000 O.2   465  LEU465     -0.2867
    120  CB        93.0790  127.5520  151.6670 C.3   465  LEU465      0.0270
    121  CG        94.0850  126.6140  151.0050 C.3   465  LEU465      0.0019
    122  CD1       94.4850  127.1700  149.6470 C.3   465  LEU465      0.0001
    123  CD2       95.3150  126.4160  151.8700 C.3   465  LEU465      0.0001
    124  N         90.6700  124.4680  156.2480 N.3   468  PHE468     -0.1227
    125  CA        90.4220  123.2000  155.5910 C.3   468  PHE468      0.1736
    126  C         91.5810  122.2240  155.7770 C.2   468  PHE468      0.2595
    127  O         91.3620  121.0490  156.0750 O.2   468  PHE468     -0.2718
    128  CB        90.1610  123.3680  154.1020 C.3   468  PHE468      0.0547
    129  CG        89.8470  122.0790  153.4350 C.ar  468  PHE468     -0.0202
    130  CD1       88.5680  121.5730  153.4740 C.ar  468  PHE468     -0.0042
    131  CD2       90.8390  121.3350  152.8340 C.ar  468  PHE468     -0.0042
    132  CE1       88.2780  120.3690  152.8900 C.ar  468  PHE468     -0.0003
    133  CE2       90.5540  120.1310  152.2470 C.ar  468  PHE468     -0.0003
    134  CZ        89.2750  119.6470  152.2740 C.ar  468  PHE468     -0.0000
    135  N         92.8070  122.7020  155.5790 N.am  469  VAL469     -0.1980
    136  CA        93.9690  121.8290  155.7140 C.3   469  VAL469      0.1595
    137  C         94.1770  121.4060  157.1660 C.2   469  VAL469      0.2287
    138  O         94.3950  120.2350  157.4600 O.2   469  VAL469     -0.2864
    139  CB        95.2560  122.4930  155.2190 C.3   469  VAL469      0.0276
    140  CG1       96.3970  121.5010  155.2660 C.3   469  VAL469      0.0022
    141  CG2       95.0760  123.0040  153.8180 C.3   469  VAL469      0.0022
    142  N         92.0880  118.9800  158.0010 N.3   472  SER472     -0.1202
    143  CA        92.5270  117.7310  157.3890 C.3   472  SER472      0.2020
    144  C         93.5120  117.0170  158.3030 C.2   472  SER472      0.2618
    145  O         93.4610  115.8080  158.3830 O.2   472  SER472     -0.2717
    146  CB        93.1370  117.9610  156.0000 C.3   472  SER472      0.2103
    147  OG        93.4850  116.7370  155.3710 O.3   472  SER472     -0.2182
    148  N         94.3670  117.7370  159.0270 N.am  473  HIS473     -0.1975
    149  CA        95.2120  117.0600  160.0140 C.3   473  HIS473      0.1656
    150  C         94.5200  116.9010  161.3700 C.2   473  HIS473      0.2291
    151  O         95.0960  116.3210  162.2870 O.2   473  HIS473     -0.2864
    152  CB        96.5360  117.7880  160.2450 C.3   473  HIS473      0.0771
    153  CG        97.5010  117.7080  159.1040 C.ar  473  HIS473      0.0820
    154  ND1       97.2650  118.3030  157.8850 N.ar  473  HIS473     -0.2267
    155  CD2       98.7300  117.1510  159.0170 C.ar  473  HIS473      0.1154
    156  CE1       98.2960  118.1010  157.0870 C.ar  473  HIS473      0.1986
    157  NE2       99.2000  117.4050  157.7500 N.ar  473  HIS473     -0.2212
@<TRIPOS>BOND
     1    97    96    2
     2    96    95    1
     3   111   110    2
     4   103   104    1
     5   110   109    1
     6   108   109    1
     7   105   106    2
     8   105   104    1
     9   102   100   ar
    10    86    87    1
    11    89    88    2
    12   104   107    1
    13    95    94    1
    14    95    98    1
    15    88    94   am
    16    88    87    1
    17    87    90    1
    18   109   112    1
    19   100    99    1
    20   100   101   ar
    21    98    99    1
    22   112   113    1
    23    90    91    1
    24    70    69    1
    25    92    91   ar
    26   113   114    2
    27   113   115   am
    28    91    93   ar
    29    68    69    1
    30    68    67    1
    31    31    32    1
    32    35    32    1
    33    35    36    1
    34    66    67    1
    35    66    63    1
    36    32    33    1
    37    36    38   ar
    38    36    37   ar
    39    65    64    2
    40    63    64    1
    41    63    62    1
    42    64    71   am
    43    33    34    2
    44    33    39   am
    45    45    39    1
    46    45    44    1
    47    71    72    1
    48    56    54    1
    49    72    75    1
    50    72    73    1
    51    39    40    1
    52    62    59   am
    53    55    54    1
    54    54    51    1
    55    44    43    1
    56    74    73    2
    57    75    76    1
    58    73    77   am
    59    60    59    2
    60    59    58    1
    61    53    52    2
    62    40    43    1
    63    40    41    1
    64    52    51    1
    65    52    57   am
    66    51    50    1
    67    77    78    1
    68    29    30    2
    69    29    28    1
    70    79    80    2
    71    79    78    1
    72    42    41    2
    73    41    46   am
    74    57    58    1
    75    58    61    1
    76    50    48   am
    77    78    81    1
    78    28    27    1
    79    14    12    1
    80    46    47    1
    81    18    17    2
    82    13    11    1
    83    48    47    1
    84    48    49    2
    85    81    82    1
    86    27    17   am
    87    11    12    1
    88    11     8    1
    89    17    16    1
    90    82    83    1
    91    85    83   am
    92    83    84    2
    93    10     9    2
    94    24    22   ar
    95    24    25   ar
    96     9     8    1
    97     9    15   am
    98     8     7    1
    99    16    15    1
   100    16    19    1
   101    22    20   ar
   102    26    25    1
   103    25    23   ar
   104     7     3   am
   105    20    19    1
   106    20    21   ar
   107   122   121    1
   108    23    21   ar
   109     1     2    1
   110     3     2    1
   111     3     4    2
   112   121   120    1
   113   121   123    1
   114     2     5    1
   115   120   117    1
   116     5     6    1
   117   133   134   ar
   118   133   131   ar
   119   134   132   ar
   120   117   116    1
   121   117   118    1
   122   131   129   ar
   123   132   130   ar
   124   129   130   ar
   125   129   128    1
   126   141   139    1
   127   118   119    2
   128   128   125    1
   129   139   140    1
   130   139   136    1
   131   147   146    1
   132   135   136    1
   133   135   126   am
   134   125   126    1
   135   125   124    1
   136   136   137    1
   137   126   127    2
   138   146   143    1
   139   156   157   ar
   140   156   154   ar
   141   137   138    2
   142   143   142    1
   143   143   144    1
   144   157   155   ar
   145   154   153   ar
   146   144   145    2
   147   144   148   am
   148   155   153   ar
   149   148   149    1
   150   153   152    1
   151   149   152    1
   152   149   150    1
   153   150   151    2
