@<TRIPOS>MOLECULE
tmp/5v8fI01.pdb
 178 169 0 0 0
SMALL
GASTEIGER

@<TRIPOS>ATOM
      1  N        164.4900  205.6100  138.6160 N.3    11  SER11      -0.1202
      2  CA       163.0370  205.6180  138.5060 C.3    11  SER11       0.2020
      3  C        162.5850  205.8590  137.0720 C.2    11  SER11       0.2618
      4  O        161.8620  205.0540  136.4810 O.2    11  SER11      -0.2717
      5  CB       162.4450  206.7010  139.4130 C.3    11  SER11       0.2103
      6  OG       162.9050  207.9890  139.0360 O.3    11  SER11      -0.2182
      7  N        163.0450  206.9820  136.5340 N.am   12  ALA12      -0.1979
      8  CA       162.4930  207.5880  135.3330 C.3    12  ALA12       0.1597
      9  C        163.4320  208.6630  134.7790 C.2    12  ALA12       0.2287
     10  O        164.6300  208.6920  135.0630 O.2    12  ALA12      -0.2864
     11  CB       161.1180  208.1690  135.6070 C.3    12  ALA12       0.0319
     12  N        166.9810  210.0220  129.3760 N.3    15  GLN15      -0.1245
     13  CA       166.7470  209.3040  128.1070 C.3    15  GLN15       0.1566
     14  C        166.3560  210.2020  126.9190 C.2    15  GLN15       0.2260
     15  O        165.5820  209.7960  126.0490 O.2    15  GLN15      -0.2867
     16  CB       165.6920  208.1940  128.3030 C.3    15  GLN15       0.0367
     17  CG       164.2480  208.6430  128.5410 C.3    15  GLN15       0.0905
     18  CD       163.3130  207.4870  128.8460 C.2    15  GLN15       0.2608
     19  OE1      163.7550  206.3780  129.1440 O.2    15  GLN15      -0.2717
     20  NE2      162.0120  207.7430  128.7690 N.am   15  GLN15      -0.0878
     21  N        169.6050  205.9130  123.3190 N.3    19  PRO19      -0.2102
     22  CA       170.3080  204.9010  124.1230 C.3    19  PRO19       0.1504
     23  C        170.5650  203.5500  123.4380 C.2    19  PRO19       0.2576
     24  O        171.6920  203.0600  123.4510 O.2    19  PRO19      -0.2718
     25  CB       169.3570  204.6900  125.3190 C.3    19  PRO19       0.0282
     26  CG       168.4400  205.8730  125.3150 C.3    19  PRO19       0.0208
     27  CD       168.2800  206.2260  123.8770 C.3    19  PRO19       0.0893
     28  N        169.5180  202.9620  122.8680 N.am   20  ALA20      -0.1966
     29  CA       169.5650  201.6230  122.2770 C.3    20  ALA20       0.1728
     30  C        168.9060  201.6070  120.9050 C.2    20  ALA20       0.2616
     31  O        169.4920  201.2010  119.9020 O.2    20  ALA20      -0.2715
     32  CB       168.9030  200.6080  123.1880 C.3    20  ALA20       0.0334
     33  N        167.6570  202.0520  120.9190 N.am   21  ARG21      -0.1977
     34  CA       166.6290  201.7780  119.9210 C.3    21  ARG21       0.1597
     35  C        166.6920  202.6830  118.6910 C.2    21  ARG21       0.2287
     36  O        165.7030  202.8070  117.9670 O.2    21  ARG21      -0.2864
     37  CB       165.2410  201.8830  120.5630 C.3    21  ARG21       0.0334
     38  CG       164.9400  200.7820  121.5660 C.3    21  ARG21       0.0492
     39  CD       164.9920  199.4130  120.9080 C.3    21  ARG21       0.2205
     40  NE       164.7220  198.3370  121.8570 N.pl3  21  ARG21      -0.0865
     41  CZ       164.7190  197.0450  121.5440 C.cat  21  ARG21       0.5346
     42  NH1      164.9670  196.6600  120.3000 N.pl3  21  ARG21       0.1354
     43  NH2      164.4650  196.1350  122.4730 N.pl3  21  ARG21       0.1354
     44  N        154.9600  194.8050  120.3060 N.3    48  GLY48      -0.1225
     45  CA       155.9120  193.8350  120.8240 C.3    48  GLY48       0.1811
     46  C        155.6660  193.5080  122.2890 C.2    48  GLY48       0.2280
     47  O        154.6370  193.8890  122.8480 O.2    48  GLY48      -0.2866
     48  N        155.7480  193.5490  126.3630 N.3    50  PRO50      -0.2102
     49  CA       155.6150  194.6800  127.2890 C.3    50  PRO50       0.1504
     50  C        156.8990  195.0300  128.0330 C.2    50  PRO50       0.2576
     51  O        157.6190  194.1310  128.4620 O.2    50  PRO50      -0.2718
     52  CB       154.5510  194.1940  128.2760 C.3    50  PRO50       0.0282
     53  CG       154.6520  192.7060  128.2210 C.3    50  PRO50       0.0208
     54  CD       154.9120  192.4130  126.7790 C.3    50  PRO50       0.0893
     55  N        157.1670  196.3260  128.1860 N.am   51  GLY51      -0.1943
     56  CA       158.2970  196.7980  128.9680 C.3    51  GLY51       0.2014
     57  C        159.5220  197.1790  128.1580 C.2    51  GLY51       0.2639
     58  O        160.5880  197.4380  128.7210 O.2    51  GLY51      -0.2714
     59  N        159.3840  197.2200  126.8370 N.am   52  VAL52      -0.1963
     60  CA       160.5300  197.4910  125.9730 C.3    52  VAL52       0.1727
     61  C        160.7960  198.9760  125.8650 C.2    52  VAL52       0.2617
     62  O        161.7040  199.4100  125.1530 O.2    52  VAL52      -0.2715
     63  CB       160.3400  196.9120  124.5540 C.3    52  VAL52       0.0290
     64  CG1      160.3260  195.3980  124.5880 C.3    52  VAL52       0.0023
     65  CG2      159.0740  197.4310  123.9370 C.3    52  VAL52       0.0023
     66  N        159.9970  199.7660  126.5700 N.am   53  GLY53      -0.1940
     67  CA       160.1090  201.2080  126.4740 C.3    53  GLY53       0.2014
     68  C        159.3740  201.6330  125.2290 C.2    53  GLY53       0.2639
     69  O        159.5840  202.7300  124.7120 O.2    53  GLY53      -0.2714
     70  N        158.5060  200.7580  124.7350 N.am   54  LYS54      -0.1963
     71  CA       157.6920  201.1300  123.5900 C.3    54  LYS54       0.1728
     72  C        156.7150  202.1910  124.0100 C.2    54  LYS54       0.2617
     73  O        156.2930  203.0020  123.1560 O.2    54  LYS54      -0.2715
     74  CB       156.9680  199.9160  122.9920 C.3    54  LYS54       0.0311
     75  CG       155.6670  199.5800  123.6660 C.3    54  LYS54       0.0038
     76  CD       154.9540  198.4700  122.9320 C.3    54  LYS54       0.0206
     77  CE       155.6050  197.1300  123.1610 C.3    54  LYS54       0.1093
     78  NZ       154.7450  196.0400  122.6430 N.3    54  LYS54      -0.1314
     79  N        156.3260  202.2810  125.2920 N.am   55  THR55      -0.1937
     80  CA       155.4790  203.3900  125.6380 C.3    55  THR55       0.2028
     81  C        156.2210  204.7390  125.4940 C.2    55  THR55       0.2642
     82  O        155.6150  205.7210  125.0910 O.2    55  THR55      -0.2714
     83  CB       154.8650  203.3230  127.0400 C.3    55  THR55       0.1808
     84  OG1      153.7560  204.2050  127.1360 O.3    55  THR55      -0.2208
     85  CG2      155.8830  203.6890  128.1260 C.3    55  THR55       0.0379
     86  N        157.5150  204.7620  125.7940 N.am   56  LEU56      -0.1977
     87  CA       158.2720  206.0310  125.7600 C.3    56  LEU56       0.1596
     88  C        158.7550  206.4280  124.3680 C.2    56  LEU56       0.2287
     89  O        158.7150  207.6050  124.0100 O.2    56  LEU56      -0.2864
     90  CB       159.4660  205.9660  126.7280 C.3    56  LEU56       0.0297
     91  CG       160.6800  205.0630  126.4500 C.3    56  LEU56       0.0022
     92  CD1      161.7460  205.7870  125.6480 C.3    56  LEU56       0.0001
     93  CD2      161.2750  204.5330  127.7380 C.3    56  LEU56       0.0001
     94  N        147.8600  203.3530  123.2320 N.3   120  ASP120     -0.1225
     95  CA       148.9360  202.7480  123.9950 C.3   120  ASP120      0.1805
     96  C        148.5760  201.3030  124.2360 C.2   120  ASP120      0.2597
     97  O        149.4180  200.4160  124.1200 O.2   120  ASP120     -0.2718
     98  CB       149.1760  203.4880  125.3100 C.3   120  ASP120      0.1424
     99  CG       150.3210  202.8910  126.1160 C.2   120  ASP120      0.3668
    100  OD1      151.4850  203.0050  125.6760 O.co2 120  ASP120     -0.2456
    101  OD2      150.0620  202.3120  127.1930 O.co2 120  ASP120     -0.2456
    102  N        147.3110  201.0670  124.5620 N.am  121  GLU121     -0.1979
    103  CA       146.8020  199.7100  124.6220 C.3   121  GLU121      0.1602
    104  C        145.4690  199.5780  123.8930 C.2   121  GLU121      0.2287
    105  O        144.4530  200.1030  124.3460 O.2   121  GLU121     -0.2864
    106  CB       146.6540  199.2820  126.0810 C.3   121  GLU121      0.0415
    107  CG       146.5680  197.7830  126.2800 C.3   121  GLU121      0.1163
    108  CD       147.9280  197.1080  126.2510 C.2   121  GLU121      0.3649
    109  OE1      148.8990  197.7220  125.7600 O.co2 121  GLU121     -0.2457
    110  OE2      148.0300  195.9590  126.7300 O.co2 121  GLU121     -0.2457
    111  N        150.9490  199.2430  121.5660 N.3   153  ALA153     -0.1245
    112  CA       151.2630  197.9800  122.2180 C.3   153  ALA153      0.1562
    113  C        150.0860  197.0490  122.1110 C.2   153  ALA153      0.2260
    114  O        149.1270  197.1260  122.8780 O.2   153  ALA153     -0.2867
    115  CB       151.6250  198.2000  123.6730 C.3   153  ALA153      0.0290
    116  N        165.5440  193.1550  124.5170 N.3   181  TYR181     -0.1241
    117  CA       166.8590  193.7650  124.6770 C.3   181  TYR181      0.1605
    118  C        167.9490  192.7220  124.8430 C.2   181  TYR181      0.2264
    119  O        167.7510  191.6910  125.4860 O.2   181  TYR181     -0.2867
    120  CB       166.8590  194.7290  125.8590 C.3   181  TYR181      0.0534
    121  CG       166.1130  196.0000  125.5570 C.ar  181  TYR181     -0.0201
    122  CD1      166.7470  197.0640  124.9350 C.ar  181  TYR181     -0.0009
    123  CD2      164.7700  196.1270  125.8670 C.ar  181  TYR181     -0.0009
    124  CE1      166.0670  198.2270  124.6460 C.ar  181  TYR181      0.0417
    125  CE2      164.0800  197.2840  125.5810 C.ar  181  TYR181      0.0417
    126  CZ       164.7330  198.3300  124.9700 C.ar  181  TYR181      0.1957
    127  OH       164.0460  199.4870  124.6810 O.3   181  TYR181     -0.2866
    128  N        172.4020  200.4360  128.6690 N.3   189  ILE189     -0.1245
    129  CA       171.3600  201.3540  129.1300 C.3   189  ILE189      0.1561
    130  C        171.4150  201.5570  130.6440 C.2   189  ILE189      0.2260
    131  O        171.3240  202.6900  131.1330 O.2   189  ILE189     -0.2867
    132  CB       169.9590  200.8550  128.7340 C.3   189  ILE189      0.0252
    133  CG1      169.8110  200.8540  127.2140 C.3   189  ILE189      0.0019
    134  CG2      168.8800  201.7260  129.3540 C.3   189  ILE189      0.0019
    135  CD1      168.5130  200.2650  126.7400 C.3   189  ILE189      0.0001
    136  N        172.2080  205.0880  132.5780 N.3   193  ARG193     -0.1245
    137  CA       171.4730  205.7440  133.6530 C.3   193  ARG193      0.1563
    138  C        172.3350  205.8860  134.9040 C.2   193  ARG193      0.2260
    139  O        172.1860  206.8420  135.6650 O.2   193  ARG193     -0.2867
    140  CB       170.1940  204.9720  133.9740 C.3   193  ARG193      0.0307
    141  CG       169.2460  204.8500  132.7930 C.3   193  ARG193      0.0489
    142  CD       167.9850  204.0910  133.1640 C.3   193  ARG193      0.2205
    143  NE       167.2150  204.7720  134.2000 N.pl3 193  ARG193     -0.0865
    144  CZ       166.3140  205.7180  133.9600 C.cat 193  ARG193      0.5346
    145  NH1      166.0700  206.1030  132.7150 N.pl3 193  ARG193      0.1354
    146  NH2      165.6590  206.2830  134.9640 N.pl3 193  ARG193      0.1354
    147  N        163.8800  192.4770  129.7670 N.3   211  ASP211     -0.1225
    148  CA       163.2950  193.6580  129.1320 C.3   211  ASP211      0.1805
    149  C        163.3640  194.9270  129.9950 C.2   211  ASP211      0.2598
    150  O        162.3850  195.6710  130.1130 O.2   211  ASP211     -0.2718
    151  CB       161.8390  193.3790  128.7350 C.3   211  ASP211      0.1424
    152  CG       161.2470  194.4870  127.8830 C.2   211  ASP211      0.3668
    153  OD1      162.0430  195.2730  127.3340 O.co2 211  ASP211     -0.2456
    154  OD2      160.0030  194.5850  127.7730 O.co2 211  ASP211     -0.2456
    155  N        164.4930  195.1240  130.6680 N.am  212  ALA212     -0.1966
    156  CA       164.8690  196.4220  131.2370 C.3   212  ALA212      0.1728
    157  C        163.9190  196.9110  132.3320 C.2   212  ALA212      0.2616
    158  O        164.2710  197.7660  133.1440 O.2   212  ALA212     -0.2715
    159  CB       164.9630  197.4710  130.1310 C.3   212  ALA212      0.0334
    160  N        162.7340  196.3150  132.3710 N.am  213  ARG213     -0.1977
    161  CA       161.6670  196.7550  133.2440 C.3   213  ARG213      0.1597
    162  C        161.9530  196.2080  134.6180 C.2   213  ARG213      0.2287
    163  O        161.7890  196.8860  135.6310 O.2   213  ARG213     -0.2864
    164  CB       160.3170  196.2730  132.7200 C.3   213  ARG213      0.0334
    165  CG       159.1300  196.6470  133.5820 C.3   213  ARG213      0.0492
    166  CD       158.9460  198.1490  133.6740 C.3   213  ARG213      0.2205
    167  NE       157.7750  198.4970  134.4690 N.pl3 213  ARG213     -0.0865
    168  CZ       157.6480  199.6350  135.1410 C.cat 213  ARG213      0.5346
    169  NH1      158.6270  200.5280  135.1190 N.pl3 213  ARG213      0.1354
    170  NH2      156.5490  199.8760  135.8430 N.pl3 213  ARG213      0.1354
    171  N        165.9720  197.5360  135.8000 N.3   216  LEU216     -0.1245
    172  CA       166.0780  198.6750  136.7010 C.3   216  LEU216      0.1561
    173  C        165.6780  198.2250  138.1000 C.2   216  LEU216      0.2260
    174  O        166.2310  198.6800  139.1060 O.2   216  LEU216     -0.2867
    175  CB       165.1870  199.8280  136.2390 C.3   216  LEU216      0.0270
    176  CG       165.5480  200.5300  134.9330 C.3   216  LEU216      0.0019
    177  CD1      164.4400  201.4860  134.5390 C.3   216  LEU216      0.0001
    178  CD2      166.8520  201.2780  135.0960 C.3   216  LEU216      0.0001
@<TRIPOS>BOND
     1    36    35    2
     2    35    34    1
     3    31    30    2
     4    34    37    1
     5    34    33    1
     6    42    41    1
     7    44    45    1
     8    37    38    1
     9    45    46    1
    10    30    33   am
    11    30    29    1
    12    39    38    1
    13    39    40    1
    14    41    40    2
    15    41    43    1
    16   111   112    1
    17   113   112    1
    18   113   114    2
    19   112   115    1
    20    29    28    1
    21    29    32    1
    22    46    47    2
    23    78    77    1
    24    28    23   am
    25    76    77    1
    26    76    75    1
    27    74    71    1
    28    74    75    1
    29    73    72    2
    30    94    95    1
    31    21    27    1
    32    21    22    1
    33    23    24    2
    34    23    22    1
    35    71    72    1
    36    71    70    1
    37    27    26    1
    38   104   105    2
    39   104   103    1
    40    65    63    1
    41    95    96    1
    42    95    98    1
    43    89    88    2
    44    72    79   am
    45    97    96    2
    46    22    25    1
    47    96   102   am
    48    88    87    1
    49   116   117    1
    50    63    64    1
    51    63    60    1
    52   102   103    1
    53   103   106    1
    54   124   122   ar
    55   124   126   ar
    56   117   118    1
    57   117   120    1
    58   127   126    1
    59    69    68    2
    60    70    68   am
    61   118   119    2
    62   122   121   ar
    63   126   125   ar
    64    82    81    2
    65    62    61    2
    66    68    67    1
    67    79    80    1
    68    98    99    1
    69    26    25    1
    70    81    80    1
    71    81    86   am
    72   121   120    1
    73   121   123   ar
    74   125   123   ar
    75    80    83    1
    76    92    91    1
    77   100    99   ar
    78   109   108   ar
    79    87    86    1
    80    87    90    1
    81    61    60    1
    82    61    66   am
    83    60    59    1
    84    15    14    2
    85   106   107    1
    86    99   101   ar
    87   108   107    1
    88   108   110   ar
    89    48    54    1
    90    48    49    1
    91    91    90    1
    92    91    93    1
    93    67    66    1
    94   135   133    1
    95    54    53    1
    96    59    57   am
    97    14    13    1
    98    83    84    1
    99    83    85    1
   100   133   132    1
   101    49    50    1
   102    49    52    1
   103   153   152   ar
   104   154   152   ar
   105   152   151    1
   106    50    55   am
   107    50    51    2
   108    13    16    1
   109    13    12    1
   110    57    58    2
   111    57    56    1
   112    55    56    1
   113    53    52    1
   114    16    17    1
   115    17    18    1
   116   128   129    1
   117   132   129    1
   118   132   134    1
   119   151   148    1
   120    20    18   am
   121    18    19    2
   122   129   130    1
   123   148   147    1
   124   148   149    1
   125   149   150    2
   126   149   155   am
   127   159   156    1
   128   130   131    2
   129   155   156    1
   130   156   157    1
   131   157   160   am
   132   157   158    2
   133   160   161    1
   134   136   137    1
   135   145   144    1
   136   164   161    1
   137   164   165    1
   138   141   142    1
   139   141   140    1
   140   142   143    1
   141   161   162    1
   142   165   166    1
   143   137   140    1
   144   137   138    1
   145   166   167    1
   146   144   143    2
   147   144   146    1
   148   167   168    2
   149   177   176    1
   150   162   163    2
   151     9    10    2
   152     9     8    1
   153   138   139    2
   154   176   178    1
   155   176   175    1
   156   169   168    1
   157   168   170    1
   158     8    11    1
   159     8     7    1
   160   171   172    1
   161   175   172    1
   162     4     3    2
   163     7     3   am
   164   172   173    1
   165     3     2    1
   166   173   174    2
   167     2     1    1
   168     2     5    1
   169     6     5    1
