@<TRIPOS>MOLECULE
tmp/5v8fF00.pdb
 146 142 0 0 0
SMALL
GASTEIGER

@<TRIPOS>ATOM
      1  N        168.4530  123.8540  102.9680 N.3   356  GLU356     -0.1231
      2  CA       167.4010  124.1760  102.0110 C.3   356  GLU356      0.1699
      3  C        166.8920  125.6070  102.1470 C.2   356  GLU356      0.2592
      4  O        166.3300  126.1580  101.2020 O.2   356  GLU356     -0.2718
      5  CB       166.2290  123.2020  102.1590 C.3   356  GLU356      0.0402
      6  CG       166.5700  121.7410  101.8560 C.3   356  GLU356      0.1161
      7  CD       167.2450  121.0280  103.0190 C.2   356  GLU356      0.3649
      8  OE1      167.3620  121.6410  104.1020 O.co2 356  GLU356     -0.2457
      9  OE2      167.6580  119.8550  102.8450 O.co2 356  GLU356     -0.2457
     10  N        167.0820  126.2150  103.3150 N.am  357  ILE357     -0.1966
     11  CA       166.5780  127.5650  103.4880 C.3   357  ILE357      0.1727
     12  C        167.6490  128.6380  103.5090 C.2   357  ILE357      0.2616
     13  O        168.7450  128.4700  104.0510 O.2   357  ILE357     -0.2715
     14  CB       165.7330  127.7190  104.7710 C.3   357  ILE357      0.0290
     15  CG1      166.5710  127.4870  106.0230 C.3   357  ILE357      0.0022
     16  CG2      164.5320  126.7960  104.7290 C.3   357  ILE357      0.0023
     17  CD1      165.8580  127.8890  107.2770 C.3   357  ILE357      0.0001
     18  N        167.2990  129.7440  102.8680 N.am  358  TYR358     -0.1960
     19  CA       168.0090  130.9950  102.9540 C.3   358  TYR358      0.1771
     20  C        167.3900  131.8900  104.0270 C.2   358  TYR358      0.2620
     21  O        166.1570  131.8570  104.2840 O.2   358  TYR358     -0.2715
     22  CB       168.0050  131.7140  101.5990 C.3   358  TYR358      0.0574
     23  CG       168.6990  133.0590  101.6180 C.ar  358  TYR358     -0.0198
     24  CD1      170.0560  133.1680  101.3380 C.ar  358  TYR358     -0.0009
     25  CD2      167.9960  134.2210  101.9180 C.ar  358  TYR358     -0.0009
     26  CE1      170.6900  134.4020  101.3560 C.ar  358  TYR358      0.0417
     27  CE2      168.6180  135.4510  101.9430 C.ar  358  TYR358      0.0417
     28  CZ       169.9640  135.5410  101.6600 C.ar  358  TYR358      0.1957
     29  OH       170.5790  136.7740  101.6810 O.3   358  TYR358     -0.2866
     30  N        168.2720  132.6510  104.6760 N.am  359  GLY359     -0.1940
     31  CA       167.8960  133.6660  105.6340 C.3   359  GLY359      0.2014
     32  C        168.0240  133.2060  107.0700 C.2   359  GLY359      0.2638
     33  O        168.2060  132.0190  107.3310 O.2   359  GLY359     -0.2714
     34  N        167.9530  134.1620  107.9930 N.am  360  ASN360     -0.1972
     35  CA       167.8050  133.8800  109.4160 C.3   360  ASN360      0.1688
     36  C        168.9010  133.0000  110.0070 C.2   360  ASN360      0.2292
     37  O        168.6240  132.1100  110.8170 O.2   360  ASN360     -0.2864
     38  CB       166.4430  133.2340  109.6690 C.3   360  ASN360      0.1181
     39  CG       165.2910  134.1040  109.2050 C.2   360  ASN360      0.2629
     40  OD1      164.7990  134.9480  109.9500 O.2   360  ASN360     -0.2716
     41  ND2      164.8580  133.9030  107.9630 N.am  360  ASN360     -0.0877
     42  N        156.0220  133.5060  114.3640 N.3   395  GLY395     -0.1210
     43  CA       155.6880  134.1460  113.1080 C.3   395  GLY395      0.1956
     44  C        154.6840  133.3830  112.2700 C.2   395  GLY395      0.2612
     45  O        154.4560  132.1950  112.4960 O.2   395  GLY395     -0.2717
     46  N        154.0670  134.0740  111.3150 N.am  396  ASP396     -0.1960
     47  CA       153.1750  133.4530  110.3380 C.3   396  ASP396      0.1825
     48  C        153.0820  134.2630  109.0360 C.2   396  ASP396      0.2464
     49  O        153.4030  135.4490  109.0360 O.2   396  ASP396     -0.2730
     50  CB       151.7940  133.2670  110.9460 C.3   396  ASP396      0.1450
     51  CG       151.1050  134.5790  111.2320 C.2   396  ASP396      0.3671
     52  OD1      151.7970  135.5990  111.4720 O.co2 396  ASP396     -0.2456
     53  OD2      149.8570  134.5710  111.2090 O.co2 396  ASP396     -0.2456
     54  N        152.6530  133.6350  107.9250 N.am  397  PRO397     -0.2715
     55  CA       152.6080  132.2580  107.4230 C.3   397  PRO397      0.1536
     56  C        153.9620  131.7940  106.8870 C.2   397  PRO397      0.2599
     57  O        154.1680  130.6100  106.6380 O.2   397  PRO397     -0.2715
     58  CB       151.5580  132.3080  106.3010 C.3   397  PRO397      0.0310
     59  CG       151.0460  133.7340  106.2760 C.3   397  PRO397      0.0237
     60  CD       152.1140  134.5550  106.9090 C.3   397  PRO397      0.0939
     61  N        154.8640  132.7470  106.6850 N.am  398  GLY398     -0.1941
     62  CA       156.0930  132.5290  105.9480 C.3   398  GLY398      0.2014
     63  C        157.1050  131.8920  106.8710 C.2   398  GLY398      0.2639
     64  O        156.7480  130.9730  107.6040 O.2   398  GLY398     -0.2714
     65  N        158.3760  132.2640  106.7330 N.am  399  VAL399     -0.1963
     66  CA       159.4080  131.9940  107.7460 C.3   399  VAL399      0.1727
     67  C        159.9430  130.5610  107.7270 C.2   399  VAL399      0.2616
     68  O        161.0710  130.2980  108.1600 O.2   399  VAL399     -0.2715
     69  CB       158.8440  132.2860  109.1860 C.3   399  VAL399      0.0290
     70  CG1      159.7550  131.7520  110.2840 C.3   399  VAL399      0.0023
     71  CG2      158.5520  133.7590  109.3830 C.3   399  VAL399      0.0023
     72  N        159.1640  129.6560  107.1450 N.am  400  ALA400     -0.1963
     73  CA       159.5320  128.2440  107.0390 C.3   400  ALA400      0.1728
     74  C        159.8780  127.5380  108.3570 C.2   400  ALA400      0.2616
     75  O        160.6060  126.5540  108.3290 O.2   400  ALA400     -0.2715
     76  CB       160.7030  128.0890  106.0770 C.3   400  ALA400      0.0334
     77  N        159.3480  128.0030  109.4870 N.am  401  LYS401     -0.1963
     78  CA       159.6850  127.4170  110.7910 C.3   401  LYS401      0.1728
     79  C        159.4350  125.9060  110.8570 C.2   401  LYS401      0.2617
     80  O        160.2860  125.1330  111.3320 O.2   401  LYS401     -0.2715
     81  CB       158.9040  128.1210  111.9060 C.3   401  LYS401      0.0311
     82  CG       157.4200  128.3190  111.6200 C.3   401  LYS401      0.0038
     83  CD       156.7490  129.1380  112.7140 C.3   401  LYS401      0.0206
     84  CE       157.4050  130.4940  112.8620 C.3   401  LYS401      0.1093
     85  NZ       156.9620  131.1660  114.1040 N.3   401  LYS401     -0.1314
     86  N        158.2710  125.4880  110.3720 N.am  402  SER402     -0.1936
     87  CA       157.9330  124.0720  110.3170 C.3   402  SER402      0.2055
     88  C        158.9720  123.2980  109.5140 C.2   402  SER402      0.2642
     89  O        159.2750  122.1450  109.8210 O.2   402  SER402     -0.2714
     90  CB       156.5440  123.8750  109.7110 C.3   402  SER402      0.2130
     91  OG       156.2270  122.5010  109.5880 O.3   402  SER402     -0.2179
     92  N        159.5180  123.9400  108.4860 N.am  403  GLN403     -0.1976
     93  CA       160.5710  123.3320  107.6830 C.3   403  GLN403      0.1601
     94  C        161.8580  123.2130  108.4840 C.2   403  GLN403      0.2287
     95  O        162.5860  122.2290  108.3500 O.2   403  GLN403     -0.2864
     96  CB       160.8190  124.1360  106.4070 C.3   403  GLN403      0.0394
     97  CG       159.6740  124.0810  105.4230 C.3   403  GLN403      0.0908
     98  CD       159.3250  122.6610  105.0240 C.2   403  GLN403      0.2608
     99  OE1      158.4290  122.0430  105.6000 O.2   403  GLN403     -0.2717
    100  NE2      160.0390  122.1310  104.0370 N.am  403  GLN403     -0.0878
    101  N        154.0700  122.7030  116.8420 N.3   459  ASP459     -0.1239
    102  CA       153.5010  123.6810  115.9220 C.3   459  ASP459      0.1674
    103  C        152.1280  124.1520  116.3590 C.2   459  ASP459      0.2266
    104  O        151.4490  123.4770  117.1350 O.2   459  ASP459     -0.2867
    105  CB       153.4170  123.1120  114.5070 C.3   459  ASP459      0.1410
    106  CG       154.7540  123.1370  113.7890 C.2   459  ASP459      0.3668
    107  OD1      155.7060  123.7370  114.3310 O.co2 459  ASP459     -0.2456
    108  OD2      154.8510  122.5670  112.6760 O.co2 459  ASP459     -0.2456
    109  N        156.7660  126.5590  117.7390 N.3   501  ALA501     -0.1245
    110  CA       156.3960  127.4920  116.6840 C.3   501  ALA501      0.1562
    111  C        155.0350  128.0980  117.0050 C.2   501  ALA501      0.2260
    112  O        154.1550  127.4080  117.5150 O.2   501  ALA501     -0.2867
    113  CB       156.3680  126.7930  115.3430 C.3   501  ALA501      0.0290
    114  N        151.8970  131.4810  116.1850 N.3   503  ASN503     -0.1240
    115  CA       151.3290  132.4870  115.2980 C.3   503  ASN503      0.1653
    116  C        150.7720  133.7160  116.0070 C.2   503  ASN503      0.2266
    117  O        149.7860  133.6230  116.7340 O.2   503  ASN503     -0.2867
    118  CB       150.2190  131.8620  114.4520 C.3   503  ASN503      0.1155
    119  CG       150.7190  130.7300  113.5880 C.2   503  ASN503      0.2627
    120  OD1      151.9130  130.6310  113.3090 O.2   503  ASN503     -0.2716
    121  ND2      149.8080  129.8680  113.1530 N.am  503  ASN503     -0.0877
    122  N        166.7310  136.7870   98.6060 N.3   547  LEU547     -0.1245
    123  CA       166.1300  135.5920   99.1900 C.3   547  LEU547      0.1561
    124  C        165.4770  134.7930   98.0760 C.2   547  LEU547      0.2260
    125  O        165.6180  133.5800   98.0190 O.2   547  LEU547     -0.2867
    126  CB       165.1150  135.9390  100.2830 C.3   547  LEU547      0.0270
    127  CG       164.5270  134.7690  101.0800 C.3   547  LEU547      0.0019
    128  CD1      164.3510  135.1570  102.5410 C.3   547  LEU547      0.0001
    129  CD2      163.2000  134.3080  100.4920 C.3   547  LEU547      0.0001
    130  N        168.1520  132.9750   96.0610 N.3   550  HIS550     -0.1226
    131  CA       168.5970  131.6900   96.5760 C.3   550  HIS550      0.1752
    132  C        167.4970  130.6310   96.5660 C.2   550  HIS550      0.2595
    133  O        167.7620  129.4580   96.3040 O.2   550  HIS550     -0.2718
    134  CB       169.1530  131.8220   97.9860 C.3   550  HIS550      0.0759
    135  CG       169.8940  130.6050   98.4340 C.ar  550  HIS550      0.0818
    136  ND1      169.2580  129.4960   98.9490 N.ar  550  HIS550     -0.2268
    137  CD2      171.2130  130.3030   98.4010 C.ar  550  HIS550      0.1154
    138  CE1      170.1570  128.5720   99.2350 C.ar  550  HIS550      0.1986
    139  NE2      171.3510  129.0360   98.9110 N.ar  550  HIS550     -0.2212
    140  N        166.2710  131.0360   96.8750 N.am  551  VAL551     -0.1980
    141  CA       165.1470  130.1140   96.8270 C.3   551  VAL551      0.1595
    142  C        165.0040  129.5900   95.4060 C.2   551  VAL551      0.2287
    143  O        164.6910  128.4210   95.2020 O.2   551  VAL551     -0.2864
    144  CB       163.8300  130.7770   97.2830 C.3   551  VAL551      0.0276
    145  CG1      162.6520  129.8470   97.0450 C.3   551  VAL551      0.0022
    146  CG2      163.9080  131.1500   98.7520 C.3   551  VAL551      0.0022
@<TRIPOS>BOND
     1   143   142    2
     2   142   141    1
     3   130   131    1
     4   133   132    2
     5   132   131    1
     6   132   140   am
     7   131   134    1
     8   141   140    1
     9   141   144    1
    10   145   144    1
    11   144   146    1
    12   134   135    1
    13   125   124    2
    14   124   123    1
    15   137   135   ar
    16   137   139   ar
    17   135   136   ar
    18   122   123    1
    19   139   138   ar
    20   136   138   ar
    21   123   126    1
    22   126   127    1
    23   129   127    1
    24   127   128    1
    25     4     3    2
    26    24    26   ar
    27    24    23   ar
    28    26    28   ar
    29    22    23    1
    30    22    19    1
    31    23    25   ar
    32    28    29    1
    33    28    27   ar
    34     6     5    1
    35     6     7    1
    36    25    27   ar
    37     2     3    1
    38     2     5    1
    39     2     1    1
    40     3    10   am
    41     9     7   ar
    42    18    19    1
    43    18    12   am
    44    19    20    1
    45     7     8   ar
    46    10    11    1
    47    11    12    1
    48    11    14    1
    49    12    13    2
    50    20    21    2
    51    20    30   am
    52   100    98   am
    53    30    31    1
    54    16    14    1
    55    14    15    1
    56    98    97    1
    57    98    99    2
    58    97    96    1
    59    31    32    1
    60    62    61    1
    61    62    63    1
    62    15    17    1
    63    76    73    1
    64    59    58    1
    65    59    60    1
    66    58    55    1
    67    96    93    1
    68    57    56    2
    69    61    56   am
    70    65    63   am
    71    65    66    1
    72    63    64    2
    73    56    55    1
    74    60    54    1
    75    73    72    1
    76    73    74    1
    77    32    33    2
    78    32    34   am
    79    72    67   am
    80    55    54    1
    81    93    94    1
    82    93    92    1
    83    67    66    1
    84    67    68    2
    85    66    69    1
    86    54    48   am
    87    41    39   am
    88    34    35    1
    89    75    74    2
    90    95    94    2
    91    74    77   am
    92    92    88   am
    93    49    48    2
    94    48    47    1
    95    69    71    1
    96    69    70    1
    97    39    38    1
    98    39    40    2
    99    35    38    1
   100    35    36    1
   101    77    78    1
   102    88    89    2
   103    88    87    1
   104    91    90    1
   105    90    87    1
   106    36    37    2
   107    87    86    1
   108    47    50    1
   109    47    46    1
   110    86    79   am
   111    78    79    1
   112    78    81    1
   113    79    80    2
   114    50    51    1
   115    53    51   ar
   116    51    52   ar
   117    46    44   am
   118    82    81    1
   119    82    83    1
   120    44    45    2
   121    44    43    1
   122   108   106   ar
   123    83    84    1
   124    84    85    1
   125    43    42    1
   126   121   119   am
   127   120   119    2
   128   119   118    1
   129   106   107   ar
   130   106   105    1
   131   118   115    1
   132   105   102    1
   133   115   116    1
   134   115   114    1
   135   113   110    1
   136   102   103    1
   137   102   101    1
   138   116   117    2
   139   103   104    2
   140   110   111    1
   141   110   109    1
   142   111   112    2
