@<TRIPOS>MOLECULE
tmp/5v8fC01.pdb
 146 142 0 0 0
SMALL
GASTEIGER

@<TRIPOS>ATOM
      1  N        169.5650  126.0380  149.1280 N.3   352  SER352     -0.1202
      2  CA       169.5960  126.5840  147.7870 C.3   352  SER352      0.2020
      3  C        168.8530  127.9120  147.7220 C.2   352  SER352      0.2619
      4  O        169.3790  128.9040  147.2240 O.2   352  SER352     -0.2717
      5  CB       168.9880  125.5910  146.8020 C.3   352  SER352      0.2103
      6  OG       169.1060  126.0210  145.4570 O.3   352  SER352     -0.2182
      7  N        167.6350  127.9340  148.2440 N.am  353  ILE353     -0.1965
      8  CA       166.7530  129.0810  148.0660 C.3   353  ILE353      0.1727
      9  C        167.2290  130.3040  148.8460 C.2   353  ILE353      0.2616
     10  O        167.5950  130.2090  150.0160 O.2   353  ILE353     -0.2715
     11  CB       165.3120  128.7310  148.4730 C.3   353  ILE353      0.0290
     12  CG1      164.7460  127.6670  147.5350 C.3   353  ILE353      0.0022
     13  CG2      164.4170  129.9450  148.4190 C.3   353  ILE353      0.0023
     14  CD1      164.7760  126.2570  148.0930 C.3   353  ILE353      0.0001
     15  N        167.2200  131.4560  148.1810 N.am  354  TYR354     -0.1974
     16  CA       167.7520  132.6870  148.7570 C.3   354  TYR354      0.1639
     17  C        166.6760  133.7010  149.1360 C.2   354  TYR354      0.2290
     18  O        165.6740  133.8380  148.4420 O.2   354  TYR354     -0.2864
     19  CB       168.7310  133.3420  147.7880 C.3   354  TYR354      0.0560
     20  CG       169.2230  134.6690  148.3030 C.ar  354  TYR354     -0.0198
     21  CD1      170.1780  134.7260  149.3130 C.ar  354  TYR354     -0.0009
     22  CD2      168.7130  135.8660  147.8070 C.ar  354  TYR354     -0.0009
     23  CE1      170.6240  135.9320  149.8080 C.ar  354  TYR354      0.0417
     24  CE2      169.1520  137.0810  148.2940 C.ar  354  TYR354      0.0417
     25  CZ       170.1080  137.1080  149.2950 C.ar  354  TYR354      0.1957
     26  OH       170.5460  138.3120  149.7920 O.3   354  TYR354     -0.2866
     27  N        163.5980  135.6260  151.0590 N.3   356  LEU356     -0.1245
     28  CA       162.2060  135.2240  151.2960 C.3   356  LEU356      0.1561
     29  C        162.0470  134.1600  152.3910 C.2   356  LEU356      0.2260
     30  O        161.1770  133.2940  152.3020 O.2   356  LEU356     -0.2867
     31  CB       161.5370  134.7610  149.9950 C.3   356  LEU356      0.0270
     32  CG       162.0230  133.6370  149.0880 C.3   356  LEU356      0.0019
     33  CD1      161.5070  132.2890  149.5300 C.3   356  LEU356      0.0001
     34  CD2      161.5480  133.9320  147.6790 C.3   356  LEU356      0.0001
     35  N        155.2950  134.9860  138.7850 N.3   393  PRO393     -0.2102
     36  CA       155.8920  133.7810  138.2120 C.3   393  PRO393      0.1504
     37  C        157.3950  133.7490  138.4120 C.2   393  PRO393      0.2576
     38  O        158.0150  134.8100  138.4470 O.2   393  PRO393     -0.2718
     39  CB       155.5350  133.8870  136.7300 C.3   393  PRO393      0.0282
     40  CG       155.3070  135.3410  136.5020 C.3   393  PRO393      0.0208
     41  CD       154.6670  135.8210  137.7600 C.3   393  PRO393      0.0893
     42  N        157.9520  132.5500  138.5660 N.am  394  SER394     -0.1938
     43  CA       159.3850  132.3810  138.7290 C.3   394  SER394      0.2055
     44  C        159.9410  133.1450  139.9240 C.2   394  SER394      0.2644
     45  O        160.9740  133.7990  139.8130 O.2   394  SER394     -0.2714
     46  CB       160.1130  132.8420  137.4710 C.3   394  SER394      0.2130
     47  OG       160.0140  134.2500  137.3530 O.3   394  SER394     -0.2179
     48  N        159.2320  133.1000  141.0410 N.am  395  THR395     -0.1936
     49  CA       159.7470  133.6120  142.3060 C.3   395  THR395      0.2028
     50  C        160.3320  132.4980  143.1760 C.2   395  THR395      0.2643
     51  O        160.5640  132.6850  144.3710 O.2   395  THR395     -0.2714
     52  CB       158.6880  134.3720  143.0750 C.3   395  THR395      0.1808
     53  OG1      158.2620  135.4880  142.2900 O.3   395  THR395     -0.2208
     54  CG2      159.2910  134.8770  144.3660 C.3   395  THR395      0.0379
     55  N        160.5120  131.3250  142.5750 N.am  396  SER396     -0.1935
     56  CA       161.0850  130.1330  143.2230 C.3   396  SER396      0.2055
     57  C        160.1650  129.5200  144.2640 C.2   396  SER396      0.2643
     58  O        160.6180  129.0630  145.3160 O.2   396  SER396     -0.2714
     59  CB       162.4640  130.4340  143.8430 C.3   396  SER396      0.2130
     60  OG       162.4780  131.5570  144.7100 O.3   396  SER396     -0.2179
     61  N        158.8720  129.4940  143.9570 N.am  397  LYS397     -0.1963
     62  CA       157.9600  128.7030  144.7540 C.3   397  LYS397      0.1728
     63  C        158.0760  127.1960  144.4480 C.2   397  LYS397      0.2617
     64  O        158.3670  126.4290  145.3520 O.2   397  LYS397     -0.2715
     65  CB       156.5120  129.1990  144.5800 C.3   397  LYS397      0.0311
     66  CG       155.9720  129.1260  143.1840 C.3   397  LYS397      0.0038
     67  CD       154.6650  129.8680  143.0570 C.3   397  LYS397      0.0206
     68  CE       154.8850  131.3460  143.2210 C.3   397  LYS397      0.1093
     69  NZ       153.8460  132.1550  142.5330 N.3   397  LYS397     -0.1314
     70  N        157.9240  126.7920  143.1840 N.am  398  SER398     -0.1936
     71  CA       157.7710  125.3860  142.8230 C.3   398  SER398      0.2055
     72  C        158.9510  124.5650  143.3550 C.2   398  SER398      0.2642
     73  O        158.7790  123.4030  143.7750 O.2   398  SER398     -0.2714
     74  CB       157.6240  125.2060  141.2960 C.3   398  SER398      0.2130
     75  OG       157.5160  123.8510  140.8760 O.3   398  SER398     -0.2179
     76  N        160.1370  125.1700  143.3510 N.am  399  GLN399     -0.1976
     77  CA       161.3440  124.4760  143.7880 C.3   399  GLN399      0.1601
     78  C        161.3500  124.1950  145.2950 C.2   399  GLN399      0.2287
     79  O        161.9640  123.2240  145.7630 O.2   399  GLN399     -0.2864
     80  CB       162.5740  125.2840  143.4070 C.3   399  GLN399      0.0394
     81  CG       163.8860  124.5430  143.6640 C.3   399  GLN399      0.0908
     82  CD       165.0900  125.3710  143.2750 C.2   399  GLN399      0.2608
     83  OE1      164.9570  126.5380  142.9140 O.2   399  GLN399     -0.2717
     84  NE2      166.2720  124.7750  143.3460 N.am  399  GLN399     -0.0878
     85  N        151.1590  121.1480  142.9510 N.3   455  ASP455     -0.1225
     86  CA       151.4980  122.2280  142.0450 C.3   455  ASP455      0.1805
     87  C        150.2650  122.8050  141.4070 C.2   455  ASP455      0.2597
     88  O        149.2650  122.1100  141.2340 O.2   455  ASP455     -0.2718
     89  CB       152.4670  121.7550  140.9670 C.3   455  ASP455      0.1424
     90  CG       153.9190  122.0650  141.3120 C.2   455  ASP455      0.3668
     91  OD1      154.1390  122.5070  142.4500 O.co2 455  ASP455     -0.2456
     92  OD2      154.8440  121.8650  140.4590 O.co2 455  ASP455     -0.2456
     93  N        150.3480  124.0850  141.0560 N.am  456  GLU456     -0.1979
     94  CA       149.3730  124.7070  140.1650 C.3   456  GLU456      0.1602
     95  C        147.9540  124.7600  140.6630 C.2   456  GLU456      0.2287
     96  O        147.0310  124.7450  139.8590 O.2   456  GLU456     -0.2864
     97  CB       149.3710  123.9680  138.8480 C.3   456  GLU456      0.0415
     98  CG       150.7490  123.7780  138.3280 C.3   456  GLU456      0.1163
     99  CD       150.7850  123.9070  136.8430 C.2   456  GLU456      0.3649
    100  OE1      150.2450  123.0070  136.1590 O.co2 456  GLU456     -0.2457
    101  OE2      151.3770  124.9170  136.3720 O.co2 456  GLU456     -0.2457
    102  N        151.1370  125.2120  145.8400 N.3   497  SER497     -0.1202
    103  CA       151.6600  126.3140  145.0560 C.3   497  SER497      0.2020
    104  C        150.5430  127.0320  144.3520 C.2   497  SER497      0.2619
    105  O        149.4580  126.4830  144.1740 O.2   497  SER497     -0.2717
    106  CB       152.6470  125.8200  144.0210 C.3   497  SER497      0.2103
    107  OG       151.9770  125.0330  143.0580 O.3   497  SER497     -0.2182
    108  N        150.8110  128.2580  143.9380 N.am  498  ALA498     -0.1965
    109  CA       149.7900  129.0180  143.2700 C.3   498  ALA498      0.1728
    110  C        150.3450  130.0980  142.3490 C.2   498  ALA498      0.2616
    111  O        151.4560  130.5960  142.5270 O.2   498  ALA498     -0.2715
    112  CB       148.8620  129.6290  144.2830 C.3   498  ALA498      0.0334
    113  N        149.5240  130.4410  141.3680 N.am  499  ASN499     -0.1972
    114  CA       149.8400  131.3480  140.2840 C.3   499  ASN499      0.1688
    115  C        148.6510  132.2720  140.0400 C.2   499  ASN499      0.2292
    116  O        147.7340  131.9170  139.3000 O.2   499  ASN499     -0.2864
    117  CB       150.1990  130.5590  139.0160 C.3   499  ASN499      0.1181
    118  CG       150.6860  131.4490  137.8790 C.2   499  ASN499      0.2629
    119  OD1      150.3900  132.6400  137.8420 O.2   499  ASN499     -0.2716
    120  ND2      151.4380  130.8680  136.9470 N.am  499  ASN499     -0.0877
    121  N        170.9140  138.4150  144.6370 N.3   543  LEU543     -0.1245
    122  CA       170.2460  137.1930  144.1960 C.3   543  LEU543      0.1561
    123  C        171.0450  136.4930  143.0980 C.2   543  LEU543      0.2260
    124  O        171.1680  135.2650  143.0750 O.2   543  LEU543     -0.2867
    125  CB       168.8340  137.5120  143.7000 C.3   543  LEU543      0.0270
    126  CG       167.9190  136.3230  143.4160 C.3   543  LEU543      0.0019
    127  CD1      166.5660  136.5470  144.0710 C.3   543  LEU543      0.0001
    128  CD2      167.7660  136.0970  141.9190 C.3   543  LEU543      0.0001
    129  N        174.0380  134.8900  144.2480 N.3   546  HIS546     -0.1226
    130  CA       173.6960  133.5810  144.7800 C.3   546  HIS546      0.1752
    131  C        173.4650  132.5480  143.6910 C.2   546  HIS546      0.2595
    132  O        173.7830  131.3740  143.8750 O.2   546  HIS546     -0.2718
    133  CB       172.4590  133.6410  145.6590 C.3   546  HIS546      0.0759
    134  CG       172.1500  132.3330  146.3040 C.ar  546  HIS546      0.0818
    135  ND1      172.9340  131.8030  147.3060 N.ar  546  HIS546     -0.2268
    136  CD2      171.1850  131.4180  146.0560 C.ar  546  HIS546      0.1154
    137  CE1      172.4460  130.6330  147.6720 C.ar  546  HIS546      0.1986
    138  NE2      171.3840  130.3760  146.9300 N.ar  546  HIS546     -0.2212
    139  N        172.9040  132.9710  142.5650 N.am  547  LEU547     -0.1980
    140  CA       172.6990  132.0480  141.4550 C.3   547  LEU547      0.1596
    141  C        174.0100  131.6940  140.7620 C.2   547  LEU547      0.2287
    142  O        174.2040  130.5610  140.3230 O.2   547  LEU547     -0.2864
    143  CB       171.7170  132.6330  140.4430 C.3   547  LEU547      0.0297
    144  CG       170.2590  132.4530  140.8410 C.3   547  LEU547      0.0022
    145  CD1      169.3480  132.8020  139.6840 C.3   547  LEU547      0.0001
    146  CD2      170.0380  131.0250  141.2930 C.3   547  LEU547      0.0001
@<TRIPOS>BOND
     1   100    99   ar
     2   101    99   ar
     3    40    39    1
     4    40    41    1
     5    39    36    1
     6    99    98    1
     7   120   118   am
     8    47    46    1
     9    46    43    1
    10    41    35    1
    11   119   118    2
    12   118   117    1
    13    36    37    1
    14    36    35    1
    15    98    97    1
    16    37    38    2
    17    37    42   am
    18    42    43    1
    19    43    44    1
    20    97    94    1
    21   117   114    1
    22   116   115    2
    23   145   144    1
    24    45    44    2
    25    96    95    2
    26    44    48   am
    27   115   114    1
    28    94    95    1
    29    94    93    1
    30   114   113    1
    31   142   141    2
    32   143   144    1
    33   143   140    1
    34    92    90   ar
    35   141   140    1
    36   144   146    1
    37    75    74    1
    38    89    90    1
    39    89    86    1
    40    48    49    1
    41    93    87   am
    42    88    87    2
    43    74    71    1
    44    90    91   ar
    45   113   110   am
    46    87    86    1
    47   140   139    1
    48   128   126    1
    49    86    85    1
    50    53    52    1
    51    49    52    1
    52    49    50    1
    53   110   111    2
    54   110   109    1
    55    69    68    1
    56   139   131   am
    57    55    50   am
    58    55    56    1
    59    71    70    1
    60    71    72    1
    61    83    82    2
    62    67    66    1
    63    67    68    1
    64   107   106    1
    65   124   123    2
    66    52    54    1
    67   123   122    1
    68    50    51    2
    69    66    65    1
    70    70    63   am
    71    56    59    1
    72    56    57    1
    73   109   108    1
    74   109   112    1
    75    82    84   am
    76    82    81    1
    77    76    72   am
    78    76    77    1
    79    72    73    2
    80    80    81    1
    81    80    77    1
    82   126   125    1
    83   126   127    1
    84   131   132    2
    85   131   130    1
    86   125   122    1
    87    77    78    1
    88    59    60    1
    89   108   104   am
    90    61    57   am
    91    61    62    1
    92   106   103    1
    93   105   104    2
    94   122   121    1
    95   129   130    1
    96    57    58    2
    97   104   103    1
    98    63    62    1
    99    63    64    2
   100    65    62    1
   101   130   133    1
   102   103   102    1
   103    78    79    2
   104     6     5    1
   105   133   134    1
   106   136   134   ar
   107   136   138   ar
   108   134   135   ar
   109     5     2    1
   110   138   137   ar
   111     4     3    2
   112   135   137   ar
   113    12    14    1
   114    12    11    1
   115    34    32    1
   116     3     2    1
   117     3     7   am
   118     2     1    1
   119    19    20    1
   120    19    16    1
   121    22    24   ar
   122    22    20   ar
   123     8     7    1
   124     8    11    1
   125     8     9    1
   126    15    16    1
   127    15     9   am
   128    24    25   ar
   129    20    21   ar
   130    13    11    1
   131    18    17    2
   132    16    17    1
   133     9    10    2
   134    32    33    1
   135    32    31    1
   136    25    26    1
   137    25    23   ar
   138    21    23   ar
   139    31    28    1
   140    27    28    1
   141    28    29    1
   142    30    29    2
