@<TRIPOS>MOLECULE
tmp/5v8fE00.pdb
 109 104 0 0 0
SMALL
GASTEIGER

@<TRIPOS>ATOM
      1  N         95.1180  109.1930  150.2030 N.3   344  ILE344     -0.1231
      2  CA        96.2680  110.0780  150.2950 C.3   344  ILE344      0.1692
      3  C         97.1410  109.9020  151.5510 C.2   344  ILE344      0.2592
      4  O         96.6490  109.7900  152.6620 O.2   344  ILE344     -0.2718
      5  CB        95.7830  111.5370  150.2410 C.3   344  ILE344      0.0266
      6  CG1       94.8130  111.7330  149.0710 C.3   344  ILE344      0.0019
      7  CG2       96.9440  112.4820  150.1330 C.3   344  ILE344      0.0020
      8  CD1       93.3370  111.6270  149.4550 C.3   344  ILE344      0.0001
      9  N         98.4530  109.8800  151.3770 N.am  345  LYS345     -0.1966
     10  CA        99.3400  109.8430  152.5340 C.3   345  LYS345      0.1728
     11  C        100.2420  111.0760  152.6030 C.2   345  LYS345      0.2616
     12  O        100.9510  111.3910  151.6500 O.2   345  LYS345     -0.2715
     13  CB       100.1940  108.5740  152.5210 C.3   345  LYS345      0.0311
     14  CG        99.4390  107.3110  152.9110 C.3   345  LYS345      0.0038
     15  CD       100.3770  106.1160  152.9470 C.3   345  LYS345      0.0206
     16  CE       100.8780  105.7700  151.5510 C.3   345  LYS345      0.1093
     17  NZ        99.8160  105.0820  150.7580 N.3   345  LYS345     -0.1314
     18  N        100.2090  111.7760  153.7340 N.am  346  LEU346     -0.1963
     19  CA       101.1050  112.9060  153.9250 C.3   346  LEU346      0.1728
     20  C        102.0060  112.7410  155.1410 C.2   346  LEU346      0.2616
     21  O        101.6820  112.0570  156.1110 O.2   346  LEU346     -0.2715
     22  CB       100.3200  114.2180  154.0230 C.3   346  LEU346      0.0311
     23  CG        99.1630  114.3600  155.0150 C.3   346  LEU346      0.0022
     24  CD1       99.6400  114.5150  156.4400 C.3   346  LEU346      0.0001
     25  CD2       98.2930  115.5480  154.6320 C.3   346  LEU346      0.0001
     26  N        103.1430  113.4100  155.0520 N.am  347  ARG347     -0.1977
     27  CA       104.1970  113.4640  156.0540 C.3   347  ARG347      0.1597
     28  C        103.6980  114.0930  157.3580 C.2   347  ARG347      0.2287
     29  O        102.6910  114.7950  157.3370 O.2   347  ARG347     -0.2864
     30  CB       105.3020  114.3080  155.4810 C.3   347  ARG347      0.0334
     31  CG       104.6920  115.6370  155.1420 C.3   347  ARG347      0.0492
     32  CD       105.7030  116.6340  154.7860 C.3   347  ARG347      0.2205
     33  NE       106.5480  116.0770  153.7630 N.pl3 347  ARG347     -0.0865
     34  CZ       107.6290  116.6710  153.2980 C.cat 347  ARG347      0.5346
     35  NH1      108.3320  116.0610  152.3640 N.pl3 347  ARG347      0.1354
     36  NH2      108.0040  117.8580  153.7690 N.pl3 347  ARG347      0.1354
     37  N        114.2520  115.2550  145.1120 N.3   434  HIS434     -0.1241
     38  CA       112.9350  115.9500  145.1160 C.3   434  HIS434      0.1621
     39  C        111.7710  115.0330  145.4840 C.2   434  HIS434      0.2264
     40  O        110.9600  115.3480  146.3540 O.2   434  HIS434     -0.2867
     41  CB       112.6200  116.5610  143.7350 C.3   434  HIS434      0.0745
     42  CG       113.4190  117.7800  143.4050 C.ar  434  HIS434      0.0817
     43  ND1      113.8140  118.0640  142.1160 N.ar  434  HIS434     -0.2268
     44  CD2      113.8570  118.8080  144.1690 C.ar  434  HIS434      0.1154
     45  CE1      114.4820  119.2020  142.0980 C.ar  434  HIS434      0.1986
     46  NE2      114.5250  119.6740  143.3320 N.ar  434  HIS434     -0.2212
     47  N        109.0330  114.8460  149.5460 N.3   438  GLU438     -0.1231
     48  CA       107.6290  115.2180  149.7470 C.3   438  GLU438      0.1699
     49  C        106.7170  114.0150  149.6080 C.2   438  GLU438      0.2592
     50  O        106.0300  113.6130  150.5430 O.2   438  GLU438     -0.2718
     51  CB       107.2270  116.3050  148.7550 C.3   438  GLU438      0.0402
     52  CG       105.7850  116.8370  148.9130 C.3   438  GLU438      0.1161
     53  CD       104.7320  115.9220  148.2820 C.2   438  GLU438      0.3649
     54  OE1      105.0860  115.1730  147.3540 O.co2 438  GLU438     -0.2457
     55  OE2      103.5470  115.9560  148.7280 O.co2 438  GLU438     -0.2457
     56  N        106.7630  113.4580  148.4030 N.am  439  GLN439     -0.1979
     57  CA       106.0730  112.2460  147.9990 C.3   439  GLN439      0.1601
     58  C        106.5530  111.0810  148.8720 C.2   439  GLN439      0.2287
     59  O        106.0650  109.9540  148.7380 O.2   439  GLN439     -0.2864
     60  CB       106.3270  112.0150  146.4840 C.3   439  GLN439      0.0394
     61  CG       105.6060  110.8570  145.7930 C.3   439  GLN439      0.0908
     62  CD       104.0840  111.0040  145.7670 C.2   439  GLN439      0.2608
     63  OE1      103.5370  111.9660  145.2130 O.2   439  GLN439     -0.2717
     64  NE2      103.3960  110.0550  146.3850 N.am  439  GLN439     -0.0878
     65  N        111.2140  124.9830  144.1330 N.3   485  PRO485     -0.2116
     66  CA       110.6710  123.8180  144.8540 C.3   485  PRO485      0.1372
     67  C        111.4730  123.3420  146.0810 C.2   485  PRO485      0.2244
     68  O        110.9230  123.1250  147.1830 O.2   485  PRO485     -0.2868
     69  CB       110.6620  122.7200  143.7740 C.3   485  PRO485      0.0268
     70  CG       111.4630  123.2680  142.6210 C.3   485  PRO485      0.0207
     71  CD       111.2610  124.7300  142.6850 C.3   485  PRO485      0.0892
     72  N        110.6260  122.9720  150.1940 N.3   489  ARG489     -0.1245
     73  CA       110.4020  121.7620  151.0090 C.3   489  ARG489      0.1563
     74  C        111.1260  121.7840  152.3760 C.2   489  ARG489      0.2260
     75  O        110.9470  120.8880  153.2060 O.2   489  ARG489     -0.2867
     76  CB       110.7890  120.5010  150.2130 C.3   489  ARG489      0.0307
     77  CG       109.9040  120.2540  148.9730 C.3   489  ARG489      0.0489
     78  CD       110.0700  118.8890  148.3510 C.3   489  ARG489      0.2205
     79  NE       109.3760  118.8070  147.0800 N.pl3 489  ARG489     -0.0865
     80  CZ       109.8660  119.1900  145.8980 C.cat 489  ARG489      0.5346
     81  NH1      109.1300  119.0780  144.7860 N.pl3 489  ARG489      0.1354
     82  NH2      111.0830  119.7360  145.8490 N.pl3 489  ARG489      0.1354
     83  N        102.1980  126.3780  151.1540 N.3   578  VAL578     -0.1231
     84  CA       101.3190  125.6090  152.0370 C.3   578  VAL578      0.1692
     85  C        102.0560  124.4670  152.7490 C.2   578  VAL578      0.2591
     86  O        101.6980  124.0460  153.8720 O.2   578  VAL578     -0.2718
     87  CB       100.1500  125.0500  151.2450 C.3   578  VAL578      0.0266
     88  CG1       99.1510  124.4160  152.1730 C.3   578  VAL578      0.0020
     89  CG2       99.4970  126.1640  150.4540 C.3   578  VAL578      0.0020
     90  N        103.0970  123.9810  152.0780 N.am  579  ARG579     -0.1980
     91  CA       104.0080  123.0040  152.6540 C.3   579  ARG579      0.1597
     92  C        104.5490  123.5590  153.9680 C.2   579  ARG579      0.2287
     93  O        104.7250  122.8240  154.9300 O.2   579  ARG579     -0.2864
     94  CB       105.1420  122.6600  151.6740 C.3   579  ARG579      0.0334
     95  CG       106.1210  121.6000  152.1850 C.3   579  ARG579      0.0492
     96  CD       107.0820  121.1080  151.1070 C.3   579  ARG579      0.2205
     97  NE       106.4300  120.3780  150.0300 N.pl3 579  ARG579     -0.0865
     98  CZ       106.2360  120.8460  148.7940 C.cat 579  ARG579      0.5346
     99  NH1      106.6720  122.0730  148.5160 N.pl3 579  ARG579      0.1354
    100  NH2      105.6310  120.1060  147.8460 N.pl3 579  ARG579      0.1354
    101  N        101.6350  123.0130  156.7370 N.3   582  GLU582     -0.1245
    102  CA       101.6940  121.6620  157.2680 C.3   582  GLU582      0.1567
    103  C        102.9250  121.5740  158.1620 C.2   582  GLU582      0.2260
    104  O        102.8440  121.0830  159.2880 O.2   582  GLU582     -0.2867
    105  CB       101.7210  120.6210  156.1370 C.3   582  GLU582      0.0388
    106  CG       101.7110  119.1680  156.6030 C.3   582  GLU582      0.1160
    107  CD       103.0880  118.6890  157.0460 C.2   582  GLU582      0.3649
    108  OE1      104.0950  119.2480  156.5870 O.co2 582  GLU582     -0.2457
    109  OE2      103.1670  117.7700  157.8880 O.co2 582  GLU582     -0.2457
@<TRIPOS>BOND
     1    45    43   ar
     2    45    46   ar
     3    43    42   ar
     4    70    71    1
     5    70    69    1
     6    71    65    1
     7    46    44   ar
     8    42    41    1
     9    42    44   ar
    10    41    38    1
    11    69    66    1
    12    65    66    1
    13    81    80    1
    14    66    67    1
    15    37    38    1
    16    38    39    1
    17    63    62    2
    18    39    40    2
    19    62    61    1
    20    62    64   am
    21    61    60    1
    22    82    80    1
    23    80    79    2
    24    67    68    2
    25    60    57    1
    26    79    78    1
    27    54    53   ar
    28   100    98    1
    29    57    56    1
    30    57    58    1
    31    53    55   ar
    32    53    52    1
    33    78    77    1
    34    56    49   am
    35    99    98    1
    36    59    58    2
    37    51    52    1
    38    51    48    1
    39    98    97    2
    40    77    76    1
    41     6     8    1
    42     6     5    1
    43    47    48    1
    44    49    48    1
    45    49    50    2
    46    97    96    1
    47     7     5    1
    48    72    73    1
    49     1     2    1
    50    76    73    1
    51     5     2    1
    52     2     3    1
    53    89    87    1
    54    17    16    1
    55    73    74    1
    56    96    95    1
    57    83    84    1
    58    87    84    1
    59    87    88    1
    60     9     3   am
    61     9    10    1
    62    16    15    1
    63     3     4    2
    64    12    11    2
    65    94    95    1
    66    94    91    1
    67    84    85    1
    68    90    91    1
    69    90    85   am
    70    35    34    1
    71    74    75    2
    72    13    10    1
    73    13    14    1
    74    10    11    1
    75    11    18   am
    76    91    92    1
    77    85    86    2
    78    14    15    1
    79    34    33    2
    80    34    36    1
    81    18    19    1
    82    33    32    1
    83    19    22    1
    84    19    20    1
    85    92    93    2
    86    22    23    1
    87    25    23    1
    88    32    31    1
    89    23    24    1
    90    26    20   am
    91    26    27    1
    92    20    21    2
    93    31    30    1
    94    30    27    1
    95    27    28    1
    96   105   106    1
    97   105   102    1
    98   108   107   ar
    99   106   107    1
   100   101   102    1
   101   107   109   ar
   102   102   103    1
   103    29    28    2
   104   103   104    2
