@<TRIPOS>MOLECULE
tmp/5v8kA13.pdb
 150 149 0 0 0
SMALL
GASTEIGER

@<TRIPOS>ATOM
      1  N        117.3010   73.3950   20.8630 N.3   323  PHE323     -0.1227
      2  CA       116.3520   74.4030   21.3000 C.3   323  PHE323      0.1736
      3  C        117.0820   75.6330   21.8390 C.2   323  PHE323      0.2596
      4  O        116.7020   76.7730   21.5510 O.2   323  PHE323     -0.2718
      5  CB       115.4280   73.7960   22.3550 C.3   323  PHE323      0.0547
      6  CG       114.4340   74.7720   22.9110 C.ar  323  PHE323     -0.0202
      7  CD1      113.3720   75.2160   22.1400 C.ar  323  PHE323     -0.0042
      8  CD2      114.5550   75.2610   24.1940 C.ar  323  PHE323     -0.0042
      9  CE1      112.4560   76.1170   22.6460 C.ar  323  PHE323     -0.0003
     10  CE2      113.6350   76.1820   24.6960 C.ar  323  PHE323     -0.0003
     11  CZ       112.5950   76.6040   23.9230 C.ar  323  PHE323     -0.0000
     12  N        118.1250   75.4140   22.6340 N.am  324  GLY324     -0.1957
     13  CA       118.9080   76.5080   23.1810 C.3   324  GLY324      0.1869
     14  C        119.5850   77.3470   22.1180 C.2   324  GLY324      0.2309
     15  O        119.9130   78.5060   22.3710 O.2   324  GLY324     -0.2863
     16  N        115.8690   79.0570   19.7220 N.3   327  LEU327     -0.1231
     17  CA       115.0650   80.1550   20.2360 C.3   327  LEU327      0.1678
     18  C        115.8160   81.4860   20.2100 C.2   327  LEU327      0.2434
     19  O        115.2670   82.4670   19.6780 O.2   327  LEU327     -0.2733
     20  CB       114.5580   79.8010   21.6380 C.3   327  LEU327      0.0284
     21  CG       113.6950   80.8880   22.2940 C.3   327  LEU327      0.0019
     22  CD1      112.5540   81.2320   21.3630 C.3   327  LEU327      0.0001
     23  CD2      113.1260   80.4330   23.6270 C.3   327  LEU327      0.0001
     24  N        117.0320   81.6080   20.7480 N.am  328  PRO328     -0.2729
     25  CA       117.6960   82.9330   20.7100 C.3   328  PRO328      0.1401
     26  C        118.1090   83.3810   19.3060 C.2   328  PRO328      0.2269
     27  O        118.0710   84.5810   19.0240 O.2   328  PRO328     -0.2865
     28  CB       118.9030   82.7560   21.6320 C.3   328  PRO328      0.0296
     29  CG       119.1260   81.2720   21.6960 C.3   328  PRO328      0.0237
     30  CD       117.7760   80.6380   21.5790 C.3   328  PRO328      0.0939
     31  N        114.8630   84.7160   17.7360 N.3   331  VAL331     -0.1245
     32  CA       114.5290   86.0300   18.2700 C.3   331  VAL331      0.1561
     33  C        115.4770   87.1040   17.7140 C.2   331  VAL331      0.2260
     34  O        115.0270   88.1450   17.2130 O.2   331  VAL331     -0.2867
     35  CB       114.5620   85.9840   19.8100 C.3   331  VAL331      0.0252
     36  CG1      114.5340   87.3470   20.3890 C.3   331  VAL331      0.0019
     37  CG2      113.3570   85.1900   20.3650 C.3   331  VAL331      0.0019
     38  N        113.6340   96.7690   21.9260 N.3   361  ILE361     -0.1231
     39  CA       113.6210   96.0420   23.1870 C.3   361  ILE361      0.1692
     40  C        114.9390   96.3220   23.8990 C.2   361  ILE361      0.2593
     41  O        115.9980   96.2580   23.2740 O.2   361  ILE361     -0.2718
     42  CB       113.4890   94.5200   22.9490 C.3   361  ILE361      0.0266
     43  CG1      112.2510   94.1930   22.1040 C.3   361  ILE361      0.0019
     44  CG2      113.4340   93.8070   24.2730 C.3   361  ILE361      0.0020
     45  CD1      112.1370   92.7100   21.7460 C.3   361  ILE361      0.0001
     46  N        114.8810   96.5450   25.2120 N.am  362  GLY362     -0.1942
     47  CA       116.0660   96.7270   26.0260 C.3   362  GLY362      0.2014
     48  C        116.5840   95.4260   26.6120 C.2   362  GLY362      0.2640
     49  O        116.2060   94.3290   26.1990 O.2   362  GLY362     -0.2714
     50  N        117.4480   95.5730   27.6290 N.am  363  THR363     -0.1937
     51  CA       118.1230   94.4580   28.2970 C.3   363  THR363      0.2013
     52  C        117.9680   94.5910   29.8130 C.2   363  THR363      0.2484
     53  O        118.9520   94.7140   30.5500 O.2   363  THR363     -0.2729
     54  CB       119.5960   94.4260   27.9000 C.3   363  THR363      0.1807
     55  OG1      120.2510   95.6380   28.3160 O.3   363  THR363     -0.2208
     56  CG2      119.7310   94.2740   26.3780 C.3   363  THR363      0.0379
     57  N        116.7330   94.5330   30.3190 N.am  364  PRO364     -0.2715
     58  CA       116.5170   94.8280   31.7440 C.3   364  PRO364      0.1536
     59  C        117.1910   93.8460   32.6830 C.2   364  PRO364      0.2598
     60  O        117.4800   94.2050   33.8300 O.2   364  PRO364     -0.2715
     61  CB       114.9830   94.7750   31.8920 C.3   364  PRO364      0.0310
     62  CG       114.5100   93.9910   30.7220 C.3   364  PRO364      0.0237
     63  CD       115.4610   94.3210   29.6170 C.3   364  PRO364      0.0939
     64  N        117.4060   92.6050   32.2750 N.am  365  LEU365     -0.1964
     65  CA       117.9880   91.6660   33.2230 C.3   365  LEU365      0.1728
     66  C        119.4850   91.9200   33.3960 C.2   365  LEU365      0.2616
     67  O        120.0040   91.9460   34.5180 O.2   365  LEU365     -0.2715
     68  CB       117.7300   90.2410   32.7580 C.3   365  LEU365      0.0311
     69  CG       118.5540   89.1720   33.4690 C.3   365  LEU365      0.0022
     70  CD1      118.2240   89.1210   34.9550 C.3   365  LEU365      0.0001
     71  CD2      118.2660   87.8280   32.8130 C.3   365  LEU365      0.0001
     72  N        120.1830   92.1050   32.2800 N.am  366  HIS366     -0.1973
     73  CA       121.5860   92.4860   32.3190 C.3   366  HIS366      0.1656
     74  C        121.7880   93.8050   33.0660 C.2   366  HIS366      0.2291
     75  O        122.6860   93.9110   33.9080 O.2   366  HIS366     -0.2864
     76  CB       122.1090   92.5660   30.8940 C.3   366  HIS366      0.0771
     77  CG       123.5890   92.5940   30.8180 C.ar  366  HIS366      0.0820
     78  ND1      124.3150   93.7090   31.1630 N.ar  366  HIS366     -0.2267
     79  CD2      124.4890   91.6410   30.4770 C.ar  366  HIS366      0.1154
     80  CE1      125.5990   93.4510   31.0060 C.ar  366  HIS366      0.1986
     81  NE2      125.7280   92.2000   30.6140 N.ar  366  HIS366     -0.2212
     82  N        121.5390   93.4780   36.8860 N.3   369  ILE369     -0.1231
     83  CA       122.5670   92.6730   37.5370 C.3   369  ILE369      0.1692
     84  C        123.9500   93.3090   37.4130 C.2   369  ILE369      0.2592
     85  O        124.7460   93.2460   38.3530 O.2   369  ILE369     -0.2718
     86  CB       122.5320   91.2460   36.9530 C.3   369  ILE369      0.0266
     87  CG1      121.1920   90.6120   37.3160 C.3   369  ILE369      0.0019
     88  CG2      123.7400   90.4070   37.4460 C.3   369  ILE369      0.0020
     89  CD1      121.0610   89.1940   36.9050 C.3   369  ILE369      0.0001
     90  N        124.2590   93.9400   36.2740 N.am  370  PHE370     -0.1976
     91  CA       125.5990   94.4580   36.0240 C.3   370  PHE370      0.1639
     92  C        125.6890   95.9740   35.8990 C.2   370  PHE370      0.2290
     93  O        126.7990   96.4970   35.8560 O.2   370  PHE370     -0.2864
     94  CB       126.1710   93.8250   34.7560 C.3   370  PHE370      0.0560
     95  CG       126.1890   92.3360   34.7780 C.ar  370  PHE370     -0.0200
     96  CD1      126.8890   91.6530   35.7540 C.ar  370  PHE370     -0.0042
     97  CD2      125.5230   91.6120   33.8000 C.ar  370  PHE370     -0.0042
     98  CE1      126.9130   90.2680   35.7650 C.ar  370  PHE370     -0.0003
     99  CE2      125.5370   90.2350   33.8040 C.ar  370  PHE370     -0.0003
    100  CZ       126.2280   89.5550   34.7820 C.ar  370  PHE370     -0.0000
    101  N        122.2930   95.7320   22.0630 N.3   378  GLU378     -0.1231
    102  CA       122.7010   94.7050   23.0230 C.3   378  GLU378      0.1699
    103  C        121.7210   93.5170   23.0740 C.2   378  GLU378      0.2592
    104  O        122.1520   92.3610   23.1420 O.2   378  GLU378     -0.2718
    105  CB       122.8340   95.3060   24.4230 C.3   378  GLU378      0.0402
    106  CG       124.0990   96.0300   24.6740 C.3   378  GLU378      0.1161
    107  CD       124.1490   97.4400   24.0840 C.2   378  GLU378      0.3649
    108  OE1      123.0560   98.0530   23.8550 O.co2 378  GLU378     -0.2457
    109  OE2      125.2960   97.9240   23.8660 O.co2 378  GLU378     -0.2457
    110  N        120.4100   93.7650   23.0880 N.am  379  PHE379     -0.1976
    111  CA       119.4630   92.6470   23.1420 C.3   379  PHE379      0.1639
    112  C        119.6810   91.6850   21.9760 C.2   379  PHE379      0.2290
    113  O        119.8710   90.4780   22.1840 O.2   379  PHE379     -0.2864
    114  CB       118.0130   93.1570   23.1760 C.3   379  PHE379      0.0560
    115  CG       116.9740   92.0320   23.2370 C.ar  379  PHE379     -0.0200
    116  CD1      116.5460   91.5330   24.4570 C.ar  379  PHE379     -0.0042
    117  CD2      116.4560   91.4730   22.0810 C.ar  379  PHE379     -0.0042
    118  CE1      115.5990   90.5020   24.5340 C.ar  379  PHE379     -0.0003
    119  CE2      115.5020   90.4400   22.1390 C.ar  379  PHE379     -0.0003
    120  CZ       115.0840   89.9500   23.3710 C.ar  379  PHE379     -0.0000
    121  N        123.4430   90.0330   22.0490 N.3   382  ALA382     -0.1231
    122  CA       123.6230   89.0230   23.0740 C.3   382  ALA382      0.1694
    123  C        122.8280   87.7460   22.7680 C.2   382  ALA382      0.2592
    124  O        123.3190   86.6340   22.9950 O.2   382  ALA382     -0.2718
    125  CB       123.2350   89.6050   24.4290 C.3   382  ALA382      0.0304
    126  N        121.6190   87.8680   22.2260 N.am  383  HIS383     -0.1976
    127  CA       120.9040   86.6480   21.8530 C.3   383  HIS383      0.1656
    128  C        121.5080   85.9820   20.6280 C.2   383  HIS383      0.2291
    129  O        121.4210   84.7620   20.4980 O.2   383  HIS383     -0.2864
    130  CB       119.4270   86.9380   21.6590 C.3   383  HIS383      0.0771
    131  CG       118.7300   87.2010   22.9430 C.ar  383  HIS383      0.0820
    132  ND1      118.7400   88.4370   23.5470 N.ar  383  HIS383     -0.2267
    133  CD2      118.0630   86.3740   23.7780 C.ar  383  HIS383      0.1154
    134  CE1      118.0860   88.3690   24.6910 C.ar  383  HIS383      0.1986
    135  NE2      117.6330   87.1360   24.8370 N.ar  383  HIS383     -0.2212
    136  N        124.6960   84.2240   22.2850 N.3   386  ALA386     -0.1245
    137  CA       124.1890   83.0770   23.0430 C.3   386  ALA386      0.1562
    138  C        123.7050   81.9590   22.1140 C.2   386  ALA386      0.2260
    139  O        124.0470   80.7840   22.2940 O.2   386  ALA386     -0.2867
    140  CB       123.0640   83.5260   23.9560 C.3   386  ALA386      0.0290
    141  N        125.1920   77.9600   21.5790 N.3   390  HIS390     -0.1241
    142  CA       124.4490   76.7040   21.6170 C.3   390  HIS390      0.1621
    143  C        124.4830   75.9980   20.2720 C.2   390  HIS390      0.2264
    144  O        124.5310   74.7660   20.2100 O.2   390  HIS390     -0.2867
    145  CB       123.0080   76.9600   22.0440 C.3   390  HIS390      0.0745
    146  CG       122.8930   77.4110   23.4540 C.ar  390  HIS390      0.0817
    147  ND1      123.3110   78.6540   23.8700 N.ar  390  HIS390     -0.2268
    148  CD2      122.4870   76.7590   24.5630 C.ar  390  HIS390      0.1154
    149  CE1      123.1130   78.7650   25.1700 C.ar  390  HIS390      0.1986
    150  NE2      122.6050   77.6320   25.6100 N.ar  390  HIS390     -0.2212
@<TRIPOS>BOND
     1    34    33    2
     2    33    32    1
     3    31    32    1
     4    32    35    1
     5    27    26    2
     6    26    25    1
     7    19    18    2
     8    16    17    1
     9    35    37    1
    10    35    36    1
    11    18    17    1
    12    18    24   am
    13   144   143    2
    14    17    20    1
    15   143   142    1
    16   129   128    2
    17   128   127    1
    18    25    24    1
    19    25    28    1
    20    24    30    1
    21     1     2    1
    22     2     3    1
    23     2     5    1
    24    22    21    1
    25     4     3    2
    26   141   142    1
    27    30    29    1
    28   142   145    1
    29    28    29    1
    30    20    21    1
    31   130   127    1
    32   130   131    1
    33    45    43    1
    34     3    12   am
    35   127   126    1
    36    38    39    1
    37   112   113    2
    38   112   111    1
    39   145   146    1
    40   121   122    1
    41   101   102    1
    42   117   119   ar
    43   117   115   ar
    44    43    42    1
    45   138   139    2
    46   138   137    1
    47    14    15    2
    48    14    13    1
    49   119   120   ar
    50     7     9   ar
    51     7     6   ar
    52   126   123   am
    53   136   137    1
    54    21    23    1
    55     5     6    1
    56    12    13    1
    57     9    11   ar
    58   123   124    2
    59   123   122    1
    60     6     8   ar
    61   131   132   ar
    62   131   133   ar
    63    42    39    1
    64    42    44    1
    65   102   103    1
    66   102   105    1
    67   137   140    1
    68   103   110   am
    69   103   104    2
    70   122   125    1
    71   110   111    1
    72   111   114    1
    73   114   115    1
    74    39    40    1
    75   115   116   ar
    76    41    40    2
    77   120   118   ar
    78   146   147   ar
    79   146   148   ar
    80   132   134   ar
    81   133   135   ar
    82   108   107   ar
    83   109   107   ar
    84   147   149   ar
    85    40    46   am
    86    11    10   ar
    87   107   106    1
    88     8    10   ar
    89   105   106    1
    90   116   118   ar
    91   148   150   ar
    92   134   135   ar
    93   149   150   ar
    94    46    47    1
    95    47    48    1
    96    49    48    2
    97    56    54    1
    98    48    50   am
    99    50    51    1
   100    54    51    1
   101    54    55    1
   102    51    52    1
   103    63    57    1
   104    63    62    1
   105    52    57   am
   106    52    53    2
   107    57    58    1
   108    79    81   ar
   109    79    77   ar
   110    81    80   ar
   111    62    61    1
   112    77    76    1
   113    77    78   ar
   114    76    73    1
   115    80    78   ar
   116    58    61    1
   117    58    59    1
   118    64    59   am
   119    64    65    1
   120    72    73    1
   121    72    66   am
   122    73    74    1
   123    59    60    2
   124    68    65    1
   125    68    69    1
   126    71    69    1
   127    74    75    2
   128    65    66    1
   129    66    67    2
   130    69    70    1
   131    97    99   ar
   132    97    95   ar
   133    99   100   ar
   134    94    95    1
   135    94    91    1
   136    95    96   ar
   137   100    98   ar
   138    96    98   ar
   139    93    92    2
   140    92    91    1
   141    91    90    1
   142    90    84   am
   143    82    83    1
   144    89    87    1
   145    86    87    1
   146    86    88    1
   147    86    83    1
   148    84    83    1
   149    84    85    2
