@<TRIPOS>MOLECULE
tmp/5v8kA09.pdb
 211 202 0 0 0
SMALL
GASTEIGER

@<TRIPOS>ATOM
      1  N        158.9000   74.1450   23.1090 N.3    28  HIS28      -0.1226
      2  CA       157.8120   75.1010   23.0280 C.3    28  HIS28       0.1752
      3  C        158.1440   76.3830   23.7930 C.2    28  HIS28       0.2595
      4  O        157.8200   77.4770   23.3340 O.2    28  HIS28      -0.2718
      5  CB       156.5180   74.4960   23.5370 C.3    28  HIS28       0.0759
      6  CG       155.4490   75.5120   23.7050 C.ar   28  HIS28       0.0818
      7  ND1      155.0880   76.0150   24.9330 N.ar   28  HIS28      -0.2268
      8  CD2      154.7140   76.1790   22.7920 C.ar   28  HIS28       0.1154
      9  CE1      154.1430   76.9180   24.7720 C.ar   28  HIS28       0.1986
     10  NE2      153.9140   77.0480   23.4820 N.ar   28  HIS28      -0.2212
     11  N        158.7900   76.2720   24.9580 N.am   29  LEU29      -0.1980
     12  CA       159.2640   77.4690   25.6510 C.3    29  LEU29       0.1596
     13  C        160.2490   78.2600   24.7840 C.2    29  LEU29       0.2287
     14  O        160.1740   79.4940   24.7130 O.2    29  LEU29      -0.2864
     15  CB       159.9080   77.0870   26.9840 C.3    29  LEU29       0.0297
     16  CG       158.9370   76.4590   27.9870 C.3    29  LEU29       0.0022
     17  CD1      159.6640   75.9690   29.2020 C.3    29  LEU29       0.0001
     18  CD2      157.8270   77.3990   28.3680 C.3    29  LEU29       0.0001
     19  N        158.2760   80.3630   22.4590 N.3    32  VAL32      -0.1245
     20  CA       157.6960   81.5250   23.1060 C.3    32  VAL32       0.1561
     21  C        158.7390   82.6280   23.1930 C.2    32  VAL32       0.2260
     22  O        158.5390   83.7470   22.7100 O.2    32  VAL32      -0.2867
     23  CB       157.1680   81.1460   24.4990 C.3    32  VAL32       0.0252
     24  CG1      156.6420   82.3940   25.2700 C.3    32  VAL32       0.0019
     25  CG2      156.0780   80.0380   24.3920 C.3    32  VAL32       0.0019
     26  N        159.5790   84.1270   19.6560 N.3    35  MET35      -0.1245
     27  CA       158.6110   85.0400   19.0640 C.3    35  MET35       0.1570
     28  C        158.7600   86.4360   19.6410 C.2    35  MET35       0.2261
     29  O        158.6690   87.4200   18.9070 O.2    35  MET35      -0.2867
     30  CB       157.1930   84.5290   19.2880 C.3    35  MET35       0.0387
     31  CG       156.0890   85.4500   18.7250 C.3    35  MET35       0.0595
     32  SD       154.5480   84.5430   18.7260 S.3    35  MET35      -0.1393
     33  CE       153.2940   85.8720   18.8130 C.3    35  MET35       0.0692
     34  N        151.2020   91.9340   15.0380 N.3    57  PRO57      -0.2168
     35  CA       151.5140   91.7980   16.4520 C.3    57  PRO57       0.1057
     36  C        152.5310   92.7820   17.0530 C.3    57  PRO57       0.1993
     37  O        152.4070   92.9530   18.2670 O.3    57  PRO57      -0.2189
     38  CB       151.9880   90.3250   16.5690 C.3    57  PRO57       0.0215
     39  CG       152.0890   89.8220   15.2590 C.3    57  PRO57       0.0203
     40  CD       151.9930   90.9150   14.3270 C.3    57  PRO57       0.0888
     41  N        151.4000   95.3920   19.7300 N.3    60  MET60      -0.1230
     42  CA       150.9390   94.9780   21.0530 C.3    60  MET60       0.1702
     43  C        152.1200   94.7630   21.9870 C.2    60  MET60       0.2592
     44  O        152.0480   95.0730   23.1790 O.2    60  MET60      -0.2718
     45  CB       150.0710   93.7030   20.9750 C.3    60  MET60       0.0401
     46  CG       148.6570   93.9750   20.5310 C.3    60  MET60       0.0596
     47  SD       147.6620   92.4970   20.5790 S.3    60  MET60      -0.1393
     48  CE       148.1650   91.7040   19.0330 C.3    60  MET60       0.0692
     49  N        153.2100   94.2350   21.4530 N.am   61  PHE61      -0.1976
     50  CA       154.3870   93.9490   22.2700 C.3    61  PHE61       0.1639
     51  C        155.1260   95.2340   22.6410 C.2    61  PHE61       0.2290
     52  O        155.7040   95.3350   23.7350 O.2    61  PHE61      -0.2864
     53  CB       155.3060   92.9820   21.5260 C.3    61  PHE61       0.0560
     54  CG       154.8260   91.5870   21.5540 C.ar   61  PHE61      -0.0200
     55  CD1      153.9700   91.1340   20.5790 C.ar   61  PHE61      -0.0042
     56  CD2      155.1800   90.7370   22.5700 C.ar   61  PHE61      -0.0042
     57  CE1      153.5010   89.8520   20.5960 C.ar   61  PHE61      -0.0003
     58  CE2      154.6890   89.4200   22.6110 C.ar   61  PHE61      -0.0003
     59  CZ       153.8570   88.9890   21.6390 C.ar   61  PHE61      -0.0000
     60  N        153.3740   96.7300   25.4460 N.3    64  ARG64      -0.1245
     61  CA       153.8450   96.1620   26.7040 C.3    64  ARG64       0.1563
     62  C        155.1070   96.8600   27.1970 C.2    64  ARG64       0.2260
     63  O        155.2320   97.1550   28.3960 O.2    64  ARG64      -0.2867
     64  CB       154.0710   94.6610   26.5600 C.3    64  ARG64       0.0307
     65  CG       152.7270   93.8630   26.4730 C.3    64  ARG64       0.0489
     66  CD       152.2600   93.4400   27.8800 C.3    64  ARG64       0.2205
     67  NE       152.8730   92.1750   28.2120 N.pl3  64  ARG64      -0.0865
     68  CZ       153.4890   91.8510   29.3440 C.cat  64  ARG64       0.5346
     69  NH1      153.9560   90.6210   29.4590 N.pl3  64  ARG64       0.1354
     70  NH2      153.6750   92.7130   30.3360 N.pl3  64  ARG64       0.1354
     71  N        154.0660   99.9420   28.8970 N.3    67  GLN67      -0.1245
     72  CA       153.4760   99.7100   30.2090 C.3    67  GLN67       0.1566
     73  C        154.5390   99.3510   31.2430 C.2    67  GLN67       0.2260
     74  O        154.3670   99.6280   32.4300 O.2    67  GLN67      -0.2867
     75  CB       152.4280   98.5980   30.1090 C.3    67  GLN67       0.0367
     76  CG       151.6640   98.3170   31.4190 C.3    67  GLN67       0.0905
     77  CD       150.8290   97.0460   31.3460 C.2    67  GLN67       0.2608
     78  OE1      151.1730   96.0890   30.6480 O.2    67  GLN67      -0.2717
     79  NE2      149.7180   97.0400   32.0640 N.am   67  GLN67      -0.0878
     80  N        153.8940   72.8260   39.7060 N.3   120  GLN120     -0.1245
     81  CA       153.3810   73.9880   38.9780 C.3   120  GLN120      0.1566
     82  C        152.7570   75.0150   39.9180 C.2   120  GLN120      0.2260
     83  O        152.9280   76.2170   39.7190 O.2   120  GLN120     -0.2867
     84  CB       152.3830   73.5290   37.9110 C.3   120  GLN120      0.0367
     85  CG       153.0600   72.8200   36.7590 C.3   120  GLN120      0.0905
     86  CD       153.8810   73.7790   35.9020 C.2   120  GLN120      0.2608
     87  OE1      155.0160   74.1570   36.2550 O.2   120  GLN120     -0.2717
     88  NE2      153.3100   74.1690   34.7540 N.am  120  GLN120     -0.0878
     89  N        154.2350   78.7550   39.8840 N.3   124  PHE124     -0.1241
     90  CA       153.3510   79.9110   39.7480 C.3   124  PHE124      0.1605
     91  C        153.4220   80.8050   40.9810 C.2   124  PHE124      0.2264
     92  O        153.3540   82.0300   40.8690 O.2   124  PHE124     -0.2867
     93  CB       151.9060   79.4700   39.5110 C.3   124  PHE124      0.0534
     94  CG       151.5900   79.1410   38.0860 C.ar  124  PHE124     -0.0203
     95  CD1      152.3400   78.2030   37.3890 C.ar  124  PHE124     -0.0042
     96  CD2      150.5200   79.7380   37.4470 C.ar  124  PHE124     -0.0042
     97  CE1      152.0320   77.8740   36.0710 C.ar  124  PHE124     -0.0003
     98  CE2      150.2080   79.4030   36.1240 C.ar  124  PHE124     -0.0003
     99  CZ       150.9800   78.4710   35.4420 C.ar  124  PHE124     -0.0000
    100  N        141.4380   76.6140   30.0990 N.3   211  LEU211     -0.1245
    101  CA       142.1040   77.7450   29.4580 C.3   211  LEU211      0.1561
    102  C        141.1220   78.5380   28.5910 C.2   211  LEU211      0.2260
    103  O        141.1590   79.7770   28.5630 O.2   211  LEU211     -0.2867
    104  CB       143.2960   77.2550   28.6400 C.3   211  LEU211      0.0270
    105  CG       144.1670   78.3570   28.0510 C.3   211  LEU211      0.0019
    106  CD1      144.9720   79.0000   29.1550 C.3   211  LEU211      0.0001
    107  CD2      145.0680   77.7770   26.9940 C.3   211  LEU211      0.0001
    108  N        139.2660   80.7890   30.7740 N.3   214  HIS214     -0.1226
    109  CA       140.1500   81.9070   31.1080 C.3   214  HIS214      0.1752
    110  C        140.1820   82.9230   29.9710 C.2   214  HIS214      0.2596
    111  O        140.0740   84.1280   30.1950 O.2   214  HIS214     -0.2718
    112  CB       141.5560   81.3790   31.3990 C.3   214  HIS214      0.0759
    113  CG       141.7360   80.7830   32.7630 C.ar  214  HIS214      0.0818
    114  ND1      141.0440   81.2180   33.8730 N.ar  214  HIS214     -0.2268
    115  CD2      142.5510   79.7880   33.1970 C.ar  214  HIS214      0.1154
    116  CE1      141.4260   80.5200   34.9320 C.ar  214  HIS214      0.1986
    117  NE2      142.3470   79.6520   34.5510 N.ar  214  HIS214     -0.2212
    118  N        140.3160   82.4470   28.7330 N.am  215  PHE215     -0.1976
    119  CA       140.3000   83.3500   27.5870 C.3   215  PHE215      0.1639
    120  C        139.0530   84.2210   27.5780 C.2   215  PHE215      0.2290
    121  O        139.1250   85.4340   27.3270 O.2   215  PHE215     -0.2864
    122  CB       140.3630   82.5680   26.2710 C.3   215  PHE215      0.0560
    123  CG       141.7260   82.2400   25.7910 C.ar  215  PHE215     -0.0200
    124  CD1      142.5240   83.2270   25.2170 C.ar  215  PHE215     -0.0042
    125  CD2      142.1930   80.9410   25.8210 C.ar  215  PHE215     -0.0042
    126  CE1      143.7620   82.9290   24.7220 C.ar  215  PHE215     -0.0003
    127  CE2      143.4390   80.6290   25.3300 C.ar  215  PHE215     -0.0003
    128  CZ       144.2320   81.6120   24.7830 C.ar  215  PHE215     -0.0000
    129  N        139.2310   86.8580   30.0300 N.3   218  VAL218     -0.1245
    130  CA       140.1810   87.8790   29.6210 C.3   218  VAL218      0.1561
    131  C        139.5550   88.8200   28.5950 C.2   218  VAL218      0.2260
    132  O        139.7900   90.0340   28.6290 O.2   218  VAL218     -0.2867
    133  CB       141.4740   87.2320   29.0940 C.3   218  VAL218      0.0252
    134  CG1      142.3700   88.2960   28.4120 C.3   218  VAL218      0.0019
    135  CG2      142.2300   86.5820   30.2460 C.3   218  VAL218      0.0019
    136  N        139.3810   92.7500   29.3150 N.3   222  MET222     -0.1245
    137  CA       139.9990   93.7500   28.4520 C.3   222  MET222      0.1570
    138  C        139.0390   94.8610   28.0460 C.2   222  MET222      0.2261
    139  O        139.4950   95.9530   27.6930 O.2   222  MET222     -0.2867
    140  CB       140.5680   93.0810   27.1970 C.3   222  MET222      0.0387
    141  CG       141.7920   92.2560   27.4260 C.3   222  MET222      0.0595
    142  SD       142.3410   91.4290   25.9060 S.3   222  MET222     -0.1393
    143  CE       143.9540   90.7520   26.3790 C.3   222  MET222      0.0692
    144  N        144.1500   97.1370   30.9750 N.3   232  PHE232     -0.1241
    145  CA       144.4550   97.0730   29.5570 C.3   232  PHE232      0.1605
    146  C        144.3450   98.4170   28.8630 C.2   232  PHE232      0.2264
    147  O        144.4860   98.4830   27.6380 O.2   232  PHE232     -0.2867
    148  CB       143.5440   96.0410   28.8840 C.3   232  PHE232      0.0534
    149  CG       143.6830   94.6950   29.4520 C.ar  232  PHE232     -0.0203
    150  CD1      144.7190   93.8750   29.0420 C.ar  232  PHE232     -0.0042
    151  CD2      142.7990   94.2440   30.4130 C.ar  232  PHE232     -0.0042
    152  CE1      144.8730   92.6190   29.5760 C.ar  232  PHE232     -0.0003
    153  CE2      142.9390   92.9970   30.9480 C.ar  232  PHE232     -0.0003
    154  CZ       143.9900   92.1830   30.5370 C.ar  232  PHE232     -0.0000
    155  N        146.6150  100.4160   28.8980 N.3   234  PHE234     -0.1227
    156  CA       147.9450  100.7890   28.4310 C.3   234  PHE234      0.1736
    157  C        148.0160  100.7120   26.9170 C.2   234  PHE234      0.2595
    158  O        148.8430  101.3820   26.3110 O.2   234  PHE234     -0.2718
    159  CB       149.0260   99.9080   29.0760 C.3   234  PHE234      0.0547
    160  CG       149.0430   98.4730   28.5860 C.ar  234  PHE234     -0.0202
    161  CD1      149.8030   98.1320   27.4710 C.ar  234  PHE234     -0.0042
    162  CD2      148.3190   97.4700   29.2440 C.ar  234  PHE234     -0.0042
    163  CE1      149.8540   96.8550   26.9970 C.ar  234  PHE234     -0.0003
    164  CE2      148.3660   96.1250   28.7790 C.ar  234  PHE234     -0.0003
    165  CZ       149.1240   95.8180   27.6470 C.ar  234  PHE234     -0.0000
    166  N        147.1350   99.9400   26.2960 N.am  235  MET235     -0.1979
    167  CA       147.1070   99.8510   24.8380 C.3   235  MET235      0.1605
    168  C        146.4490  101.0680   24.2060 C.2   235  MET235      0.2287
    169  O        146.8290  101.4510   23.0950 O.2   235  MET235     -0.2864
    170  CB       146.3900   98.5760   24.4000 C.3   235  MET235      0.0413
    171  CG       147.2640   97.3370   24.4010 C.3   235  MET235      0.0598
    172  SD       146.2900   95.8600   23.9910 S.3   235  MET235     -0.1393
    173  CE       145.6490   95.3550   25.5930 C.3   235  MET235      0.0692
    174  N        143.8590   92.7980   20.5180 N.3   263  ALA263     -0.1245
    175  CA       144.1340   91.8010   21.5420 C.3   263  ALA263      0.1562
    176  C        142.8880   90.9940   21.8720 C.2   263  ALA263      0.2260
    177  O        142.9580   89.7820   22.1150 O.2   263  ALA263     -0.2867
    178  CB       144.6480   92.4690   22.7980 C.3   263  ALA263      0.0290
    179  N        142.1880   88.4480   19.1490 N.3   266  GLY266     -0.1210
    180  CA       143.0950   87.3280   19.3230 C.3   266  GLY266      0.1956
    181  C        142.6750   86.3770   20.4230 C.2   266  GLY266      0.2611
    182  O        142.7300   85.1590   20.2470 O.2   266  GLY266     -0.2717
    183  N        142.2320   86.9080   21.5610 N.am  267  HIS267     -0.1975
    184  CA       141.8840   86.0420   22.6880 C.3   267  HIS267      0.1656
    185  C        140.5090   85.3920   22.5220 C.2   267  HIS267      0.2291
    186  O        140.2970   84.2820   23.0110 O.2   267  HIS267     -0.2864
    187  CB       141.9530   86.8190   23.9930 C.3   267  HIS267      0.0771
    188  CG       143.3580   87.1090   24.4170 C.ar  267  HIS267      0.0820
    189  ND1      144.1070   88.1190   23.8580 N.ar  267  HIS267     -0.2267
    190  CD2      144.1800   86.4670   25.2820 C.ar  267  HIS267      0.1154
    191  CE1      145.3210   88.1110   24.3870 C.ar  267  HIS267      0.1986
    192  NE2      145.3940   87.1060   25.2350 N.ar  267  HIS267     -0.2212
    193  N        141.3330   82.4980   19.9400 N.3   270  MET270     -0.1245
    194  CA       142.1500   81.4330   20.5320 C.3   270  MET270      0.1570
    195  C        141.3270   80.6860   21.5920 C.2   270  MET270      0.2261
    196  O        141.4900   79.5200   21.8170 O.2   270  MET270     -0.2867
    197  CB       143.4930   81.9060   21.1720 C.3   270  MET270      0.0387
    198  CG       144.5190   82.4420   20.2100 C.3   270  MET270      0.0595
    199  SD       145.2340   81.1150   19.2680 S.3   270  MET270     -0.1393
    200  CE       146.8910   81.6700   19.0470 C.3   270  MET270      0.0692
    201  N        140.6120   76.6790   21.7150 N.3   274  PHE274     -0.1241
    202  CA       140.9510   75.7780   22.8200 C.3   274  PHE274      0.1605
    203  C        139.7060   75.1000   23.3940 C.2   274  PHE274      0.2264
    204  O        139.7870   73.9650   23.8640 O.2   274  PHE274     -0.2867
    205  CB       141.6980   76.5210   23.9270 C.3   274  PHE274      0.0534
    206  CG       143.1860   76.6180   23.7030 C.ar  274  PHE274     -0.0203
    207  CD1      144.0010   75.5580   24.0340 C.ar  274  PHE274     -0.0042
    208  CD2      143.7610   77.7600   23.1550 C.ar  274  PHE274     -0.0042
    209  CE1      145.3690   75.6260   23.8200 C.ar  274  PHE274     -0.0003
    210  CE2      145.1190   77.8200   22.9370 C.ar  274  PHE274     -0.0003
    211  CZ       145.9240   76.7530   23.2780 C.ar  274  PHE274     -0.0000
@<TRIPOS>BOND
     1    40    34    1
     2    40    39    1
     3    34    35    1
     4    39    38    1
     5    35    38    1
     6    35    36    1
     7    36    37    1
     8    31    32    1
     9    31    30    1
    10    32    33    1
    11    29    28    2
    12    48    47    1
    13   200   199    1
    14    27    30    1
    15    27    28    1
    16    27    26    1
    17   179   180    1
    18   199   198    1
    19   180   181    1
    20    41    42    1
    21   193   194    1
    22   198   197    1
    23   182   181    2
    24   181   183   am
    25   174   175    1
    26    46    47    1
    27    46    45    1
    28   194   197    1
    29   194   195    1
    30    55    57   ar
    31    55    54   ar
    32    57    59   ar
    33    45    42    1
    34    42    43    1
    35    49    43   am
    36    49    50    1
    37    53    54    1
    38    53    50    1
    39   175   176    1
    40   175   178    1
    41    54    56   ar
    42   183   184    1
    43   195   196    2
    44    59    58   ar
    45   201   202    1
    46   176   177    2
    47    43    44    2
    48    50    51    1
    49    19    20    1
    50   185   184    1
    51   185   186    2
    52    56    58   ar
    53    51    52    2
    54   184   187    1
    55    22    21    2
    56     8    10   ar
    57     8     6   ar
    58   202   203    1
    59   202   205    1
    60   210   208   ar
    61   210   211   ar
    62     2     1    1
    63     2     5    1
    64     2     3    1
    65   169   168    2
    66    20    21    1
    67    20    23    1
    68   208   206   ar
    69   211   209   ar
    70     4     3    2
    71   203   204    2
    72    10     9   ar
    73     5     6    1
    74   206   205    1
    75   206   207   ar
    76     6     7   ar
    77     3    11   am
    78   209   207   ar
    79   189   191   ar
    80   189   188   ar
    81   172   171    1
    82   172   173    1
    83   187   188    1
    84   168   167    1
    85   191   192   ar
    86    25    23    1
    87   170   171    1
    88   170   167    1
    89   188   190   ar
    90    23    24    1
    91    14    13    2
    92   126   128   ar
    93   126   124   ar
    94     9     7   ar
    95   128   127   ar
    96    13    12    1
    97   167   166    1
    98    11    12    1
    99   124   123   ar
   100   192   190   ar
   101   127   125   ar
   102    60    61    1
   103    12    15    1
   104   123   125   ar
   105   123   122    1
   106   142   143    1
   107   142   141    1
   108   122   119    1
   109   166   157   am
   110   158   157    2
   111    65    64    1
   112    65    66    1
   113    64    61    1
   114    61    62    1
   115   157   156    1
   116    15    16    1
   117   107   105    1
   118   163   161   ar
   119   163   165   ar
   120   140   141    1
   121   140   137    1
   122    62    63    2
   123   121   120    2
   124   161   160   ar
   125   120   119    1
   126   119   118    1
   127   147   146    2
   128   165   164   ar
   129   139   138    2
   130    66    67    1
   131    16    18    1
   132    16    17    1
   133   138   137    1
   134   105   104    1
   135   105   106    1
   136    67    68    2
   137   134   133    1
   138   156   155    1
   139   156   159    1
   140   137   136    1
   141   103   102    2
   142   160   159    1
   143   160   162   ar
   144   102   101    1
   145   131   132    2
   146   131   130    1
   147   104   101    1
   148   118   110   am
   149   164   162   ar
   150   146   145    1
   151   148   149    1
   152   148   145    1
   153    71    72    1
   154   150   149   ar
   155   150   152   ar
   156   133   130    1
   157   133   135    1
   158    68    69    1
   159    68    70    1
   160   149   151   ar
   161   101   100    1
   162   145   144    1
   163   152   154   ar
   164   130   129    1
   165   110   111    2
   166   110   109    1
   167    75    72    1
   168    75    76    1
   169    72    73    1
   170   151   153   ar
   171   154   153   ar
   172    78    77    2
   173   108   109    1
   174   109   112    1
   175    73    74    2
   176    77    76    1
   177    77    79   am
   178   112   113    1
   179   113   115   ar
   180   113   114   ar
   181   115   117   ar
   182   114   116   ar
   183   117   116   ar
   184    88    86   am
   185    99    97   ar
   186    99    98   ar
   187    86    87    2
   188    86    85    1
   189    97    95   ar
   190    98    96   ar
   191    85    84    1
   192    95    94   ar
   193    96    94   ar
   194    84    81    1
   195    94    93    1
   196    81    80    1
   197    81    82    1
   198    93    90    1
   199    83    82    2
   200    90    89    1
   201    90    91    1
   202    92    91    2
