@<TRIPOS>MOLECULE
tmp/5v8kA19.pdb
 180 177 0 0 0
SMALL
GASTEIGER

@<TRIPOS>ATOM
      1  N        136.4450   60.5880   41.5170 N.3   192  ARG192     -0.1231
      2  CA       136.1930   61.3920   40.3300 C.3   192  ARG192      0.1694
      3  C        137.4220   62.1860   39.8920 C.2   192  ARG192      0.2592
      4  O        137.3480   62.8890   38.8680 O.2   192  ARG192     -0.2718
      5  CB       135.0020   62.3470   40.5080 C.3   192  ARG192      0.0321
      6  CG       133.7310   61.8290   39.8490 C.3   192  ARG192      0.0489
      7  CD       132.5570   62.7830   40.0110 C.3   192  ARG192      0.2205
      8  NE       131.6630   62.3600   41.0830 N.pl3 192  ARG192     -0.0865
      9  CZ       130.5240   62.9690   41.3950 C.cat 192  ARG192      0.5346
     10  NH1      130.1340   64.0410   40.7160 N.pl3 192  ARG192      0.1354
     11  NH2      129.7730   62.5020   42.3860 N.pl3 192  ARG192      0.1354
     12  N        138.5540   62.0920   40.6170 N.am  193  PHE193     -0.1976
     13  CA       139.8110   62.7350   40.2250 C.3   193  PHE193      0.1639
     14  C        140.9680   61.7620   40.0680 C.2   193  PHE193      0.2290
     15  O        141.9260   62.0880   39.3580 O.2   193  PHE193     -0.2864
     16  CB       140.2310   63.8180   41.2410 C.3   193  PHE193      0.0560
     17  CG       139.3820   65.0510   41.1880 C.ar  193  PHE193     -0.0200
     18  CD1      138.1740   65.1040   41.8690 C.ar  193  PHE193     -0.0042
     19  CD2      139.7690   66.1430   40.4430 C.ar  193  PHE193     -0.0042
     20  CE1      137.3770   66.2210   41.8050 C.ar  193  PHE193     -0.0003
     21  CE2      138.9750   67.2660   40.3800 C.ar  193  PHE193     -0.0003
     22  CZ       137.7760   67.3020   41.0630 C.ar  193  PHE193     -0.0000
     23  N        141.2110   59.1160   38.3660 N.3   195  PHE195     -0.1227
     24  CA       141.3820   58.6200   37.0070 C.3   195  PHE195      0.1736
     25  C        142.2840   59.5180   36.1750 C.2   195  PHE195      0.2595
     26  O        142.8720   59.0490   35.1980 O.2   195  PHE195     -0.2718
     27  CB       140.0250   58.4530   36.3190 C.3   195  PHE195      0.0547
     28  CG       139.4270   59.7450   35.7960 C.ar  195  PHE195     -0.0202
     29  CD1      138.6900   60.5830   36.6330 C.ar  195  PHE195     -0.0042
     30  CD2      139.5790   60.1080   34.4650 C.ar  195  PHE195     -0.0042
     31  CE1      138.1440   61.7600   36.1510 C.ar  195  PHE195     -0.0003
     32  CE2      139.0340   61.2830   33.9800 C.ar  195  PHE195     -0.0003
     33  CZ       138.3240   62.1100   34.8210 C.ar  195  PHE195     -0.0000
     34  N        142.4180   60.8010   36.5330 N.am  196  PHE196     -0.1976
     35  CA       143.2680   61.6890   35.7350 C.3   196  PHE196      0.1639
     36  C        144.7050   61.1770   35.6590 C.2   196  PHE196      0.2290
     37  O        145.3420   61.2800   34.6050 O.2   196  PHE196     -0.2864
     38  CB       143.2410   63.1200   36.2830 C.3   196  PHE196      0.0560
     39  CG       142.0090   63.8920   35.9030 C.ar  196  PHE196     -0.0200
     40  CD1      141.7610   64.2280   34.5760 C.ar  196  PHE196     -0.0042
     41  CD2      141.0940   64.2920   36.8750 C.ar  196  PHE196     -0.0042
     42  CE1      140.6270   64.9410   34.2290 C.ar  196  PHE196     -0.0003
     43  CE2      139.9520   65.0120   36.5260 C.ar  196  PHE196     -0.0003
     44  CZ       139.7180   65.3300   35.2080 C.ar  196  PHE196     -0.0000
     45  N        140.1690   73.0940   28.1090 N.3   209  GLN209     -0.1245
     46  CA       138.8280   73.6040   28.3560 C.3   209  GLN209      0.1566
     47  C        138.8480   74.7340   29.3780 C.2   209  GLN209      0.2260
     48  O        138.1930   75.7600   29.1930 O.2   209  GLN209     -0.2867
     49  CB       137.9210   72.4700   28.8280 C.3   209  GLN209      0.0367
     50  CG       137.7960   71.3090   27.8490 C.3   209  GLN209      0.0905
     51  CD       136.7960   70.3450   28.3130 C.2   209  GLN209      0.2608
     52  OE1      135.6720   70.7260   28.5300 O.2   209  GLN209     -0.2717
     53  NE2      137.1810   69.0810   28.5100 N.am  209  GLN209     -0.0878
     54  N        140.2100   77.8380   27.9030 N.3   212  ALA212     -0.1231
     55  CA       139.2240   78.5150   27.0650 C.3   212  ALA212      0.1694
     56  C        138.3530   79.4400   27.9000 C.2   212  ALA212      0.2592
     57  O        138.0500   80.5640   27.4960 O.2   212  ALA212     -0.2718
     58  CB       138.3550   77.4910   26.3320 C.3   212  ALA212      0.0304
     59  N        137.9480   78.9760   29.0760 N.am  213  PHE213     -0.1976
     60  CA       137.1670   79.8000   29.9800 C.3   213  PHE213      0.1639
     61  C        137.9720   80.9870   30.4980 C.2   213  PHE213      0.2290
     62  O        137.4260   82.0870   30.6470 O.2   213  PHE213     -0.2864
     63  CB       136.6470   78.9540   31.1310 C.3   213  PHE213      0.0560
     64  CG       135.8200   79.7240   32.0690 C.ar  213  PHE213     -0.0200
     65  CD1      134.4810   79.9790   31.8060 C.ar  213  PHE213     -0.0042
     66  CD2      136.3890   80.2530   33.1840 C.ar  213  PHE213     -0.0042
     67  CE1      133.7350   80.7330   32.6940 C.ar  213  PHE213     -0.0003
     68  CE2      135.6770   81.0170   34.0490 C.ar  213  PHE213     -0.0003
     69  CZ       134.3640   81.2740   33.8230 C.ar  213  PHE213     -0.0000
     70  N        137.8810   83.6080   27.8060 N.3   216  ALA216     -0.1245
     71  CA       136.6460   84.3810   27.8370 C.3   216  ALA216      0.1562
     72  C        136.6630   85.4110   28.9620 C.2   216  ALA216      0.2260
     73  O        136.2180   86.5490   28.7670 O.2   216  ALA216     -0.2867
     74  CB       135.4380   83.4510   27.9700 C.3   216  ALA216      0.0290
     75  N        140.5250   81.4200   22.3230 N.3   271  GLY271     -0.1210
     76  CA       139.6780   80.7900   23.3260 C.3   271  GLY271      0.1956
     77  C        138.6810   79.8230   22.7040 C.2   271  GLY271      0.2611
     78  O        138.5080   78.7030   23.1820 O.2   271  GLY271     -0.2717
     79  N        138.0580   80.2190   21.6010 N.am  272  ILE272     -0.1979
     80  CA       137.1270   79.3270   20.9150 C.3   272  ILE272      0.1595
     81  C        137.8670   78.0800   20.4530 C.2   272  ILE272      0.2287
     82  O        137.3560   76.9530   20.5320 O.2   272  ILE272     -0.2864
     83  CB       136.4710   80.0380   19.7230 C.3   272  ILE272      0.0276
     84  CG1      135.5250   81.1610   20.1950 C.3   272  ILE272      0.0022
     85  CG2      135.7400   79.0520   18.8230 C.3   272  ILE272      0.0022
     86  CD1      134.3690   80.7390   21.0170 C.3   272  ILE272      0.0001
     87  N        138.5590   75.7810   23.3810 N.3   275  TRP275     -0.1241
     88  CA       137.3160   75.1790   23.8470 C.3   275  TRP275      0.1605
     89  C        136.9640   73.9730   22.9860 C.2   275  TRP275      0.2264
     90  O        136.7090   72.8800   23.4880 O.2   275  TRP275     -0.2867
     91  CB       136.2000   76.2330   23.7920 C.3   275  TRP275      0.0550
     92  CG       134.8310   75.8470   24.2700 C.ar  275  TRP275      0.0003
     93  CD1      134.5040   75.0450   25.3290 C.ar  275  TRP275      0.0946
     94  CD2      133.5920   76.2840   23.6970 C.ar  275  TRP275      0.0152
     95  NE1      133.1210   74.9530   25.4440 N.ar  275  TRP275     -0.2442
     96  CE2      132.5470   75.7180   24.4530 C.ar  275  TRP275      0.0810
     97  CE3      133.2690   77.1010   22.6110 C.ar  275  TRP275      0.0012
     98  CZ2      131.1980   75.9470   24.1450 C.ar  275  TRP275      0.0191
     99  CZ3      131.9530   77.3160   22.3040 C.ar  275  TRP275      0.0001
    100  CH2      130.9240   76.7440   23.0720 C.ar  275  TRP275      0.0015
    101  N        137.2740   59.6740   25.8400 N.3   286  MET286     -0.1245
    102  CA       136.1150   58.8400   26.1490 C.3   286  MET286      0.1570
    103  C        135.9460   57.7370   25.1240 C.2   286  MET286      0.2261
    104  O        135.6210   56.5980   25.4700 O.2   286  MET286     -0.2867
    105  CB       134.8450   59.6840   26.2060 C.3   286  MET286      0.0387
    106  CG       134.8370   60.6510   27.3410 C.3   286  MET286      0.0595
    107  SD       133.7300   61.9890   26.9210 S.3   286  MET286     -0.1393
    108  CE       133.0270   62.2750   28.4870 C.3   286  MET286      0.0692
    109  N        131.2030   55.8760   35.9670 N.3   302  PHE302     -0.1227
    110  CA       130.8580   57.1350   35.3190 C.3   302  PHE302      0.1736
    111  C        129.6510   56.9390   34.4110 C.2   302  PHE302      0.2595
    112  O        129.5290   55.9240   33.7180 O.2   302  PHE302     -0.2718
    113  CB       132.0430   57.6910   34.5170 C.3   302  PHE302      0.0547
    114  CG       133.1600   58.2520   35.3800 C.ar  302  PHE302     -0.0202
    115  CD1      133.1220   59.5680   35.8270 C.ar  302  PHE302     -0.0042
    116  CD2      134.2410   57.4660   35.7440 C.ar  302  PHE302     -0.0042
    117  CE1      134.1360   60.0920   36.6150 C.ar  302  PHE302     -0.0003
    118  CE2      135.2590   57.9860   36.5390 C.ar  302  PHE302     -0.0003
    119  CZ       135.2010   59.3050   36.9690 C.ar  302  PHE302     -0.0000
    120  N        128.7570   57.9260   34.4200 N.am  303  LYS303     -0.1966
    121  CA       127.5220   57.8250   33.6650 C.3   303  LYS303      0.1728
    122  C        127.7200   57.9130   32.1520 C.2   303  LYS303      0.2616
    123  O        126.7930   57.5620   31.4110 O.2   303  LYS303     -0.2715
    124  CB       126.5580   58.9160   34.1360 C.3   303  LYS303      0.0311
    125  CG       126.3580   58.9200   35.6280 C.3   303  LYS303      0.0038
    126  CD       125.3600   57.8910   36.0520 C.3   303  LYS303      0.0206
    127  CE       125.0430   57.9110   37.5410 C.3   303  LYS303      0.1093
    128  NZ       126.1960   57.7530   38.4170 N.3   303  LYS303     -0.1314
    129  N        128.8870   58.3510   31.6550 N.am  304  PHE304     -0.1974
    130  CA       128.9770   58.5760   30.2120 C.3   304  PHE304      0.1639
    131  C        129.1030   57.2720   29.4430 C.2   304  PHE304      0.2290
    132  O        128.7330   57.2160   28.2670 O.2   304  PHE304     -0.2864
    133  CB       130.1520   59.4920   29.8490 C.3   304  PHE304      0.0560
    134  CG       131.5070   58.8400   29.9750 C.ar  304  PHE304     -0.0200
    135  CD1      132.0380   58.0820   28.9350 C.ar  304  PHE304     -0.0042
    136  CD2      132.2560   58.9960   31.1350 C.ar  304  PHE304     -0.0042
    137  CE1      133.2960   57.4800   29.0520 C.ar  304  PHE304     -0.0003
    138  CE2      133.5170   58.3930   31.2660 C.ar  304  PHE304     -0.0003
    139  CZ       134.0360   57.6330   30.2190 C.ar  304  PHE304     -0.0000
    140  N        125.5140   56.7410   28.8330 N.3   307  ARG307     -0.1245
    141  CA       124.8950   57.7390   27.9720 C.3   307  ARG307      0.1563
    142  C        125.3420   57.5820   26.5270 C.2   307  ARG307      0.2260
    143  O        124.5640   57.8510   25.6030 O.2   307  ARG307     -0.2867
    144  CB       125.2300   59.1450   28.4840 C.3   307  ARG307      0.0307
    145  CG       124.4920   59.5160   29.7290 C.3   307  ARG307      0.0489
    146  CD       125.1210   60.6950   30.4320 C.3   307  ARG307      0.2205
    147  NE       124.2550   61.1690   31.5010 N.pl3 307  ARG307     -0.0865
    148  CZ       124.5960   62.0800   32.4000 C.cat 307  ARG307      0.5346
    149  NH1      125.8050   62.6270   32.3710 N.pl3 307  ARG307      0.1354
    150  NH2      123.7250   62.4370   33.3350 N.pl3 307  ARG307      0.1354
    151  N        126.5890   80.2150   20.4690 N.3   389  LEU389     -0.1245
    152  CA       127.2370   79.2970   21.3930 C.3   389  LEU389      0.1561
    153  C        126.5260   77.9490   21.4550 C.2   389  LEU389      0.2260
    154  O        127.1720   76.8970   21.4420 O.2   389  LEU389     -0.2867
    155  CB       127.3190   79.9330   22.7870 C.3   389  LEU389      0.0270
    156  CG       128.4460   80.9520   22.9390 C.3   389  LEU389      0.0019
    157  CD1      128.2290   81.6890   24.2380 C.3   389  LEU389      0.0001
    158  CD2      129.8250   80.3020   22.9210 C.3   389  LEU389      0.0001
    159  N        127.6820   74.3020   20.0790 N.3   393  MET393     -0.1245
    160  CA       127.6630   73.1420   20.9660 C.3   393  MET393      0.1570
    161  C        126.9760   71.9150   20.3440 C.2   393  MET393      0.2261
    162  O        127.1510   70.8000   20.8700 O.2   393  MET393     -0.2867
    163  CB       126.9480   73.4710   22.2850 C.3   393  MET393      0.0387
    164  CG       127.7470   74.2860   23.3040 C.3   393  MET393      0.0595
    165  SD       127.0120   74.1740   24.9600 S.3   393  MET393     -0.1393
    166  CE       125.5210   75.1280   24.7070 C.3   393  MET393      0.0692
    167  N        128.5660   68.4310   21.3870 N.3   397  TRP397     -0.1241
    168  CA       127.9840   67.3660   22.1870 C.3   397  TRP397      0.1605
    169  C        127.8100   66.0800   21.3840 C.2   397  TRP397      0.2264
    170  O        127.7990   64.9950   21.9730 O.2   397  TRP397     -0.2867
    171  CB       126.6700   67.8040   22.8220 C.3   397  TRP397      0.0550
    172  CG       126.9050   68.7730   23.9480 C.ar  397  TRP397      0.0003
    173  CD1      126.6130   70.1080   23.9500 C.ar  397  TRP397      0.0946
    174  CD2      127.4870   68.4920   25.2330 C.ar  397  TRP397      0.0152
    175  NE1      126.9520   70.6660   25.1450 N.ar  397  TRP397     -0.2442
    176  CE2      127.4840   69.7010   25.9620 C.ar  397  TRP397      0.0810
    177  CE3      127.9980   67.3420   25.8430 C.ar  397  TRP397      0.0012
    178  CZ2      128.0140   69.8060   27.2570 C.ar  397  TRP397      0.0191
    179  CZ3      128.4970   67.4420   27.1580 C.ar  397  TRP397      0.0001
    180  CH2      128.5040   68.6740   27.8380 C.ar  397  TRP397      0.0015
@<TRIPOS>BOND
     1    85    83    1
     2    83    84    1
     3    83    80    1
     4   159   160    1
     5    84    86    1
     6   161   162    2
     7   161   160    1
     8    81    82    2
     9    81    80    1
    10   151   152    1
    11    80    79    1
    12   160   163    1
    13   169   170    2
    14   169   168    1
    15   167   168    1
    16   152   153    1
    17   152   155    1
    18   154   153    2
    19    79    77   am
    20   168   171    1
    21   163   164    1
    22    99    97   ar
    23    99   100   ar
    24    75    76    1
    25    97    94   ar
    26    77    78    2
    27    77    76    1
    28   155   156    1
    29   171   172    1
    30   158   156    1
    31   156   157    1
    32    89    90    2
    33    89    88    1
    34   100    98   ar
    35   164   165    1
    36    87    88    1
    37    94    92   ar
    38    94    96   ar
    39    91    88    1
    40    91    92    1
    41   172   173   ar
    42   172   174   ar
    43   173   175   ar
    44    98    96   ar
    45    92    93   ar
    46    96    95   ar
    47   166   165    1
    48   103   104    2
    49   103   102    1
    50   175   176   ar
    51   174   177   ar
    52   174   176   ar
    53    93    95   ar
    54   143   142    2
    55   101   102    1
    56   177   179   ar
    57   176   178   ar
    58   102   105    1
    59   105   106    1
    60    58    55    1
    61   142   141    1
    62   107   106    1
    63   107   108    1
    64    55    56    1
    65    55    54    1
    66   179   180   ar
    67   178   180   ar
    68    57    56    2
    69    70    71    1
    70    71    74    1
    71    71    72    1
    72    50    51    1
    73    50    49    1
    74    56    59   am
    75   141   144    1
    76   141   140    1
    77    45    46    1
    78   132   131    2
    79    51    53   am
    80    51    52    2
    81    46    49    1
    82    46    47    1
    83   144   145    1
    84    73    72    2
    85   135   137   ar
    86   135   134   ar
    87   137   139   ar
    88    59    60    1
    89    48    47    2
    90   131   130    1
    91   145   146    1
    92   133   134    1
    93   133   130    1
    94   134   136   ar
    95    60    61    1
    96    60    63    1
    97   130   129    1
    98   139   138   ar
    99   146   147    1
   100    61    62    2
   101    63    64    1
   102   136   138   ar
   103   123   122    2
   104   147   148    2
   105   129   122   am
   106    65    64   ar
   107    65    67   ar
   108    64    66   ar
   109   122   121    1
   110   149   148    1
   111   148   150    1
   112    67    69   ar
   113    66    68   ar
   114   121   124    1
   115   121   120    1
   116   112   111    2
   117    69    68   ar
   118    32    30   ar
   119    32    33   ar
   120   124   125    1
   121    42    40   ar
   122    42    44   ar
   123   111   120   am
   124   111   110    1
   125    30    28   ar
   126   113   110    1
   127   113   114    1
   128    40    39   ar
   129    37    36    2
   130    33    31   ar
   131    26    25    2
   132    44    43   ar
   133   110   109    1
   134   114   116   ar
   135   114   115   ar
   136   125   126    1
   137    36    35    1
   138    35    38    1
   139    35    34    1
   140   116   118   ar
   141    28    27    1
   142    28    29   ar
   143   115   117   ar
   144    39    38    1
   145    39    41   ar
   146   126   127    1
   147    31    29   ar
   148    25    34   am
   149    25    24    1
   150    27    24    1
   151    43    41   ar
   152   118   119   ar
   153   117   119   ar
   154    24    23    1
   155   127   128    1
   156     4     3    2
   157    15    14    2
   158     6     7    1
   159     6     5    1
   160     3     2    1
   161     3    12   am
   162     7     8    1
   163    14    13    1
   164    13    12    1
   165    13    16    1
   166     2     5    1
   167     2     1    1
   168    21    19   ar
   169    21    22   ar
   170    19    17   ar
   171    10     9    1
   172    22    20   ar
   173     8     9    2
   174    17    16    1
   175    17    18   ar
   176     9    11    1
   177    20    18   ar
