@<TRIPOS>MOLECULE
tmp/5v8kA05.pdb
 108 106 0 0 0
SMALL
GASTEIGER

@<TRIPOS>ATOM
      1  N        151.7360   68.7310   39.1160 N.3   117  LEU117     -0.1245
      2  CA       150.8130   69.8320   39.3690 C.3   117  LEU117      0.1561
      3  C        151.1750   70.5510   40.6610 C.2   117  LEU117      0.2260
      4  O        151.0670   71.7840   40.7370 O.2   117  LEU117     -0.2867
      5  CB       149.3710   69.3340   39.3920 C.3   117  LEU117      0.0270
      6  CG       148.3260   70.4330   39.6000 C.3   117  LEU117      0.0019
      7  CD1      148.4760   71.5710   38.5920 C.3   117  LEU117      0.0001
      8  CD2      146.9560   69.8590   39.4970 C.3   117  LEU117      0.0001
      9  N        152.0300   74.5650   40.9430 N.3   121  PHE121     -0.1241
     10  CA       151.5120   75.4880   41.9500 C.3   121  PHE121      0.1605
     11  C        152.6120   76.3630   42.5520 C.2   121  PHE121      0.2264
     12  O        152.4020   77.5630   42.7760 O.2   121  PHE121     -0.2867
     13  CB       150.8150   74.7120   43.0830 C.3   121  PHE121      0.0534
     14  CG       149.4860   74.0980   42.7050 C.ar  121  PHE121     -0.0203
     15  CD1      148.7440   74.6010   41.6530 C.ar  121  PHE121     -0.0042
     16  CD2      148.9700   73.0300   43.4320 C.ar  121  PHE121     -0.0042
     17  CE1      147.4980   74.0360   41.3060 C.ar  121  PHE121     -0.0003
     18  CE2      147.7420   72.4570   43.0920 C.ar  121  PHE121     -0.0003
     19  CZ       147.0060   72.9630   42.0240 C.ar  121  PHE121     -0.0000
     20  N        148.8420   82.2420   48.3100 N.3   175  VAL175     -0.1231
     21  CA       147.7460   81.2820   48.1750 C.3   175  VAL175      0.1692
     22  C        148.2230   80.0150   47.4690 C.2   175  VAL175      0.2592
     23  O        147.9810   78.8980   47.9420 O.2   175  VAL175     -0.2718
     24  CB       146.5500   81.9350   47.4550 C.3   175  VAL175      0.0266
     25  CG1      145.5460   80.8850   46.9490 C.3   175  VAL175      0.0020
     26  CG2      145.8650   82.9030   48.4170 C.3   175  VAL175      0.0020
     27  N        148.9080   80.1660   46.3260 N.am  176  PHE176     -0.1976
     28  CA       149.4180   78.9950   45.6150 C.3   176  PHE176      0.1639
     29  C        150.5490   78.3020   46.3680 C.2   176  PHE176      0.2290
     30  O        150.7960   77.1110   46.1450 O.2   176  PHE176     -0.2864
     31  CB       149.9010   79.3840   44.2260 C.3   176  PHE176      0.0560
     32  CG       148.8120   79.4340   43.2020 C.ar  176  PHE176     -0.0200
     33  CD1      148.1910   78.2680   42.7730 C.ar  176  PHE176     -0.0042
     34  CD2      148.3990   80.6380   42.6730 C.ar  176  PHE176     -0.0042
     35  CE1      147.1680   78.3050   41.8210 C.ar  176  PHE176     -0.0003
     36  CE2      147.3740   80.6880   41.7040 C.ar  176  PHE176     -0.0003
     37  CZ       146.7740   79.5290   41.2810 C.ar  176  PHE176     -0.0000
     38  N        150.5420   77.9480   49.8080 N.3   178  LEU178     -0.1231
     39  CA       149.8010   77.0980   50.7360 C.3   178  LEU178      0.1693
     40  C        149.0760   75.9750   50.0050 C.2   178  LEU178      0.2592
     41  O        148.9740   74.8530   50.5200 O.2   178  LEU178     -0.2718
     42  CB       148.8050   77.9380   51.5310 C.3   178  LEU178      0.0284
     43  CG       149.3980   79.0840   52.3500 C.3   178  LEU178      0.0019
     44  CD1      148.2750   79.8200   53.0830 C.3   178  LEU178      0.0001
     45  CD2      150.4700   78.5940   53.3400 C.3   178  LEU178      0.0001
     46  N        148.5250   76.2640   48.8260 N.am  179  GLY179     -0.1957
     47  CA       147.7900   75.2400   48.1030 C.3   179  GLY179      0.1869
     48  C        148.7050   74.1520   47.5810 C.2   179  GLY179      0.2309
     49  O        148.3370   72.9780   47.5530 O.2   179  GLY179     -0.2863
     50  N        149.5810   72.0300   50.6450 N.3   182  PHE182     -0.1227
     51  CA       148.4510   71.1950   51.0220 C.3   182  PHE182      0.1736
     52  C        148.3550   69.9750   50.1190 C.2   182  PHE182      0.2595
     53  O        148.2420   68.8420   50.5980 O.2   182  PHE182     -0.2718
     54  CB       147.1520   71.9890   50.9690 C.3   182  PHE182      0.0547
     55  CG       145.9310   71.1200   51.0640 C.ar  182  PHE182     -0.0202
     56  CD1      145.4090   70.7510   52.2990 C.ar  182  PHE182     -0.0042
     57  CD2      145.3350   70.6350   49.9200 C.ar  182  PHE182     -0.0042
     58  CE1      144.3140   69.9410   52.3800 C.ar  182  PHE182     -0.0003
     59  CE2      144.2250   69.8250   49.9900 C.ar  182  PHE182     -0.0003
     60  CZ       143.7120   69.4720   51.2160 C.ar  182  PHE182     -0.0000
     61  N        148.4000   70.1850   48.8030 N.am  183  HIS183     -0.1975
     62  CA       148.3080   69.0590   47.8820 C.3   183  HIS183      0.1656
     63  C        149.5650   68.2100   47.8360 C.2   183  HIS183      0.2291
     64  O        149.4980   67.0560   47.4000 O.2   183  HIS183     -0.2864
     65  CB       148.0180   69.5360   46.4770 C.3   183  HIS183      0.0771
     66  CG       146.5630   69.7230   46.2160 C.ar  183  HIS183      0.0820
     67  ND1      145.6480   68.7020   46.3410 N.ar  183  HIS183     -0.2267
     68  CD2      145.8630   70.8190   45.8540 C.ar  183  HIS183      0.1154
     69  CE1      144.4420   69.1600   46.0650 C.ar  183  HIS183      0.1986
     70  NE2      144.5480   70.4400   45.7630 N.ar  183  HIS183     -0.2212
     71  N        148.3500   65.8510   50.5710 N.3   186  ALA186     -0.1231
     72  CA       147.0480   65.2140   50.4330 C.3   186  ALA186      0.1694
     73  C        146.8170   64.5980   49.0630 C.2   186  ALA186      0.2593
     74  O        145.9820   63.7000   48.9420 O.2   186  ALA186     -0.2718
     75  CB       145.9350   66.2280   50.7270 C.3   186  ALA186      0.0304
     76  N        147.5240   65.0350   48.0450 N.am  187  GLY187     -0.1942
     77  CA       147.3600   64.4300   46.7480 C.3   187  GLY187      0.2014
     78  C        146.0690   64.8850   46.0820 C.2   187  GLY187      0.2638
     79  O        145.4040   65.8290   46.5120 O.2   187  GLY187     -0.2714
     80  N        145.7310   64.1800   44.9970 N.am  188  PHE188     -0.1973
     81  CA       144.5150   64.4120   44.2230 C.3   188  PHE188      0.1639
     82  C        143.7040   63.1270   44.1130 C.2   188  PHE188      0.2290
     83  O        142.9670   62.9300   43.1450 O.2   188  PHE188     -0.2864
     84  CB       144.8440   64.9510   42.8270 C.3   188  PHE188      0.0560
     85  CG       145.6990   66.1910   42.8420 C.ar  188  PHE188     -0.0200
     86  CD1      145.1210   67.4460   42.9210 C.ar  188  PHE188     -0.0042
     87  CD2      147.0840   66.0990   42.8020 C.ar  188  PHE188     -0.0042
     88  CE1      145.9100   68.5780   42.9590 C.ar  188  PHE188     -0.0003
     89  CE2      147.8720   67.2290   42.8300 C.ar  188  PHE188     -0.0003
     90  CZ       147.2930   68.4620   42.9120 C.ar  188  PHE188     -0.0000
     91  N        141.1580   61.9780   45.5630 N.3   190  THR190     -0.1218
     92  CA       139.7010   61.9600   45.7680 C.3   190  THR190      0.1862
     93  C        139.0160   61.3130   44.5860 C.2   190  THR190      0.2287
     94  O        139.5140   61.3670   43.4880 O.2   190  THR190     -0.2866
     95  CB       139.0570   63.3530   46.0060 C.3   190  THR190      0.1770
     96  OG1      139.6890   63.9810   47.1270 O.3   190  THR190     -0.2211
     97  CG2      137.5490   63.2170   46.2040 C.3   190  THR190      0.0375
     98  N        138.5540   62.0920   40.6170 N.3   193  PHE193     -0.1241
     99  CA       139.8110   62.7350   40.2250 C.3   193  PHE193      0.1605
    100  C        140.9680   61.7620   40.0680 C.2   193  PHE193      0.2264
    101  O        141.9260   62.0880   39.3580 O.2   193  PHE193     -0.2867
    102  CB       140.2310   63.8180   41.2410 C.3   193  PHE193      0.0534
    103  CG       139.3820   65.0510   41.1880 C.ar  193  PHE193     -0.0203
    104  CD1      138.1740   65.1040   41.8690 C.ar  193  PHE193     -0.0042
    105  CD2      139.7690   66.1430   40.4430 C.ar  193  PHE193     -0.0042
    106  CE1      137.3770   66.2210   41.8050 C.ar  193  PHE193     -0.0003
    107  CE2      138.9750   67.2660   40.3800 C.ar  193  PHE193     -0.0003
    108  CZ       137.7760   67.3020   41.0630 C.ar  193  PHE193     -0.0000
@<TRIPOS>BOND
     1     7     6    1
     2     1     2    1
     3   101   100    2
     4     2     5    1
     5     2     3    1
     6     5     6    1
     7     8     6    1
     8   100    99    1
     9    99    98    1
    10    99   102    1
    11   107   105   ar
    12   107   108   ar
    13   105   103   ar
    14     3     4    2
    15     9    10    1
    16   108   106   ar
    17   103   102    1
    18   103   104   ar
    19    37    36   ar
    20    37    35   ar
    21    17    15   ar
    22    17    19   ar
    23    15    14   ar
    24    36    34   ar
    25   106   104   ar
    26    35    33   ar
    27    10    11    1
    28    10    13    1
    29    19    18   ar
    30    11    12    2
    31    34    32   ar
    32    14    13    1
    33    14    16   ar
    34    33    32   ar
    35    87    89   ar
    36    87    85   ar
    37    84    85    1
    38    84    81    1
    39    89    90   ar
    40    85    86   ar
    41    90    88   ar
    42    86    88   ar
    43    18    16   ar
    44    83    82    2
    45    32    31    1
    46    94    93    2
    47    82    81    1
    48    81    80    1
    49    31    28    1
    50    93    92    1
    51    80    78   am
    52    91    92    1
    53    28    27    1
    54    28    29    1
    55    70    68   ar
    56    70    69   ar
    57    92    95    1
    58    68    66   ar
    59    95    97    1
    60    95    96    1
    61    69    67   ar
    62    78    79    2
    63    78    77    1
    64    30    29    2
    65    66    67   ar
    66    66    65    1
    67    27    22   am
    68    65    62    1
    69    77    76    1
    70    25    24    1
    71    64    63    2
    72    24    21    1
    73    24    26    1
    74    22    23    2
    75    22    21    1
    76    49    48    2
    77    48    47    1
    78    63    62    1
    79    62    61    1
    80    76    73   am
    81    47    46    1
    82    21    20    1
    83    61    52   am
    84    46    40   am
    85    74    73    2
    86    73    72    1
    87    38    39    1
    88    57    59   ar
    89    57    55   ar
    90    59    60   ar
    91    40    41    2
    92    40    39    1
    93    52    53    2
    94    52    51    1
    95    72    71    1
    96    72    75    1
    97    50    51    1
    98    39    42    1
    99    54    51    1
   100    54    55    1
   101    55    56   ar
   102    60    58   ar
   103    42    43    1
   104    56    58   ar
   105    43    44    1
   106    43    45    1
