@<TRIPOS>MOLECULE
tmp/5v8kA10.pdb
 231 229 0 0 0
SMALL
GASTEIGER

@<TRIPOS>ATOM
      1  N        147.5640   55.8340   20.8440 N.3     5  GLN5       -0.1231
      2  CA       146.3820   56.5360   21.3110 C.3     5  GLN5        0.1698
      3  C        146.0830   57.7670   20.4820 C.2     5  GLN5        0.2592
      4  O        145.3140   58.6170   20.9200 O.2     5  GLN5       -0.2718
      5  CB       146.5390   56.9120   22.7820 C.3     5  GLN5        0.0381
      6  CG       146.9670   55.7350   23.6650 C.3     5  GLN5        0.0905
      7  CD       147.4020   56.1820   25.0360 C.2     5  GLN5        0.2608
      8  OE1      148.1420   57.1530   25.1810 O.2     5  GLN5       -0.2717
      9  NE2      146.9470   55.4900   26.0450 N.am    5  GLN5       -0.0878
     10  N        146.6880   57.8850   19.3050 N.am    6  VAL6       -0.1966
     11  CA       146.4490   58.9960   18.4010 C.3     6  VAL6        0.1727
     12  C        145.9830   58.4440   17.0640 C.2     6  VAL6        0.2616
     13  O        146.1550   57.2700   16.7480 O.2     6  VAL6       -0.2715
     14  CB       147.7010   59.8720   18.2010 C.3     6  VAL6        0.0290
     15  CG1      148.1630   60.4430   19.5020 C.3     6  VAL6        0.0023
     16  CG2      148.8110   59.0730   17.5480 C.3     6  VAL6        0.0023
     17  N        145.4250   59.3300   16.2530 N.am    7  PHE7       -0.1974
     18  CA       145.0390   58.9440   14.9080 C.3     7  PHE7        0.1639
     19  C        146.2560   58.5310   14.0880 C.2     7  PHE7        0.2290
     20  O        147.3800   58.9960   14.3090 O.2     7  PHE7       -0.2864
     21  CB       144.3000   60.0940   14.2180 C.3     7  PHE7        0.0560
     22  CG       142.9690   60.4230   14.8280 C.ar    7  PHE7       -0.0200
     23  CD1      142.1850   59.4390   15.4120 C.ar    7  PHE7       -0.0042
     24  CD2      142.4680   61.7090   14.7560 C.ar    7  PHE7       -0.0042
     25  CE1      140.9540   59.7360   15.9600 C.ar    7  PHE7       -0.0003
     26  CE2      141.2350   62.0220   15.2930 C.ar    7  PHE7       -0.0003
     27  CZ       140.4710   61.0380   15.8940 C.ar    7  PHE7       -0.0000
     28  N        149.3450   60.5260   12.9590 N.3    10  PHE10      -0.1241
     29  CA       150.1840   61.1380   13.9710 C.3    10  PHE10       0.1605
     30  C        150.9840   60.1190   14.7970 C.2    10  PHE10       0.2264
     31  O        151.7460   60.5220   15.6700 O.2    10  PHE10      -0.2867
     32  CB       149.3160   61.9830   14.9000 C.3    10  PHE10       0.0534
     33  CG       148.6590   63.1660   14.2250 C.ar   10  PHE10      -0.0203
     34  CD1      149.3390   64.3630   14.0870 C.ar   10  PHE10      -0.0042
     35  CD2      147.3570   63.0860   13.7480 C.ar   10  PHE10      -0.0042
     36  CE1      148.7290   65.4550   13.4840 C.ar   10  PHE10      -0.0003
     37  CE2      146.7560   64.1680   13.1500 C.ar   10  PHE10      -0.0003
     38  CZ       147.4490   65.3490   13.0120 C.ar   10  PHE10      -0.0000
     39  N        154.5580   60.8240   14.5780 N.3    13  LYS13      -0.1231
     40  CA       154.9230   62.2140   14.8190 C.3    13  LYS13       0.1693
     41  C        154.7060   62.6750   16.2460 C.2    13  LYS13       0.2592
     42  O        155.2030   63.7390   16.6040 O.2    13  LYS13      -0.2718
     43  CB       154.1170   63.1560   13.9060 C.3    13  LYS13       0.0285
     44  CG       154.1740   62.7910   12.4360 C.3    13  LYS13       0.0035
     45  CD       153.7830   63.9740   11.5570 C.3    13  LYS13       0.0206
     46  CE       152.5260   63.7560   10.8770 C.3    13  LYS13       0.1093
     47  NZ       152.6060   62.5700    9.9960 N.3    13  LYS13      -0.1314
     48  N        153.9470   61.9440   17.0510 N.am   14  VAL14      -0.1966
     49  CA       153.6400   62.3700   18.4160 C.3    14  VAL14       0.1712
     50  C        154.8250   62.0310   19.3180 C.2    14  VAL14       0.2458
     51  O        155.3870   60.9380   19.1920 O.2    14  VAL14      -0.2730
     52  CB       152.3420   61.7160   18.9120 C.3    14  VAL14       0.0289
     53  CG1      152.4780   60.2130   19.0340 C.3    14  VAL14       0.0023
     54  CG2      151.9170   62.2980   20.2470 C.3    14  VAL14       0.0023
     55  N        155.2510   62.9230   20.2260 N.am   15  PRO15      -0.2727
     56  CA       156.2600   62.5240   21.2210 C.3    15  PRO15       0.1402
     57  C        155.8600   61.2470   21.9410 C.2    15  PRO15       0.2269
     58  O        154.8040   61.2020   22.5770 O.2    15  PRO15      -0.2865
     59  CB       156.3130   63.7240   22.1730 C.3    15  PRO15       0.0296
     60  CG       155.8480   64.8910   21.3370 C.3    15  PRO15       0.0237
     61  CD       154.8620   64.3380   20.3630 C.3    15  PRO15       0.0939
     62  N        159.6640   68.2970   24.0440 N.3    24  ALA24      -0.1231
     63  CA       158.7310   69.1010   23.2690 C.3    24  ALA24       0.1694
     64  C        158.2880   70.3190   24.0610 C.2    24  ALA24       0.2592
     65  O        158.1930   71.4170   23.5080 O.2    24  ALA24      -0.2718
     66  CB       157.5340   68.2530   22.8490 C.3    24  ALA24       0.0304
     67  N        158.0410   70.1500   25.3640 N.am   25  HIS25      -0.1976
     68  CA       157.6630   71.2830   26.1970 C.3    25  HIS25       0.1656
     69  C        158.7820   72.3160   26.2740 C.2    25  HIS25       0.2291
     70  O        158.5290   73.5180   26.1870 O.2    25  HIS25      -0.2864
     71  CB       157.2980   70.8020   27.5940 C.3    25  HIS25       0.0771
     72  CG       155.9970   70.0770   27.6700 C.ar   25  HIS25       0.0820
     73  ND1      155.4810   69.6230   28.8640 N.ar   25  HIS25      -0.2267
     74  CD2      155.1030   69.7220   26.7120 C.ar   25  HIS25       0.1154
     75  CE1      154.3290   69.0170   28.6410 C.ar   25  HIS25       0.1986
     76  NE2      154.0910   69.0480   27.3450 N.ar   25  HIS25      -0.2212
     77  N        160.0960   78.4280   21.5960 N.3    31  ASN31      -0.1240
     78  CA       159.2780   79.1330   20.6170 C.3    31  ASN31       0.1653
     79  C        158.7060   80.4170   21.2040 C.2    31  ASN31       0.2266
     80  O        158.6360   81.4490   20.5280 O.2    31  ASN31      -0.2867
     81  CB       158.1400   78.2320   20.1420 C.3    31  ASN31       0.1155
     82  CG       158.5960   77.1560   19.1870 C.2    31  ASN31       0.2627
     83  OD1      159.7860   76.9420   18.9520 O.2    31  ASN31      -0.2716
     84  ND2      157.6210   76.4770   18.6050 N.am   31  ASN31      -0.0877
     85  N        166.1090   75.7130   23.0490 N.3    94  TRP94      -0.1241
     86  CA       166.1230   74.8040   21.9050 C.3    94  TRP94       0.1605
     87  C        167.3550   73.9020   21.9310 C.2    94  TRP94       0.2264
     88  O        167.3060   72.7600   21.4540 O.2    94  TRP94      -0.2867
     89  CB       166.1080   75.5790   20.5950 C.3    94  TRP94       0.0550
     90  CG       164.8130   76.1890   20.1700 C.ar   94  TRP94       0.0003
     91  CD1      163.5390   75.7320   20.4150 C.ar   94  TRP94       0.0946
     92  CD2      164.6720   77.3740   19.3970 C.ar   94  TRP94       0.0152
     93  NE1      162.6200   76.5590   19.8270 N.ar   94  TRP94      -0.2442
     94  CE2      163.2880   77.5850   19.2020 C.ar   94  TRP94       0.0810
     95  CE3      165.5820   78.2770   18.8360 C.ar   94  TRP94       0.0012
     96  CZ2      162.8020   78.6770   18.4820 C.ar   94  TRP94       0.0191
     97  CZ3      165.0950   79.3540   18.1190 C.ar   94  TRP94       0.0001
     98  CH2      163.7320   79.5450   17.9450 C.ar   94  TRP94       0.0015
     99  N        146.9590   60.8590   30.0590 N.3   200  TRP200     -0.1227
    100  CA       147.4330   62.1890   29.6850 C.3   200  TRP200      0.1737
    101  C        146.3990   62.9460   28.8490 C.2   200  TRP200      0.2595
    102  O        146.3320   64.1760   28.9080 O.2   200  TRP200     -0.2718
    103  CB       148.7590   62.0730   28.9160 C.3   200  TRP200      0.0564
    104  CG       148.6500   61.2570   27.6770 C.ar  200  TRP200      0.0003
    105  CD1      148.9400   59.9330   27.5410 C.ar  200  TRP200      0.0946
    106  CD2      148.2020   61.6980   26.3910 C.ar  200  TRP200      0.0152
    107  NE1      148.6980   59.5210   26.2550 N.ar  200  TRP200     -0.2442
    108  CE2      148.2310   60.5810   25.5310 C.ar  200  TRP200      0.0810
    109  CE3      147.7650   62.9240   25.8860 C.ar  200  TRP200      0.0012
    110  CZ2      147.8570   60.6560   24.1970 C.ar  200  TRP200      0.0191
    111  CZ3      147.3750   62.9990   24.5460 C.ar  200  TRP200      0.0001
    112  CH2      147.4160   61.8730   23.7220 C.ar  200  TRP200      0.0015
    113  N        145.6000   62.2510   28.0490 N.am  201  GLU201     -0.1979
    114  CA       144.6510   62.9940   27.2350 C.3   201  GLU201      0.1602
    115  C        143.5230   63.5720   28.0870 C.2   201  GLU201      0.2287
    116  O        142.9770   64.6220   27.7500 O.2   201  GLU201     -0.2864
    117  CB       144.1050   62.1270   26.0970 C.3   201  GLU201      0.0415
    118  CG       143.4330   62.9550   24.9980 C.3   201  GLU201      0.1163
    119  CD       143.1190   62.2060   23.7130 C.2   201  GLU201      0.3649
    120  OE1      142.9840   60.9570   23.7470 O.co2 201  GLU201     -0.2457
    121  OE2      142.9790   62.8840   22.6570 O.co2 201  GLU201     -0.2457
    122  N        145.0730   66.7230   29.5410 N.3   204  LEU204     -0.1245
    123  CA       145.2500   67.6860   28.4730 C.3   204  LEU204      0.1561
    124  C        143.9280   68.3350   28.1080 C.2   204  LEU204      0.2260
    125  O        143.8570   69.5640   27.9440 O.2   204  LEU204     -0.2867
    126  CB       145.8670   66.9930   27.2670 C.3   204  LEU204      0.0270
    127  CG       145.8620   67.8530   25.9990 C.3   204  LEU204      0.0019
    128  CD1      146.7090   69.0890   26.2020 C.3   204  LEU204      0.0001
    129  CD2      146.3700   67.0640   24.8300 C.3   204  LEU204      0.0001
    130  N        142.9190   72.4380   28.3320 N.3   208  CYS208     -0.1235
    131  CA       142.4270   73.2340   27.2170 C.3   208  CYS208      0.1677
    132  C        141.0870   73.8700   27.5410 C.2   208  CYS208      0.2270
    133  O        140.8650   75.0460   27.2500 O.2   208  CYS208     -0.2867
    134  CB       142.3050   72.3900   25.9480 C.3   208  CYS208      0.0956
    135  SG       143.8720   71.8410   25.2880 S.3   208  CYS208     -0.0801
    136  N        139.0680   78.3040   19.9440 N.3   273  MET273     -0.1230
    137  CA       139.8900   77.2040   19.4090 C.3   273  MET273      0.1702
    138  C        140.2630   76.1890   20.5450 C.2   273  MET273      0.2592
    139  O        140.2530   74.9880   20.3600 O.2   273  MET273     -0.2718
    140  CB       141.1640   77.6520   18.6130 C.3   273  MET273      0.0401
    141  CG       140.9380   78.3090   17.2670 C.3   273  MET273      0.0596
    142  SD       142.3170   79.3050   16.7330 S.3   273  MET273     -0.1393
    143  CE       143.5820   78.1140   16.4120 C.3   273  MET273      0.0692
    144  N        140.6120   76.6790   21.7150 N.am  274  PHE274     -0.1976
    145  CA       140.9510   75.7780   22.8200 C.3   274  PHE274      0.1639
    146  C        139.7060   75.1000   23.3940 C.2   274  PHE274      0.2290
    147  O        139.7870   73.9650   23.8640 O.2   274  PHE274     -0.2864
    148  CB       141.6980   76.5210   23.9270 C.3   274  PHE274      0.0560
    149  CG       143.1860   76.6180   23.7030 C.ar  274  PHE274     -0.0200
    150  CD1      144.0010   75.5580   24.0340 C.ar  274  PHE274     -0.0042
    151  CD2      143.7610   77.7600   23.1550 C.ar  274  PHE274     -0.0042
    152  CE1      145.3690   75.6260   23.8200 C.ar  274  PHE274     -0.0003
    153  CE2      145.1190   77.8200   22.9370 C.ar  274  PHE274     -0.0003
    154  CZ       145.9240   76.7530   23.2780 C.ar  274  PHE274     -0.0000
    155  N        138.8680   72.3990   20.5800 N.3   277  GLY277     -0.1210
    156  CA       139.9190   71.3960   20.5770 C.3   277  GLY277      0.1956
    157  C        140.0470   70.6630   21.8920 C.2   277  GLY277      0.2612
    158  O        140.3660   69.4750   21.9150 O.2   277  GLY277     -0.2717
    159  N        139.8060   71.3460   23.0060 N.am  278  GLY278     -0.1956
    160  CA       139.8170   70.6550   24.2840 C.3   278  GLY278      0.1869
    161  C        138.7050   69.6340   24.3930 C.2   278  GLY278      0.2309
    162  O        138.9130   68.5110   24.8760 O.2   278  GLY278     -0.2863
    163  N        137.2870   68.1640   21.8830 N.3   280  PHE280     -0.1227
    164  CA       137.6610   67.0670   20.9960 C.3   280  PHE280      0.1736
    165  C        138.5660   66.0590   21.7110 C.2   280  PHE280      0.2595
    166  O        138.3730   64.8470   21.5840 O.2   280  PHE280     -0.2718
    167  CB       138.3470   67.6030   19.7390 C.3   280  PHE280      0.0547
    168  CG       139.2050   66.5660   19.0580 C.ar  280  PHE280     -0.0202
    169  CD1      138.6430   65.6100   18.2280 C.ar  280  PHE280     -0.0042
    170  CD2      140.5610   66.5220   19.3010 C.ar  280  PHE280     -0.0042
    171  CE1      139.4320   64.6360   17.6350 C.ar  280  PHE280     -0.0003
    172  CE2      141.3520   65.5570   18.7170 C.ar  280  PHE280     -0.0003
    173  CZ       140.7890   64.6070   17.8850 C.ar  280  PHE280     -0.0000
    174  N        139.5600   66.5380   22.4710 N.am  281  HIS281     -0.1975
    175  CA       140.4340   65.6170   23.1990 C.3   281  HIS281      0.1656
    176  C        139.6970   64.8440   24.2880 C.2   281  HIS281      0.2291
    177  O        140.0000   63.6740   24.5300 O.2   281  HIS281     -0.2864
    178  CB       141.6040   66.3700   23.8070 C.3   281  HIS281      0.0771
    179  CG       142.6960   66.6090   22.8320 C.ar  281  HIS281      0.0820
    180  ND1      143.3840   65.5760   22.2380 N.ar  281  HIS281     -0.2267
    181  CD2      143.1880   67.7510   22.3030 C.ar  281  HIS281      0.1154
    182  CE1      144.2550   66.0710   21.3830 C.ar  281  HIS281      0.1986
    183  NE2      144.1580   67.3910   21.4090 N.ar  281  HIS281     -0.2212
    184  N        137.7120   62.2770   22.5270 N.3   284  HIS284     -0.1241
    185  CA       138.5820   61.2310   22.0090 C.3   284  HIS284      0.1621
    186  C        139.0470   60.3090   23.1280 C.2   284  HIS284      0.2264
    187  O        139.1430   59.0900   22.9430 O.2   284  HIS284     -0.2867
    188  CB       139.7860   61.8410   21.2860 C.3   284  HIS284      0.0745
    189  CG       140.6840   60.8140   20.7030 C.ar  284  HIS284      0.0817
    190  ND1      141.9220   60.5310   21.2330 N.ar  284  HIS284     -0.2268
    191  CD2      140.4980   59.9460   19.6830 C.ar  284  HIS284      0.1154
    192  CE1      142.4720   59.5430   20.5480 C.ar  284  HIS284      0.1986
    193  NE2      141.6260   59.1620   19.6100 N.ar  284  HIS284     -0.2212
    194  N        136.0340   63.2620   14.5450 N.3   438  VAL438     -0.1245
    195  CA       136.8570   64.3760   14.0670 C.3   438  VAL438      0.1561
    196  C        136.0580   65.2530   13.0930 C.2   438  VAL438      0.2260
    197  O        136.2570   66.4740   13.0280 O.2   438  VAL438     -0.2867
    198  CB       138.1940   63.8750   13.4590 C.3   438  VAL438      0.0252
    199  CG1      138.0240   63.2940   12.0430 C.3   438  VAL438      0.0019
    200  CG2      139.1800   64.9840   13.4550 C.3   438  VAL438      0.0019
    201  N        134.2740   67.6540   15.0970 N.3   441  PHE441     -0.1227
    202  CA       135.2220   68.6870   15.5030 C.3   441  PHE441      0.1736
    203  C        135.3160   69.7920   14.4580 C.2   441  PHE441      0.2595
    204  O        135.1980   70.9740   14.7850 O.2   441  PHE441     -0.2718
    205  CB       136.6000   68.0790   15.7620 C.3   441  PHE441      0.0547
    206  CG       137.7050   69.1040   15.7480 C.ar  441  PHE441     -0.0202
    207  CD1      137.9210   69.9030   16.8390 C.ar  441  PHE441     -0.0042
    208  CD2      138.4590   69.2970   14.6190 C.ar  441  PHE441     -0.0042
    209  CE1      138.9060   70.8640   16.8350 C.ar  441  PHE441     -0.0003
    210  CE2      139.4670   70.2870   14.5720 C.ar  441  PHE441     -0.0003
    211  CZ       139.6970   71.0740   15.6900 C.ar  441  PHE441     -0.0000
    212  N        135.5320   69.4300   13.1870 N.am  442  TYR442     -0.1976
    213  CA       135.5980   70.4460   12.1370 C.3   442  TYR442      0.1639
    214  C        134.3180   71.2570   12.0970 C.2   442  TYR442      0.2290
    215  O        134.3550   72.4760   11.8720 O.2   442  TYR442     -0.2864
    216  CB       135.8380   69.8220   10.7600 C.3   442  TYR442      0.0560
    217  CG       137.0490   68.9660   10.6240 C.ar  442  TYR442     -0.0198
    218  CD1      138.2840   69.3760   11.1040 C.ar  442  TYR442     -0.0009
    219  CD2      136.9680   67.7250   10.0190 C.ar  442  TYR442     -0.0009
    220  CE1      139.3750   68.5760   11.0020 C.ar  442  TYR442      0.0417
    221  CE2      138.0920   66.8970    9.8940 C.ar  442  TYR442      0.0417
    222  CZ       139.3100   67.3460   10.3830 C.ar  442  TYR442      0.1957
    223  OH       140.4500   66.5340   10.3290 O.3   442  TYR442     -0.2866
    224  N        134.1540   73.9290   14.6010 N.3   445  ILE445     -0.1245
    225  CA       135.0030   75.0480   14.1910 C.3   445  ILE445      0.1561
    226  C        134.2540   75.9590   13.2220 C.2   445  ILE445      0.2260
    227  O        134.2930   77.1840   13.3460 O.2   445  ILE445     -0.2867
    228  CB       136.3140   74.5360   13.5670 C.3   445  ILE445      0.0252
    229  CG1      137.1670   73.7420   14.5990 C.3   445  ILE445      0.0019
    230  CG2      137.0960   75.6990   12.9630 C.3   445  ILE445      0.0019
    231  CD1      137.7300   74.6080   15.7610 C.3   445  ILE445      0.0001
@<TRIPOS>BOND
     1   221   219   ar
     2   221   222   ar
     3    47    46    1
     4   219   217   ar
     5   223   222    1
     6   222   220   ar
     7   217   216    1
     8   217   218   ar
     9   216   213    1
    10    46    45    1
    11   220   218   ar
    12    45    44    1
    13   215   214    2
    14   199   198    1
    15   214   213    1
    16   213   212    1
    17    44    43    1
    18    28    29    1
    19   230   228    1
    20    38    37   ar
    21    38    36   ar
    22   197   196    2
    23   196   195    1
    24    37    35   ar
    25   212   203   am
    26   226   227    2
    27   226   225    1
    28   200   198    1
    29   198   195    1
    30    36    34   ar
    31   228   225    1
    32   228   229    1
    33    35    33   ar
    34    43    40    1
    35    29    30    1
    36    29    32    1
    37   195   194    1
    38    34    33   ar
    39    19    20    2
    40    19    18    1
    41   225   224    1
    42    21    22    1
    43    21    18    1
    44    33    32    1
    45   203   204    2
    46   203   202    1
    47   210   208   ar
    48   210   211   ar
    49    39    40    1
    50   229   231    1
    51   208   206   ar
    52    24    22   ar
    53    24    26   ar
    54    30    31    2
    55    40    41    1
    56    22    23   ar
    57    18    17    1
    58   201   202    1
    59    26    27   ar
    60    23    25   ar
    61   202   205    1
    62   211   209   ar
    63   206   205    1
    64   206   207   ar
    65    27    25   ar
    66    41    42    2
    67    41    48   am
    68    17    12   am
    69   143   142    1
    70   142   141    1
    71    13    12    2
    72   209   207   ar
    73    48    49    1
    74    12    11    1
    75   141   140    1
    76    16    14    1
    77   171   173   ar
    78   171   169   ar
    79   173   172   ar
    80    98    97   ar
    81    98    96   ar
    82    97    95   ar
    83    14    11    1
    84    14    15    1
    85   169   168   ar
    86    11    10    1
    87    49    52    1
    88    49    50    1
    89    96    94   ar
    90    84    82   am
    91   140   137    1
    92   172   170   ar
    93    95    92   ar
    94    52    53    1
    95    52    54    1
    96    83    82    2
    97   168   170   ar
    98   168   167    1
    99    82    81    1
   100    51    50    2
   101    94    92   ar
   102    94    93   ar
   103    10     3   am
   104    50    55   am
   105    92    90   ar
   106   137   136    1
   107   137   138    1
   108   193   191   ar
   109   193   192   ar
   110   191   189   ar
   111   167   164    1
   112    93    91   ar
   113    81    78    1
   114    90    91   ar
   115    90    89    1
   116    55    61    1
   117    55    56    1
   118   139   138    2
   119    61    60    1
   120     3     4    2
   121     3     2    1
   122    80    79    2
   123   138   144   am
   124   192   190   ar
   125   156   155    1
   126   156   157    1
   127    89    86    1
   128    78    79    1
   129    78    77    1
   130   189   190   ar
   131   189   188    1
   132     1     2    1
   133   164   165    1
   134   164   163    1
   135    56    57    1
   136    56    59    1
   137   188   185    1
   138     2     5    1
   139    60    59    1
   140   182   183   ar
   141   182   180   ar
   142   183   181   ar
   143    88    87    2
   144   166   165    2
   145   165   174   am
   146   144   145    1
   147   157   158    2
   148   157   159   am
   149    86    87    1
   150    86    85    1
   151    57    58    2
   152   185   184    1
   153   185   186    1
   154   180   179   ar
   155   181   179   ar
   156   174   175    1
   157   121   119   ar
   158     5     6    1
   159   145   146    1
   160   145   148    1
   161   179   178    1
   162    66    63    1
   163   153   151   ar
   164   153   154   ar
   165   187   186    2
   166   159   160    1
   167   151   149   ar
   168   175   178    1
   169   175   176    1
   170    63    62    1
   171    63    64    1
   172   154   152   ar
   173   146   147    2
   174    65    64    2
   175     6     7    1
   176   149   148    1
   177   149   150   ar
   178   119   120   ar
   179   119   118    1
   180   112   110   ar
   181   112   111   ar
   182   152   150   ar
   183    64    67   am
   184   110   108   ar
   185   160   161    1
   186   176   177    2
   187   161   162    2
   188   111   109   ar
   189   129   127    1
   190   118   117    1
   191     7     8    2
   192     7     9   am
   193   135   134    1
   194    67    68    1
   195   108   107   ar
   196   108   106   ar
   197   109   106   ar
   198   134   131    1
   199   127   128    1
   200   127   126    1
   201   117   114    1
   202    70    69    2
   203    68    69    1
   204    68    71    1
   205   107   105   ar
   206   106   104   ar
   207    74    76   ar
   208    74    72   ar
   209   131   132    1
   210   131   130    1
   211   114   113    1
   212   114   115    1
   213   133   132    2
   214   126   123    1
   215    76    75   ar
   216   105   104   ar
   217    71    72    1
   218    72    73   ar
   219   104   103    1
   220   116   115    2
   221   125   124    2
   222   113   101   am
   223   124   123    1
   224   123   122    1
   225    75    73   ar
   226   101   102    2
   227   101   100    1
   228   103   100    1
   229   100    99    1
