@<TRIPOS>MOLECULE
tmp/5v8kA14.pdb
 144 141 0 0 0
SMALL
GASTEIGER

@<TRIPOS>ATOM
      1  N        137.9480   78.9760   29.0760 N.3   213  PHE213     -0.1241
      2  CA       137.1670   79.8000   29.9800 C.3   213  PHE213      0.1605
      3  C        137.9720   80.9870   30.4980 C.2   213  PHE213      0.2264
      4  O        137.4260   82.0870   30.6470 O.2   213  PHE213     -0.2867
      5  CB       136.6470   78.9540   31.1310 C.3   213  PHE213      0.0534
      6  CG       135.8200   79.7240   32.0690 C.ar  213  PHE213     -0.0203
      7  CD1      134.4810   79.9790   31.8060 C.ar  213  PHE213     -0.0042
      8  CD2      136.3890   80.2530   33.1840 C.ar  213  PHE213     -0.0042
      9  CE1      133.7350   80.7330   32.6940 C.ar  213  PHE213     -0.0003
     10  CE2      135.6770   81.0170   34.0490 C.ar  213  PHE213     -0.0003
     11  CZ       134.3640   81.2740   33.8230 C.ar  213  PHE213     -0.0000
     12  N        136.4090   89.6920   28.3970 N.3   220  PHE220     -0.1241
     13  CA       135.5600   90.6340   29.1290 C.3   220  PHE220      0.1605
     14  C        136.4110   91.6080   29.9580 C.2   220  PHE220      0.2264
     15  O        136.0970   92.8060   30.0440 O.2   220  PHE220     -0.2867
     16  CB       134.5590   89.8900   30.0280 C.3   220  PHE220      0.0534
     17  CG       133.3330   89.3580   29.3030 C.ar  220  PHE220     -0.0203
     18  CD1      133.3800   88.1690   28.5860 C.ar  220  PHE220     -0.0042
     19  CD2      132.1230   90.0500   29.3660 C.ar  220  PHE220     -0.0042
     20  CE1      132.2410   87.6810   27.9310 C.ar  220  PHE220     -0.0003
     21  CE2      130.9860   89.5720   28.7180 C.ar  220  PHE220     -0.0003
     22  CZ       131.0510   88.3810   27.9980 C.ar  220  PHE220     -0.0000
     23  N        138.5590   75.7810   23.3810 N.3   275  TRP275     -0.1241
     24  CA       137.3160   75.1790   23.8470 C.3   275  TRP275      0.1605
     25  C        136.9640   73.9730   22.9860 C.2   275  TRP275      0.2264
     26  O        136.7090   72.8800   23.4880 O.2   275  TRP275     -0.2867
     27  CB       136.2000   76.2330   23.7920 C.3   275  TRP275      0.0550
     28  CG       134.8310   75.8470   24.2700 C.ar  275  TRP275      0.0003
     29  CD1      134.5040   75.0450   25.3290 C.ar  275  TRP275      0.0946
     30  CD2      133.5920   76.2840   23.6970 C.ar  275  TRP275      0.0152
     31  NE1      133.1210   74.9530   25.4440 N.ar  275  TRP275     -0.2442
     32  CE2      132.5470   75.7180   24.4530 C.ar  275  TRP275      0.0810
     33  CE3      133.2690   77.1010   22.6110 C.ar  275  TRP275      0.0012
     34  CZ2      131.1980   75.9470   24.1450 C.ar  275  TRP275      0.0191
     35  CZ3      131.9530   77.3160   22.3040 C.ar  275  TRP275      0.0001
     36  CH2      130.9240   76.7440   23.0720 C.ar  275  TRP275      0.0015
     37  N        118.9830   65.0570   25.1360 N.3   317  PHE317     -0.1241
     38  CA       120.0600   65.9860   25.4150 C.3   317  PHE317      0.1605
     39  C        120.3910   66.8320   24.1940 C.2   317  PHE317      0.2264
     40  O        120.4920   68.0600   24.2890 O.2   317  PHE317     -0.2867
     41  CB       121.2890   65.2300   25.8950 C.3   317  PHE317      0.0534
     42  CG       122.3740   66.1250   26.3350 C.ar  317  PHE317     -0.0203
     43  CD1      122.4260   66.5940   27.6280 C.ar  317  PHE317     -0.0042
     44  CD2      123.3340   66.5340   25.4420 C.ar  317  PHE317     -0.0042
     45  CE1      123.4520   67.4560   28.0200 C.ar  317  PHE317     -0.0003
     46  CE2      124.3370   67.3970   25.8280 C.ar  317  PHE317     -0.0003
     47  CZ       124.3880   67.8510   27.1160 C.ar  317  PHE317     -0.0000
     48  N        117.7380   69.3700   23.5250 N.3   320  LEU320     -0.1231
     49  CA       117.7700   70.5190   24.4030 C.3   320  LEU320      0.1693
     50  C        118.7990   71.5600   23.9240 C.2   320  LEU320      0.2591
     51  O        118.5170   72.7580   23.9370 O.2   320  LEU320     -0.2718
     52  CB       118.0570   70.0490   25.8210 C.3   320  LEU320      0.0284
     53  CG       118.1460   71.1950   26.8280 C.3   320  LEU320      0.0019
     54  CD1      116.7970   71.9030   26.9090 C.3   320  LEU320      0.0001
     55  CD2      118.5160   70.6640   28.1930 C.3   320  LEU320      0.0001
     56  N        119.9710   71.1080   23.4570 N.am  321  ILE321     -0.1980
     57  CA       120.9800   71.9970   22.8800 C.3   321  ILE321      0.1595
     58  C        120.4320   72.7330   21.6580 C.2   321  ILE321      0.2287
     59  O        120.6630   73.9390   21.4870 O.2   321  ILE321     -0.2864
     60  CB       122.2360   71.1890   22.5250 C.3   321  ILE321      0.0276
     61  CG1      122.8820   70.6090   23.7970 C.3   321  ILE321      0.0022
     62  CG2      123.2220   72.0320   21.7560 C.3   321  ILE321      0.0022
     63  CD1      123.0760   71.6080   24.9620 C.3   321  ILE321      0.0001
     64  N        117.3010   73.3950   20.8630 N.3   323  PHE323     -0.1227
     65  CA       116.3520   74.4030   21.3000 C.3   323  PHE323      0.1736
     66  C        117.0820   75.6330   21.8390 C.2   323  PHE323      0.2596
     67  O        116.7020   76.7730   21.5510 O.2   323  PHE323     -0.2718
     68  CB       115.4280   73.7960   22.3550 C.3   323  PHE323      0.0547
     69  CG       114.4340   74.7720   22.9110 C.ar  323  PHE323     -0.0202
     70  CD1      113.3720   75.2160   22.1400 C.ar  323  PHE323     -0.0042
     71  CD2      114.5550   75.2610   24.1940 C.ar  323  PHE323     -0.0042
     72  CE1      112.4560   76.1170   22.6460 C.ar  323  PHE323     -0.0003
     73  CE2      113.6350   76.1820   24.6960 C.ar  323  PHE323     -0.0003
     74  CZ       112.5950   76.6040   23.9230 C.ar  323  PHE323     -0.0000
     75  N        118.1250   75.4140   22.6340 N.am  324  GLY324     -0.1957
     76  CA       118.9080   76.5080   23.1810 C.3   324  GLY324      0.1869
     77  C        119.5850   77.3470   22.1180 C.2   324  GLY324      0.2309
     78  O        119.9130   78.5060   22.3710 O.2   324  GLY324     -0.2863
     79  N        117.4060   92.6050   32.2750 N.3   365  LEU365     -0.1245
     80  CA       117.9880   91.6660   33.2230 C.3   365  LEU365      0.1561
     81  C        119.4850   91.9200   33.3960 C.2   365  LEU365      0.2260
     82  O        120.0040   91.9460   34.5180 O.2   365  LEU365     -0.2867
     83  CB       117.7300   90.2410   32.7580 C.3   365  LEU365      0.0270
     84  CG       118.5540   89.1720   33.4690 C.3   365  LEU365      0.0019
     85  CD1      118.2240   89.1210   34.9550 C.3   365  LEU365      0.0001
     86  CD2      118.2660   87.8280   32.8130 C.3   365  LEU365      0.0001
     87  N        123.4430   90.0330   22.0490 N.3   382  ALA382     -0.1245
     88  CA       123.6230   89.0230   23.0740 C.3   382  ALA382      0.1562
     89  C        122.8280   87.7460   22.7680 C.2   382  ALA382      0.2260
     90  O        123.3190   86.6340   22.9950 O.2   382  ALA382     -0.2867
     91  CB       123.2350   89.6050   24.4290 C.3   382  ALA382      0.0290
     92  N        124.7910   85.8890   19.9470 N.3   385  ILE385     -0.1231
     93  CA       125.9810   85.2540   20.4830 C.3   385  ILE385      0.1692
     94  C        125.6180   84.0510   21.3510 C.2   385  ILE385      0.2591
     95  O        126.2120   82.9770   21.2280 O.2   385  ILE385     -0.2718
     96  CB       126.7960   86.2980   21.2700 C.3   385  ILE385      0.0266
     97  CG1      127.3120   87.3340   20.2940 C.3   385  ILE385      0.0019
     98  CG2      127.9490   85.6720   22.0660 C.3   385  ILE385      0.0020
     99  CD1      127.8460   88.5790   20.9640 C.3   385  ILE385      0.0001
    100  N        124.6960   84.2240   22.2850 N.am  386  ALA386     -0.1980
    101  CA       124.1890   83.0770   23.0430 C.3   386  ALA386      0.1597
    102  C        123.7050   81.9590   22.1140 C.2   386  ALA386      0.2287
    103  O        124.0470   80.7840   22.2940 O.2   386  ALA386     -0.2864
    104  CB       123.0640   83.5260   23.9560 C.3   386  ALA386      0.0319
    105  N        126.5890   80.2150   20.4690 N.3   389  LEU389     -0.1231
    106  CA       127.2370   79.2970   21.3930 C.3   389  LEU389      0.1693
    107  C        126.5260   77.9490   21.4550 C.2   389  LEU389      0.2592
    108  O        127.1720   76.8970   21.4420 O.2   389  LEU389     -0.2718
    109  CB       127.3190   79.9330   22.7870 C.3   389  LEU389      0.0284
    110  CG       128.4460   80.9520   22.9390 C.3   389  LEU389      0.0019
    111  CD1      128.2290   81.6890   24.2380 C.3   389  LEU389      0.0001
    112  CD2      129.8250   80.3020   22.9210 C.3   389  LEU389      0.0001
    113  N        125.1920   77.9600   21.5790 N.am  390  HIS390     -0.1976
    114  CA       124.4490   76.7040   21.6170 C.3   390  HIS390      0.1656
    115  C        124.4830   75.9980   20.2720 C.2   390  HIS390      0.2291
    116  O        124.5310   74.7660   20.2100 O.2   390  HIS390     -0.2864
    117  CB       123.0080   76.9600   22.0440 C.3   390  HIS390      0.0771
    118  CG       122.8930   77.4110   23.4540 C.ar  390  HIS390      0.0820
    119  ND1      123.3110   78.6540   23.8700 N.ar  390  HIS390     -0.2267
    120  CD2      122.4870   76.7590   24.5630 C.ar  390  HIS390      0.1154
    121  CE1      123.1130   78.7650   25.1700 C.ar  390  HIS390      0.1986
    122  NE2      122.6050   77.6320   25.6100 N.ar  390  HIS390     -0.2212
    123  N        127.6820   74.3020   20.0790 N.3   393  MET393     -0.1245
    124  CA       127.6630   73.1420   20.9660 C.3   393  MET393      0.1570
    125  C        126.9760   71.9150   20.3440 C.2   393  MET393      0.2261
    126  O        127.1510   70.8000   20.8700 O.2   393  MET393     -0.2867
    127  CB       126.9480   73.4710   22.2850 C.3   393  MET393      0.0387
    128  CG       127.7470   74.2860   23.3040 C.3   393  MET393      0.0595
    129  SD       127.0120   74.1740   24.9600 S.3   393  MET393     -0.1393
    130  CE       125.5210   75.1280   24.7070 C.3   393  MET393      0.0692
    131  N        128.5660   68.4310   21.3870 N.3   397  TRP397     -0.1241
    132  CA       127.9840   67.3660   22.1870 C.3   397  TRP397      0.1605
    133  C        127.8100   66.0800   21.3840 C.2   397  TRP397      0.2264
    134  O        127.7990   64.9950   21.9730 O.2   397  TRP397     -0.2867
    135  CB       126.6700   67.8040   22.8220 C.3   397  TRP397      0.0550
    136  CG       126.9050   68.7730   23.9480 C.ar  397  TRP397      0.0003
    137  CD1      126.6130   70.1080   23.9500 C.ar  397  TRP397      0.0946
    138  CD2      127.4870   68.4920   25.2330 C.ar  397  TRP397      0.0152
    139  NE1      126.9520   70.6660   25.1450 N.ar  397  TRP397     -0.2442
    140  CE2      127.4840   69.7010   25.9620 C.ar  397  TRP397      0.0810
    141  CE3      127.9980   67.3420   25.8430 C.ar  397  TRP397      0.0012
    142  CZ2      128.0140   69.8060   27.2570 C.ar  397  TRP397      0.0191
    143  CZ3      128.4970   67.4420   27.1580 C.ar  397  TRP397      0.0001
    144  CH2      128.5040   68.6740   27.8380 C.ar  397  TRP397      0.0015
@<TRIPOS>BOND
     1    92    93    1
     2   123   124    1
     3   116   115    2
     4   115   114    1
     5    97    99    1
     6    97    96    1
     7   125   126    2
     8   125   124    1
     9   105   106    1
    10    93    96    1
    11    93    94    1
    12    64    65    1
    13   124   127    1
    14    95    94    2
    15    96    98    1
    16    65    66    1
    17    65    68    1
    18    94   100   am
    19   133   134    2
    20   133   132    1
    21   131   132    1
    22   106   107    1
    23   106   109    1
    24   108   107    2
    25   107   113   am
    26    59    58    2
    27    67    66    2
    28   113   114    1
    29   114   117    1
    30    58    57    1
    31    62    60    1
    32    66    75   am
    33   117   118    1
    34    87    88    1
    35   102   103    2
    36   102   101    1
    37    77    78    2
    38    77    76    1
    39    70    72   ar
    40    70    69   ar
    41   132   135    1
    42   100   101    1
    43   127   128    1
    44    35    33   ar
    45    35    36   ar
    46    68    69    1
    47    60    57    1
    48    60    61    1
    49    33    30   ar
    50    75    76    1
    51    72    74   ar
    52    89    90    2
    53    89    88    1
    54   109   110    1
    55   135   136    1
    56    57    56    1
    57    69    71   ar
    58   112   110    1
    59   110   111    1
    60    25    26    2
    61    25    24    1
    62   101   104    1
    63    36    34   ar
    64    88    91    1
    65   128   129    1
    66    23    24    1
    67   118   119   ar
    68   118   120   ar
    69    56    50   am
    70    48    49    1
    71    30    28   ar
    72    30    32   ar
    73    27    24    1
    74    27    28    1
    75    61    63    1
    76   119   121   ar
    77    74    73   ar
    78    50    51    2
    79    50    49    1
    80   136   137   ar
    81   136   138   ar
    82   137   139   ar
    83    34    32   ar
    84    71    73   ar
    85    39    40    2
    86    39    38    1
    87    28    29   ar
    88    49    52    1
    89    32    31   ar
    90   120   122   ar
    91   130   129    1
    92    37    38    1
    93   139   140   ar
    94   121   122   ar
    95   138   141   ar
    96   138   140   ar
    97    29    31   ar
    98    38    41    1
    99    44    46   ar
   100    44    42   ar
   101    52    53    1
   102    46    47   ar
   103   141   143   ar
   104    41    42    1
   105   140   142   ar
   106    42    43   ar
   107    53    54    1
   108    53    55    1
   109    47    45   ar
   110   143   144   ar
   111   142   144   ar
   112    43    45   ar
   113    20    22   ar
   114    20    18   ar
   115    22    21   ar
   116    12    13    1
   117    18    17   ar
   118    21    19   ar
   119     1     2    1
   120    13    14    1
   121    13    16    1
   122    17    19   ar
   123    17    16    1
   124    14    15    2
   125     2     3    1
   126     2     5    1
   127     3     4    2
   128     5     6    1
   129     7     6   ar
   130     7     9   ar
   131     6     8   ar
   132    79    80    1
   133     9    11   ar
   134    83    80    1
   135    83    84    1
   136    86    84    1
   137     8    10   ar
   138    80    81    1
   139    81    82    2
   140    84    85    1
   141    11    10   ar
