@<TRIPOS>MOLECULE
tmp/5v8kA16.pdb
 80 77 0 0 0
SMALL
GASTEIGER

@<TRIPOS>ATOM
      1  N        145.6370   63.8550  -15.3530 N.3   552  VAL552     -0.1231
      2  CA       145.9020   64.5630  -16.5990 C.3   552  VAL552      0.1692
      3  C        146.9750   65.6290  -16.3860 C.2   552  VAL552      0.2591
      4  O        147.8590   65.8160  -17.2260 O.2   552  VAL552     -0.2718
      5  CB       144.5880   65.1750  -17.1230 C.3   552  VAL552      0.0266
      6  CG1      144.8270   66.0490  -18.3700 C.3   552  VAL552      0.0020
      7  CG2      143.6170   64.0810  -17.4400 C.3   552  VAL552      0.0020
      8  N        146.8800   66.3760  -15.2850 N.am  553  LEU553     -0.1980
      9  CA       147.8790   67.3990  -15.0000 C.3   553  LEU553      0.1596
     10  C        149.2720   66.7710  -14.7760 C.2   553  LEU553      0.2287
     11  O        150.2820   67.2460  -15.3160 O.2   553  LEU553     -0.2864
     12  CB       147.4370   68.2170  -13.7870 C.3   553  LEU553      0.0297
     13  CG       146.2460   69.1560  -14.0570 C.3   553  LEU553      0.0022
     14  CD1      145.5740   69.5440  -12.7970 C.3   553  LEU553      0.0001
     15  CD2      146.7110   70.3760  -14.7530 C.3   553  LEU553      0.0001
     16  N        150.6350   65.6080  -18.0460 N.3   556  ALA556     -0.1231
     17  CA       151.0580   66.6890  -18.9370 C.3   556  ALA556      0.1694
     18  C        152.4100   67.2490  -18.5270 C.2   556  ALA556      0.2592
     19  O        153.2340   67.5980  -19.3770 O.2   556  ALA556     -0.2718
     20  CB       150.0150   67.8040  -18.9320 C.3   556  ALA556      0.0304
     21  N        152.6240   67.4080  -17.2310 N.am  557  HIS557     -0.1976
     22  CA       153.9250   67.8510  -16.7600 C.3   557  HIS557      0.1656
     23  C        155.0200   66.8420  -17.1440 C.2   557  HIS557      0.2291
     24  O        156.0990   67.2280  -17.6040 O.2   557  HIS557     -0.2864
     25  CB       153.8740   68.0770  -15.2560 C.3   557  HIS557      0.0771
     26  CG       153.1000   69.2920  -14.8560 C.ar  557  HIS557      0.0820
     27  ND1      151.7220   69.3210  -14.8270 N.ar  557  HIS557     -0.2267
     28  CD2      153.5070   70.5170  -14.4470 C.ar  557  HIS557      0.1154
     29  CE1      151.3120   70.5140  -14.4340 C.ar  557  HIS557      0.1986
     30  NE2      152.3720   71.2560  -14.1970 N.ar  557  HIS557     -0.2212
     31  N        156.3470   67.0540  -20.8680 N.3   560  VAL560     -0.1245
     32  CA       157.2470   68.1400  -21.2400 C.3   560  VAL560      0.1561
     33  C        158.5380   68.1200  -20.4370 C.2   560  VAL560      0.2260
     34  O        159.3990   68.9820  -20.6440 O.2   560  VAL560     -0.2867
     35  CB       156.4850   69.4980  -21.1410 C.3   560  VAL560      0.0252
     36  CG1      156.0080   69.7780  -19.7720 C.3   560  VAL560      0.0019
     37  CG2      157.3600   70.6840  -21.5550 C.3   560  VAL560      0.0019
     38  N        158.9330   68.0260  -16.9070 N.3   562  VAL562     -0.1245
     39  CA       158.9740   68.6520  -15.5920 C.3   562  VAL562      0.1561
     40  C        158.1250   67.8510  -14.6170 C.2   562  VAL562      0.2260
     41  O        157.2180   68.3850  -13.9580 O.2   562  VAL562     -0.2867
     42  CB       158.5340   70.1290  -15.6550 C.3   562  VAL562      0.0252
     43  CG1      159.5820   70.9400  -16.4380 C.3   562  VAL562      0.0019
     44  CG2      157.1460   70.2730  -16.2780 C.3   562  VAL562      0.0019
     45  N        158.9530   66.8080  -11.8410 N.3   564  PHE564     -0.1227
     46  CA       159.1260   67.2430  -10.4610 C.3   564  PHE564      0.1736
     47  C        158.0360   68.2310  -10.0570 C.2   564  PHE564      0.2595
     48  O        157.6460   68.2760   -8.8890 O.2   564  PHE564     -0.2718
     49  CB       160.5240   67.8490  -10.2640 C.3   564  PHE564      0.0547
     50  CG       160.7450   69.1050  -11.0380 C.ar  564  PHE564     -0.0202
     51  CD1      160.3050   70.3440  -10.5470 C.ar  564  PHE564     -0.0042
     52  CD2      161.3700   69.0520  -12.2690 C.ar  564  PHE564     -0.0042
     53  CE1      160.4880   71.4940  -11.2850 C.ar  564  PHE564     -0.0003
     54  CE2      161.5740   70.1790  -13.0070 C.ar  564  PHE564     -0.0003
     55  CZ       161.1230   71.4210  -12.5250 C.ar  564  PHE564     -0.0000
     56  N        157.5100   69.0020  -11.0060 N.am  565  ALA565     -0.1980
     57  CA       156.3580   69.8560  -10.7440 C.3   565  ALA565      0.1597
     58  C        155.0450   69.0760  -10.8200 C.2   565  ALA565      0.2287
     59  O        154.1650   69.2600   -9.9820 O.2   565  ALA565     -0.2864
     60  CB       156.3550   71.0210  -11.7370 C.3   565  ALA565      0.0319
     61  N        153.0630   67.5820   -7.8230 N.3   568  MET568     -0.1230
     62  CA       152.0240   68.3280   -7.1250 C.3   568  MET568      0.1702
     63  C        150.6570   67.6850   -7.3430 C.2   568  MET568      0.2592
     64  O        149.7520   67.8370   -6.5130 O.2   568  MET568     -0.2718
     65  CB       152.0270   69.7720   -7.6430 C.3   568  MET568      0.0401
     66  CG       150.9760   70.7340   -7.0690 C.3   568  MET568      0.0596
     67  SD       151.1430   71.0440   -5.2900 S.3   568  MET568     -0.1393
     68  CE       152.8860   71.2800   -5.0720 C.3   568  MET568      0.0692
     69  N        150.4960   66.9750   -8.4650 N.am  569  TYR569     -0.1976
     70  CA       149.2710   66.2710   -8.8080 C.3   569  TYR569      0.1639
     71  C        149.4660   64.7640   -8.8680 C.2   569  TYR569      0.2290
     72  O        148.7730   64.0720   -9.6190 O.2   569  TYR569     -0.2864
     73  CB       148.7070   66.8010  -10.1270 C.3   569  TYR569      0.0560
     74  CG       148.2530   68.2080   -9.9400 C.ar  569  TYR569     -0.0198
     75  CD1      147.1160   68.4720   -9.2260 C.ar  569  TYR569     -0.0009
     76  CD2      148.9810   69.2720  -10.4190 C.ar  569  TYR569     -0.0009
     77  CE1      146.7100   69.7650   -8.9900 C.ar  569  TYR569      0.0417
     78  CE2      148.5690   70.5810  -10.1960 C.ar  569  TYR569      0.0417
     79  CZ       147.4450   70.8140   -9.4850 C.ar  569  TYR569      0.1957
     80  OH       146.9850   72.1050   -9.2670 O.3   569  TYR569     -0.2866
@<TRIPOS>BOND
     1    37    35    1
     2    32    35    1
     3    32    31    1
     4    32    33    1
     5    35    36    1
     6    34    33    2
     7    19    18    2
     8    17    20    1
     9    17    18    1
    10    17    16    1
    11    18    21   am
    12     6     5    1
    13    24    23    2
    14     7     5    1
    15    21    22    1
    16     4     3    2
    17    23    22    1
    18     5     2    1
    19    38    39    1
    20    22    25    1
    21     2     3    1
    22     2     1    1
    23    43    42    1
    24     3     8   am
    25    44    42    1
    26    42    39    1
    27    39    40    1
    28    11    10    2
    29     8     9    1
    30    25    26    1
    31     9    10    1
    32     9    12    1
    33    26    27   ar
    34    26    28   ar
    35    27    29   ar
    36    15    13    1
    37    40    41    2
    38    28    30   ar
    39    29    30   ar
    40    13    12    1
    41    13    14    1
    42    54    55   ar
    43    54    52   ar
    44    55    53   ar
    45    52    50   ar
    46    45    46    1
    47    60    57    1
    48    53    51   ar
    49    50    51   ar
    50    50    49    1
    51    56    57    1
    52    56    47   am
    53    58    57    1
    54    58    59    2
    55    46    49    1
    56    46    47    1
    57    76    78   ar
    58    76    74   ar
    59    78    79   ar
    60    73    74    1
    61    73    70    1
    62    47    48    2
    63    74    75   ar
    64    72    71    2
    65    79    80    1
    66    79    77   ar
    67    75    77   ar
    68    71    70    1
    69    70    69    1
    70    69    63   am
    71    61    62    1
    72    65    62    1
    73    65    66    1
    74    63    62    1
    75    63    64    2
    76    66    67    1
    77    67    68    1
