@<TRIPOS>MOLECULE
tmp/5v8kA25.pdb
 152 146 0 0 0
SMALL
GASTEIGER

@<TRIPOS>ATOM
      1  N        151.4640   56.8070   23.9520 N.3     2  PRO2       -0.2116
      2  CA       150.7560   57.7580   23.0860 C.3     2  PRO2        0.1372
      3  C        150.6640   57.3330   21.6380 C.2     2  PRO2        0.2244
      4  O        149.6830   57.6780   20.9690 O.2     2  PRO2       -0.2868
      5  CB       151.5910   59.0290   23.2210 C.3     2  PRO2        0.0268
      6  CG       152.5020   58.8080   24.3230 C.3     2  PRO2        0.0207
      7  CD       152.6580   57.3860   24.5680 C.3     2  PRO2        0.0892
      8  N        154.5580   60.8240   14.5780 N.3    13  LYS13      -0.1231
      9  CA       154.9230   62.2140   14.8190 C.3    13  LYS13       0.1693
     10  C        154.7060   62.6750   16.2460 C.2    13  LYS13       0.2592
     11  O        155.2030   63.7390   16.6040 O.2    13  LYS13      -0.2718
     12  CB       154.1170   63.1560   13.9060 C.3    13  LYS13       0.0285
     13  CG       154.1740   62.7910   12.4360 C.3    13  LYS13       0.0035
     14  CD       153.7830   63.9740   11.5570 C.3    13  LYS13       0.0206
     15  CE       152.5260   63.7560   10.8770 C.3    13  LYS13       0.1093
     16  NZ       152.6060   62.5700    9.9960 N.3    13  LYS13      -0.1314
     17  N        153.9470   61.9440   17.0510 N.am   14  VAL14      -0.1966
     18  CA       153.6400   62.3700   18.4160 C.3    14  VAL14       0.1712
     19  C        154.8250   62.0310   19.3180 C.2    14  VAL14       0.2458
     20  O        155.3870   60.9380   19.1920 O.2    14  VAL14      -0.2730
     21  CB       152.3420   61.7160   18.9120 C.3    14  VAL14       0.0289
     22  CG1      152.4780   60.2130   19.0340 C.3    14  VAL14       0.0023
     23  CG2      151.9170   62.2980   20.2470 C.3    14  VAL14       0.0023
     24  N        155.2510   62.9230   20.2260 N.am   15  PRO15      -0.2727
     25  CA       156.2600   62.5240   21.2210 C.3    15  PRO15       0.1402
     26  C        155.8600   61.2470   21.9410 C.2    15  PRO15       0.2269
     27  O        154.8040   61.2020   22.5770 O.2    15  PRO15      -0.2865
     28  CB       156.3130   63.7240   22.1730 C.3    15  PRO15       0.0296
     29  CG       155.8480   64.8910   21.3370 C.3    15  PRO15       0.0237
     30  CD       154.8620   64.3380   20.3630 C.3    15  PRO15       0.0939
     31  N        158.3230   64.0200   25.4840 N.3    21  VAL21      -0.1245
     32  CA       157.2900   65.0020   25.7840 C.3    21  VAL21       0.1561
     33  C        157.9030   66.2040   26.4790 C.2    21  VAL21       0.2260
     34  O        157.6540   67.3600   26.1070 O.2    21  VAL21      -0.2867
     35  CB       156.1630   64.3660   26.6200 C.3    21  VAL21       0.0252
     36  CG1      155.1990   65.4390   27.1120 C.3    21  VAL21       0.0019
     37  CG2      155.3820   63.3860   25.7630 C.3    21  VAL21       0.0019
     38  N        159.6640   68.2970   24.0440 N.3    24  ALA24      -0.1231
     39  CA       158.7310   69.1010   23.2690 C.3    24  ALA24       0.1694
     40  C        158.2880   70.3190   24.0610 C.2    24  ALA24       0.2592
     41  O        158.1930   71.4170   23.5080 O.2    24  ALA24      -0.2718
     42  CB       157.5340   68.2530   22.8490 C.3    24  ALA24       0.0304
     43  N        158.0410   70.1500   25.3640 N.am   25  HIS25      -0.1976
     44  CA       157.6630   71.2830   26.1970 C.3    25  HIS25       0.1656
     45  C        158.7820   72.3160   26.2740 C.2    25  HIS25       0.2291
     46  O        158.5290   73.5180   26.1870 O.2    25  HIS25      -0.2864
     47  CB       157.2980   70.8020   27.5940 C.3    25  HIS25       0.0771
     48  CG       155.9970   70.0770   27.6700 C.ar   25  HIS25       0.0820
     49  ND1      155.4810   69.6230   28.8640 N.ar   25  HIS25      -0.2267
     50  CD2      155.1030   69.7220   26.7120 C.ar   25  HIS25       0.1154
     51  CE1      154.3290   69.0170   28.6410 C.ar   25  HIS25       0.1986
     52  NE2      154.0910   69.0480   27.3450 N.ar   25  HIS25      -0.2212
     53  N        158.9000   74.1450   23.1090 N.3    28  HIS28      -0.1226
     54  CA       157.8120   75.1010   23.0280 C.3    28  HIS28       0.1752
     55  C        158.1440   76.3830   23.7930 C.2    28  HIS28       0.2595
     56  O        157.8200   77.4770   23.3340 O.2    28  HIS28      -0.2718
     57  CB       156.5180   74.4960   23.5370 C.3    28  HIS28       0.0759
     58  CG       155.4490   75.5120   23.7050 C.ar   28  HIS28       0.0818
     59  ND1      155.0880   76.0150   24.9330 N.ar   28  HIS28      -0.2268
     60  CD2      154.7140   76.1790   22.7920 C.ar   28  HIS28       0.1154
     61  CE1      154.1430   76.9180   24.7720 C.ar   28  HIS28       0.1986
     62  NE2      153.9140   77.0480   23.4820 N.ar   28  HIS28      -0.2212
     63  N        158.7900   76.2720   24.9580 N.am   29  LEU29      -0.1980
     64  CA       159.2640   77.4690   25.6510 C.3    29  LEU29       0.1596
     65  C        160.2490   78.2600   24.7840 C.2    29  LEU29       0.2287
     66  O        160.1740   79.4940   24.7130 O.2    29  LEU29      -0.2864
     67  CB       159.9080   77.0870   26.9840 C.3    29  LEU29       0.0297
     68  CG       158.9370   76.4590   27.9870 C.3    29  LEU29       0.0022
     69  CD1      159.6640   75.9690   29.2020 C.3    29  LEU29       0.0001
     70  CD2      157.8270   77.3990   28.3680 C.3    29  LEU29       0.0001
     71  N        151.5960   62.9860   37.2850 N.3   113  MET113     -0.1245
     72  CA       150.9750   64.2450   36.8900 C.3   113  MET113      0.1570
     73  C        150.4550   65.0180   38.1000 C.2   113  MET113      0.2261
     74  O        150.4670   66.2510   38.0930 O.2   113  MET113     -0.2867
     75  CB       149.8690   63.9570   35.8680 C.3   113  MET113      0.0387
     76  CG       150.4350   63.8260   34.4510 C.3   113  MET113      0.0595
     77  SD       149.2910   63.5870   33.0780 S.3   113  MET113     -0.1393
     78  CE       148.7330   61.9130   33.3880 C.3   113  MET113      0.0692
     79  N        153.6730   66.7440   39.2830 N.3   116  ALA116     -0.1245
     80  CA       153.9110   67.8750   38.3970 C.3   116  ALA116      0.1562
     81  C        152.9700   69.0290   38.7150 C.2   116  ALA116      0.2260
     82  O        153.3500   70.1960   38.6090 O.2   116  ALA116     -0.2867
     83  CB       153.7380   67.4470   36.9410 C.3   116  ALA116      0.0290
     84  N        153.8940   72.8260   39.7060 N.3   120  GLN120     -0.1245
     85  CA       153.3810   73.9880   38.9780 C.3   120  GLN120      0.1566
     86  C        152.7570   75.0150   39.9180 C.2   120  GLN120      0.2260
     87  O        152.9280   76.2170   39.7190 O.2   120  GLN120     -0.2867
     88  CB       152.3830   73.5290   37.9110 C.3   120  GLN120      0.0367
     89  CG       153.0600   72.8200   36.7590 C.3   120  GLN120      0.0905
     90  CD       153.8810   73.7790   35.9020 C.2   120  GLN120      0.2608
     91  OE1      155.0160   74.1570   36.2550 O.2   120  GLN120     -0.2717
     92  NE2      153.3100   74.1690   34.7540 N.am  120  GLN120     -0.0878
     93  N        146.9590   60.8590   30.0590 N.3   200  TRP200     -0.1241
     94  CA       147.4330   62.1890   29.6850 C.3   200  TRP200      0.1605
     95  C        146.3990   62.9460   28.8490 C.2   200  TRP200      0.2264
     96  O        146.3320   64.1760   28.9080 O.2   200  TRP200     -0.2867
     97  CB       148.7590   62.0730   28.9160 C.3   200  TRP200      0.0550
     98  CG       148.6500   61.2570   27.6770 C.ar  200  TRP200      0.0003
     99  CD1      148.9400   59.9330   27.5410 C.ar  200  TRP200      0.0946
    100  CD2      148.2020   61.6980   26.3910 C.ar  200  TRP200      0.0152
    101  NE1      148.6980   59.5210   26.2550 N.ar  200  TRP200     -0.2442
    102  CE2      148.2310   60.5810   25.5310 C.ar  200  TRP200      0.0810
    103  CE3      147.7650   62.9240   25.8860 C.ar  200  TRP200      0.0012
    104  CZ2      147.8570   60.6560   24.1970 C.ar  200  TRP200      0.0191
    105  CZ3      147.3750   62.9990   24.5460 C.ar  200  TRP200      0.0001
    106  CH2      147.4160   61.8730   23.7220 C.ar  200  TRP200      0.0015
    107  N        143.8640   64.8100   31.2470 N.3   203  VAL203     -0.1231
    108  CA       144.4840   66.0260   31.7910 C.3   203  VAL203      0.1692
    109  C        144.5780   67.0970   30.7150 C.2   203  VAL203      0.2591
    110  O        144.1940   68.2490   30.9240 O.2   203  VAL203     -0.2718
    111  CB       145.8630   65.7070   32.3840 C.3   203  VAL203      0.0266
    112  CG1      146.5680   66.9920   32.8550 C.3   203  VAL203      0.0020
    113  CG2      145.6870   64.7560   33.5920 C.3   203  VAL203      0.0020
    114  N        145.0730   66.7230   29.5410 N.am  204  LEU204     -0.1980
    115  CA       145.2500   67.6860   28.4730 C.3   204  LEU204      0.1596
    116  C        143.9280   68.3350   28.1080 C.2   204  LEU204      0.2287
    117  O        143.8570   69.5640   27.9440 O.2   204  LEU204     -0.2864
    118  CB       145.8670   66.9930   27.2670 C.3   204  LEU204      0.0297
    119  CG       145.8620   67.8530   25.9990 C.3   204  LEU204      0.0022
    120  CD1      146.7090   69.0890   26.2020 C.3   204  LEU204      0.0001
    121  CD2      146.3700   67.0640   24.8300 C.3   204  LEU204      0.0001
    122  N        142.8740   70.8920   30.7200 N.3   207  SER207     -0.1202
    123  CA       143.6850   72.1050   30.6310 C.3   207  SER207      0.2020
    124  C        143.1900   73.0160   29.5090 C.2   207  SER207      0.2619
    125  O        143.0740   74.2390   29.6900 O.2   207  SER207     -0.2717
    126  CB       145.1590   71.7700   30.4140 C.3   207  SER207      0.2103
    127  OG       145.7330   71.1690   31.5730 O.3   207  SER207     -0.2182
    128  N        142.9190   72.4380   28.3320 N.am  208  CYS208     -0.1969
    129  CA       142.4270   73.2340   27.2170 C.3   208  CYS208      0.1712
    130  C        141.0870   73.8700   27.5410 C.2   208  CYS208      0.2296
    131  O        140.8650   75.0460   27.2500 O.2   208  CYS208     -0.2864
    132  CB       142.3050   72.3900   25.9480 C.3   208  CYS208      0.0983
    133  SG       143.8720   71.8410   25.2880 S.3   208  CYS208     -0.0798
    134  N        141.4380   76.6140   30.0990 N.3   211  LEU211     -0.1245
    135  CA       142.1040   77.7450   29.4580 C.3   211  LEU211      0.1561
    136  C        141.1220   78.5380   28.5910 C.2   211  LEU211      0.2260
    137  O        141.1590   79.7770   28.5630 O.2   211  LEU211     -0.2867
    138  CB       143.2960   77.2550   28.6400 C.3   211  LEU211      0.0270
    139  CG       144.1670   78.3570   28.0510 C.3   211  LEU211      0.0019
    140  CD1      144.9720   79.0000   29.1550 C.3   211  LEU211      0.0001
    141  CD2      145.0680   77.7770   26.9940 C.3   211  LEU211      0.0001
    142  N        140.6120   76.6790   21.7150 N.3   274  PHE274     -0.1241
    143  CA       140.9510   75.7780   22.8200 C.3   274  PHE274      0.1605
    144  C        139.7060   75.1000   23.3940 C.2   274  PHE274      0.2264
    145  O        139.7870   73.9650   23.8640 O.2   274  PHE274     -0.2867
    146  CB       141.6980   76.5210   23.9270 C.3   274  PHE274      0.0534
    147  CG       143.1860   76.6180   23.7030 C.ar  274  PHE274     -0.0203
    148  CD1      144.0010   75.5580   24.0340 C.ar  274  PHE274     -0.0042
    149  CD2      143.7610   77.7600   23.1550 C.ar  274  PHE274     -0.0042
    150  CE1      145.3690   75.6260   23.8200 C.ar  274  PHE274     -0.0003
    151  CE2      145.1190   77.8200   22.9370 C.ar  274  PHE274     -0.0003
    152  CZ       145.9240   76.7530   23.2780 C.ar  274  PHE274     -0.0000
@<TRIPOS>BOND
     1    16    15    1
     2    15    14    1
     3    14    13    1
     4    13    12    1
     5    12     9    1
     6     8     9    1
     7     9    10    1
     8    10    11    2
     9    10    17   am
    10    17    18    1
    11    18    21    1
    12    18    19    1
    13    21    22    1
    14    21    23    1
    15    20    19    2
    16    19    24   am
    17    24    30    1
    18    24    25    1
    19    30    29    1
    20     4     3    2
    21    25    26    1
    22    25    28    1
    23    29    28    1
    24     3     2    1
    25   142   143    1
    26    26    27    2
    27    60    62   ar
    28    60    58   ar
    29   143   144    1
    30   143   146    1
    31    42    39    1
    32   151   149   ar
    33   151   152   ar
    34    54    53    1
    35    54    57    1
    36    54    55    1
    37     2     5    1
    38     2     1    1
    39   149   147   ar
    40     5     6    1
    41    39    38    1
    42    39    40    1
    43   152   150   ar
    44    56    55    2
    45   144   145    2
    46    62    61   ar
    47    41    40    2
    48    57    58    1
    49   147   146    1
    50   147   148   ar
    51    58    59   ar
    52   106   104   ar
    53   106   105   ar
    54    55    63   am
    55   150   148   ar
    56     1     7    1
    57    40    43   am
    58   104   102   ar
    59     6     7    1
    60   105   103   ar
    61    66    65    2
    62    61    59   ar
    63    65    64    1
    64   121   119    1
    65    63    64    1
    66   133   132    1
    67    43    44    1
    68    31    32    1
    69   102   101   ar
    70   102   100   ar
    71    64    67    1
    72    37    35    1
    73    32    33    1
    74    32    35    1
    75   103   100   ar
    76   132   129    1
    77   119   120    1
    78   119   118    1
    79    34    33    2
    80    46    45    2
    81    44    45    1
    82    44    47    1
    83   101    99   ar
    84   100    98   ar
    85    35    36    1
    86    50    52   ar
    87    50    48   ar
    88    67    68    1
    89   141   139    1
    90   129   130    1
    91   129   128    1
    92   131   130    2
    93   118   115    1
    94    52    51   ar
    95    99    98   ar
    96    47    48    1
    97    48    49   ar
    98    98    97    1
    99   117   116    2
   100    68    70    1
   101    68    69    1
   102   139   138    1
   103   139   140    1
   104   116   115    1
   105   128   124   am
   106   115   114    1
   107   137   136    2
   108   136   135    1
   109   138   135    1
   110    51    49   ar
   111    95    96    2
   112    95    94    1
   113    97    94    1
   114   135   134    1
   115   124   125    2
   116   124   123    1
   117   114   109   am
   118    94    93    1
   119   126   123    1
   120   126   127    1
   121   123   122    1
   122   109   110    2
   123   109   108    1
   124   107   108    1
   125   108   111    1
   126   111   112    1
   127   111   113    1
   128    77    78    1
   129    77    76    1
   130    76    75    1
   131    92    90   am
   132    75    72    1
   133    90    91    2
   134    90    89    1
   135    89    88    1
   136    72    71    1
   137    72    73    1
   138    83    80    1
   139    88    85    1
   140    74    73    2
   141    80    81    1
   142    80    79    1
   143    82    81    2
   144    85    84    1
   145    85    86    1
   146    87    86    2
