@<TRIPOS>MOLECULE
tmp/5v8kA02.pdb
 145 140 0 0 0
SMALL
GASTEIGER

@<TRIPOS>ATOM
      1  N        155.6380   98.7290   30.8240 N.3    68  LEU68      -0.1245
      2  CA       156.7040   98.4020   31.7660 C.3    68  LEU68       0.1561
      3  C        157.5430   99.6110   32.1660 C.2    68  LEU68       0.2260
      4  O        158.4180   99.4820   33.0310 O.2    68  LEU68      -0.2867
      5  CB       157.6090   97.3310   31.1840 C.3    68  LEU68       0.0270
      6  CG       156.8650   96.0160   30.9210 C.3    68  LEU68       0.0019
      7  CD1      157.5540   95.2540   29.8380 C.3    68  LEU68       0.0001
      8  CD2      156.7860   95.1990   32.1950 C.3    68  LEU68       0.0001
      9  N        159.5430  101.2400   30.0870 N.3    70  LEU70      -0.1245
     10  CA       160.7430  101.2450   29.2770 C.3    70  LEU70       0.1561
     11  C        160.5760  102.1890   28.0890 C.2    70  LEU70       0.2260
     12  O        159.4780  102.6220   27.7590 O.2    70  LEU70      -0.2867
     13  CB       161.0500   99.8130   28.8150 C.3    70  LEU70       0.0270
     14  CG       161.2420   98.8160   29.9710 C.3    70  LEU70       0.0019
     15  CD1      161.4740   97.3840   29.4830 C.3    70  LEU70       0.0001
     16  CD2      162.3880   99.2500   30.9020 C.3    70  LEU70       0.0001
     17  N        167.7450   95.2200   23.9960 N.3    81  PHE81      -0.1227
     18  CA       168.2330   94.3910   25.0860 C.3    81  PHE81       0.1736
     19  C        167.2210   93.3090   25.4330 C.2    81  PHE81       0.2595
     20  O        167.5810   92.1450   25.6190 O.2    81  PHE81      -0.2718
     21  CB       168.5450   95.2410   26.3160 C.3    81  PHE81       0.0547
     22  CG       168.8980   94.4330   27.5490 C.ar   81  PHE81      -0.0202
     23  CD1      170.1670   93.8820   27.7110 C.ar   81  PHE81      -0.0042
     24  CD2      167.9650   94.2480   28.5500 C.ar   81  PHE81      -0.0042
     25  CE1      170.4980   93.1560   28.8620 C.ar   81  PHE81      -0.0003
     26  CE2      168.2800   93.5170   29.6930 C.ar   81  PHE81      -0.0003
     27  CZ       169.5480   92.9770   29.8450 C.ar   81  PHE81      -0.0000
     28  N        165.9440   93.6680   25.5150 N.am   82  VAL82      -0.1980
     29  CA       164.9180   92.6620   25.7860 C.3    82  VAL82       0.1595
     30  C        164.8920   91.6170   24.6760 C.2    82  VAL82       0.2287
     31  O        164.8100   90.4080   24.9370 O.2    82  VAL82      -0.2864
     32  CB       163.5470   93.3310   25.9730 C.3    82  VAL82       0.0276
     33  CG1      162.4290   92.2690   26.1000 C.3    82  VAL82       0.0022
     34  CG2      163.5440   94.2030   27.2130 C.3    82  VAL82       0.0022
     35  N        168.0790   89.2490   24.8310 N.3    85  MET85      -0.1230
     36  CA       168.0600   88.3030   25.9370 C.3    85  MET85       0.1702
     37  C        167.0430   87.1900   25.7150 C.2    85  MET85       0.2592
     38  O        167.2780   86.0530   26.1250 O.2    85  MET85      -0.2718
     39  CB       167.7850   89.0380   27.2480 C.3    85  MET85       0.0401
     40  CG       168.8460   90.0830   27.5970 C.3    85  MET85       0.0596
     41  SD       170.2500   89.3420   28.4050 S.3    85  MET85      -0.1393
     42  CE       171.1610   88.5410   27.1210 C.3    85  MET85       0.0692
     43  N        165.9020   87.4920   25.0960 N.am   86  HIS86      -0.1976
     44  CA       164.9360   86.4300   24.8330 C.3    86  HIS86       0.1656
     45  C        165.4130   85.4950   23.7430 C.2    86  HIS86       0.2291
     46  O        165.0530   84.3090   23.7520 O.2    86  HIS86      -0.2864
     47  CB       163.5730   87.0090   24.4640 C.3    86  HIS86       0.0771
     48  CG       162.8470   87.5200   25.6470 C.ar   86  HIS86       0.0820
     49  ND1      163.1020   88.7570   26.2020 N.ar   86  HIS86      -0.2267
     50  CD2      161.9500   86.9210   26.4510 C.ar   86  HIS86       0.1154
     51  CE1      162.3400   88.9150   27.2650 C.ar   86  HIS86       0.1986
     52  NE2      161.6350   87.8180   27.4360 N.ar   86  HIS86      -0.2212
     53  N        168.6720   84.7580   23.2900 N.3    88  LEU88      -0.1231
     54  CA       169.5880   83.9230   24.0510 C.3    88  LEU88       0.1693
     55  C        168.8380   82.8000   24.7500 C.2    88  LEU88       0.2591
     56  O        169.2190   81.6280   24.6540 O.2    88  LEU88      -0.2718
     57  CB       170.3520   84.7740   25.0810 C.3    88  LEU88       0.0284
     58  CG       171.3730   83.9850   25.9140 C.3    88  LEU88       0.0019
     59  CD1      172.3870   83.3380   25.0080 C.3    88  LEU88       0.0001
     60  CD2      172.1030   84.8520   26.9480 C.3    88  LEU88       0.0001
     61  N        167.7560   83.1520   25.4600 N.am   89  ALA89      -0.1980
     62  CA       166.9310   82.1540   26.1440 C.3    89  ALA89       0.1597
     63  C        166.3790   81.1240   25.1640 C.2    89  ALA89       0.2287
     64  O        166.4030   79.9210   25.4370 O.2    89  ALA89      -0.2864
     65  CB       165.7930   82.8550   26.8850 C.3    89  ALA89       0.0319
     66  N        169.1590   78.6850   24.1280 N.3    92  ILE92      -0.1245
     67  CA       169.5060   77.7850   25.2250 C.3    92  ILE92       0.1561
     68  C        168.4290   76.7170   25.3930 C.2    92  ILE92       0.2260
     69  O        168.7350   75.5440   25.6240 O.2    92  ILE92      -0.2867
     70  CB       169.7070   78.5810   26.5250 C.3    92  ILE92       0.0252
     71  CG1      170.9130   79.5170   26.4020 C.3    92  ILE92       0.0019
     72  CG2      169.9050   77.6410   27.7080 C.3    92  ILE92       0.0019
     73  CD1      171.1390   80.4130   27.6240 C.3    92  ILE92       0.0001
     74  N        156.5330   82.9560   40.5200 N.3   127  ILE127     -0.1245
     75  CA       156.3410   84.0160   39.5310 C.3   127  ILE127      0.1561
     76  C        155.4550   85.1220   40.0890 C.2   127  ILE127      0.2260
     77  O        155.7510   86.3120   39.9360 O.2   127  ILE127     -0.2867
     78  CB       155.7660   83.4530   38.2180 C.3   127  ILE127      0.0252
     79  CG1      156.8700   82.9290   37.3110 C.3   127  ILE127      0.0019
     80  CG2      155.1020   84.5440   37.4150 C.3   127  ILE127      0.0019
     81  CD1      157.7050   81.8610   37.8840 C.3   127  ILE127      0.0001
     82  N        157.4740   87.1700   42.8210 N.3   130  LEU130     -0.1231
     83  CA       158.5680   87.9620   42.2750 C.3   130  LEU130      0.1693
     84  C        158.0470   89.1280   41.4440 C.2   130  LEU130      0.2592
     85  O        158.6400   90.2160   41.4440 O.2   130  LEU130     -0.2718
     86  CB       159.4990   87.0770   41.4420 C.3   130  LEU130      0.0284
     87  CG       160.3170   85.9950   42.1490 C.3   130  LEU130      0.0019
     88  CD1      161.2610   85.3610   41.1470 C.3   130  LEU130      0.0001
     89  CD2      161.0880   86.5950   43.3490 C.3   130  LEU130      0.0001
     90  N        156.9360   88.9380   40.7350 N.am  131  TRP131     -0.1976
     91  CA       156.4420   90.0520   39.9290 C.3   131  TRP131      0.1640
     92  C        155.8450   91.1430   40.8080 C.2   131  TRP131      0.2290
     93  O        156.0400   92.3320   40.5380 O.2   131  TRP131     -0.2864
     94  CB       155.4210   89.5940   38.9030 C.3   131  TRP131      0.0576
     95  CG       154.9800   90.7780   38.0630 C.ar  131  TRP131      0.0006
     96  CD1      153.7500   91.3640   38.0290 C.ar  131  TRP131      0.0946
     97  CD2      155.8170   91.5490   37.1860 C.ar  131  TRP131      0.0152
     98  NE1      153.7700   92.4400   37.1620 N.ar  131  TRP131     -0.2442
     99  CE2      155.0280   92.5650   36.6370 C.ar  131  TRP131      0.0810
    100  CE3      157.1630   91.4670   36.8120 C.ar  131  TRP131      0.0012
    101  CZ2      155.5430   93.5010   35.7280 C.ar  131  TRP131      0.0191
    102  CZ3      157.6610   92.3810   35.9020 C.ar  131  TRP131      0.0001
    103  CH2      156.8660   93.3850   35.3860 C.ar  131  TRP131      0.0015
    104  N        156.9740   91.8120   43.6880 N.3   133  LEU133     -0.1231
    105  CA       158.1540   92.4630   44.2620 C.3   133  LEU133      0.1693
    106  C        158.8380   93.3630   43.2410 C.2   133  LEU133      0.2592
    107  O        159.3840   94.4180   43.5950 O.2   133  LEU133     -0.2718
    108  CB       159.1520   91.4140   44.7770 C.3   133  LEU133      0.0284
    109  CG       158.7350   90.5140   45.9360 C.3   133  LEU133      0.0019
    110  CD1      159.8270   89.5000   46.2250 C.3   133  LEU133      0.0001
    111  CD2      158.4300   91.3120   47.1760 C.3   133  LEU133      0.0001
    112  N        158.8330   92.9570   41.9700 N.am  134  HIS134     -0.1976
    113  CA       159.3880   93.8280   40.9400 C.3   134  HIS134      0.1656
    114  C        158.5800   95.1150   40.8280 C.2   134  HIS134      0.2291
    115  O        159.1410   96.2220   40.7760 O.2   134  HIS134     -0.2864
    116  CB       159.4210   93.1440   39.5740 C.3   134  HIS134      0.0771
    117  CG       159.7290   94.1110   38.4840 C.ar  134  HIS134      0.0820
    118  ND1      161.0140   94.3660   38.0710 N.ar  134  HIS134     -0.2267
    119  CD2      158.9370   94.9710   37.8030 C.ar  134  HIS134      0.1154
    120  CE1      160.9980   95.2930   37.1320 C.ar  134  HIS134      0.1986
    121  NE2      159.7540   95.6920   36.9640 N.ar  134  HIS134     -0.2212
    122  N        160.8540   98.2030   41.9150 N.3   138  TYR138     -0.1227
    123  CA       161.4070   98.7600   40.6820 C.3   138  TYR138      0.1736
    124  C        160.3700   99.4420   39.8090 C.2   138  TYR138      0.2596
    125  O        160.6980  100.4100   39.1310 O.2   138  TYR138     -0.2718
    126  CB       162.1340   97.6560   39.8970 C.3   138  TYR138      0.0548
    127  CG       163.2250   97.0330   40.7770 C.ar  138  TYR138     -0.0200
    128  CD1      164.4610   97.6630   40.9470 C.ar  138  TYR138     -0.0009
    129  CD2      162.9970   95.8480   41.4810 C.ar  138  TYR138     -0.0009
    130  CE1      165.4510   97.1120   41.7700 C.ar  138  TYR138      0.0417
    131  CE2      163.9670   95.2910   42.2910 C.ar  138  TYR138      0.0417
    132  CZ       165.1940   95.9250   42.4420 C.ar  138  TYR138      0.1957
    133  OH       166.1560   95.3660   43.2620 O.3   138  TYR138     -0.2866
    134  N        159.1300   98.9710   39.8150 N.am  139  GLY139     -0.1957
    135  CA       158.0250   99.7500   39.3120 C.3   139  GLY139      0.1869
    136  C        157.6080   99.3630   37.9110 C.2   139  GLY139      0.2309
    137  O        158.1940   98.5000   37.2560 O.2   139  GLY139     -0.2863
    138  N        158.5030  105.6080   34.8990 N.3   147  LEU147     -0.1245
    139  CA       158.6250  104.4160   35.7190 C.3   147  LEU147      0.1561
    140  C        158.4840  104.8080   37.1860 C.2   147  LEU147      0.2260
    141  O        159.1080  105.7620   37.6370 O.2   147  LEU147     -0.2867
    142  CB       159.9800  103.7530   35.4480 C.3   147  LEU147      0.0270
    143  CG       160.3850  102.5560   36.3110 C.3   147  LEU147      0.0019
    144  CD1      159.5610  101.3930   35.9500 C.3   147  LEU147      0.0001
    145  CD2      161.8700  102.2170   36.1550 C.3   147  LEU147      0.0001
@<TRIPOS>BOND
     1    53    54    1
     2    45    46    2
     3    45    44    1
     4    17    18    1
     5    54    55    1
     6    54    57    1
     7    66    67    1
     8    47    44    1
     9    47    48    1
    10    56    55    2
    11    30    31    2
    12    30    29    1
    13    55    61   am
    14    35    36    1
    15    44    43    1
    16    59    58    1
    17    57    58    1
    18    18    19    1
    19    18    21    1
    20    43    37   am
    21    63    64    2
    22    63    62    1
    23    67    68    1
    24    67    70    1
    25    68    69    2
    26    19    28   am
    27    19    20    2
    28    61    62    1
    29    28    29    1
    30    48    49   ar
    31    48    50   ar
    32    37    36    1
    33    37    38    2
    34    29    32    1
    35    58    60    1
    36    36    39    1
    37    32    33    1
    38    32    34    1
    39    62    65    1
    40    49    51   ar
    41    21    22    1
    42    71    70    1
    43    71    73    1
    44    50    52   ar
    45    70    72    1
    46    42    41    1
    47    39    40    1
    48    51    52   ar
    49    22    23   ar
    50    22    24   ar
    51    40    41    1
    52    23    25   ar
    53    12    11    2
    54    11    10    1
    55    24    26   ar
    56    13    10    1
    57    13    14    1
    58    25    27   ar
    59    10     9    1
    60    15    14    1
    61    26    27   ar
    62     7     6    1
    63    14    16    1
    64     1     2    1
    65     6     5    1
    66     6     8    1
    67     5     2    1
    68     2     3    1
    69     3     4    2
    70   138   139    1
    71   103   101   ar
    72   103   102   ar
    73   142   139    1
    74   142   143    1
    75   139   140    1
    76   101    99   ar
    77   102   100   ar
    78   144   143    1
    79   145   143    1
    80    99    98   ar
    81    99    97   ar
    82   100    97   ar
    83   121   120   ar
    84   121   119   ar
    85   120   118   ar
    86    98    96   ar
    87   140   141    2
    88    97    95   ar
    89   137   136    2
    90    79    81    1
    91    79    78    1
    92    80    78    1
    93   119   117   ar
    94   136   135    1
    95    96    95   ar
    96    95    94    1
    97   118   117   ar
    98    78    75    1
    99   117   116    1
   100    94    91    1
   101   125   124    2
   102   135   134    1
   103    75    76    1
   104    75    74    1
   105   116   113    1
   106   124   134   am
   107   124   123    1
   108   126   123    1
   109   126   127    1
   110    91    90    1
   111    91    92    1
   112    77    76    2
   113    93    92    2
   114   123   122    1
   115    90    84   am
   116   115   114    2
   117   127   128   ar
   118   127   129   ar
   119   114   113    1
   120   113   112    1
   121   128   130   ar
   122    88    87    1
   123    86    87    1
   124    86    83    1
   125    84    85    2
   126    84    83    1
   127   129   131   ar
   128   130   132   ar
   129   112   106   am
   130    87    89    1
   131    83    82    1
   132   131   132   ar
   133   132   133    1
   134   106   107    2
   135   106   105    1
   136   104   105    1
   137   105   108    1
   138   108   109    1
   139   109   110    1
   140   109   111    1
