@<TRIPOS>MOLECULE
tmp/5v8kA30.pdb
 97 94 0 0 0
SMALL
GASTEIGER

@<TRIPOS>ATOM
      1  N        153.5360   58.2810   14.0490 N.3    12  LEU12      -0.1231
      2  CA       154.9440   58.5230   13.7560 C.3    12  LEU12       0.1693
      3  C        155.4100   59.9510   14.0530 C.2    12  LEU12       0.2591
      4  O        156.5640   60.2770   13.7710 O.2    12  LEU12      -0.2718
      5  CB       155.2180   58.2050   12.2760 C.3    12  LEU12       0.0284
      6  CG       154.6160   59.1950   11.2470 C.3    12  LEU12       0.0019
      7  CD1      155.4560   59.2020    9.9840 C.3    12  LEU12       0.0001
      8  CD2      153.1460   58.9140   10.8800 C.3    12  LEU12       0.0001
      9  N        154.5580   60.8240   14.5780 N.am   13  LYS13      -0.1980
     10  CA       154.9230   62.2140   14.8190 C.3    13  LYS13       0.1596
     11  C        154.7060   62.6750   16.2460 C.2    13  LYS13       0.2287
     12  O        155.2030   63.7390   16.6040 O.2    13  LYS13      -0.2864
     13  CB       154.1170   63.1560   13.9060 C.3    13  LYS13       0.0298
     14  CG       154.1740   62.7910   12.4360 C.3    13  LYS13       0.0038
     15  CD       153.7830   63.9740   11.5570 C.3    13  LYS13       0.0206
     16  CE       152.5260   63.7560   10.8770 C.3    13  LYS13       0.1093
     17  NZ       152.6060   62.5700    9.9960 N.3    13  LYS13      -0.1314
     18  N        155.2510   62.9230   20.2260 N.3    15  PRO15      -0.2116
     19  CA       156.2600   62.5240   21.2210 C.3    15  PRO15       0.1372
     20  C        155.8600   61.2470   21.9410 C.2    15  PRO15       0.2244
     21  O        154.8040   61.2020   22.5770 O.2    15  PRO15      -0.2868
     22  CB       156.3130   63.7240   22.1730 C.3    15  PRO15       0.0268
     23  CG       155.8480   64.8910   21.3370 C.3    15  PRO15       0.0207
     24  CD       154.8620   64.3380   20.3630 C.3    15  PRO15       0.0892
     25  N        160.6580   62.5020   25.5900 N.3    20  ALA20      -0.1245
     26  CA       160.3600   63.2520   24.3730 C.3    20  ALA20       0.1562
     27  C        159.2870   64.3050   24.6050 C.2    20  ALA20       0.2260
     28  O        159.3090   65.3690   23.9680 O.2    20  ALA20      -0.2867
     29  CB       159.9170   62.2940   23.2690 C.3    20  ALA20       0.0290
     30  N        160.9460   67.2080   26.2660 N.3    23  LYS23      -0.1231
     31  CA       161.7310   67.9480   25.2840 C.3    23  LYS23       0.1693
     32  C        160.8380   68.8110   24.4090 C.2    23  LYS23       0.2591
     33  O        161.1950   69.9400   24.0700 O.2    23  LYS23      -0.2718
     34  CB       162.5410   66.9900   24.4290 C.3    23  LYS23       0.0285
     35  CG       163.6240   66.2480   25.2210 C.3    23  LYS23       0.0035
     36  CD       164.7870   67.1300   25.6050 C.3    23  LYS23       0.0206
     37  CE       165.6830   66.3720   26.5650 C.3    23  LYS23       0.1093
     38  NZ       166.7260   67.2560   27.0970 N.3    23  LYS23      -0.1314
     39  N        159.6640   68.2970   24.0440 N.am   24  ALA24      -0.1980
     40  CA       158.7310   69.1010   23.2690 C.3    24  ALA24       0.1597
     41  C        158.2880   70.3190   24.0610 C.2    24  ALA24       0.2287
     42  O        158.1930   71.4170   23.5080 O.2    24  ALA24      -0.2864
     43  CB       157.5340   68.2530   22.8490 C.3    24  ALA24       0.0319
     44  N        161.1230   72.8180   24.0100 N.3    27  ASN27      -0.1225
     45  CA       161.2140   73.4920   22.7200 C.3    27  ASN27       0.1785
     46  C        160.0640   74.4610   22.5410 C.2    27  ASN27       0.2597
     47  O        160.2240   75.5090   21.9090 O.2    27  ASN27      -0.2718
     48  CB       161.2300   72.4910   21.5690 C.3    27  ASN27       0.1169
     49  CG       162.5280   71.7220   21.4820 C.2    27  ASN27       0.2627
     50  OD1      163.6090   72.2490   21.7610 O.2    27  ASN27      -0.2716
     51  ND2      162.4320   70.4720   21.0750 N.am   27  ASN27      -0.0877
     52  N        158.9000   74.1450   23.1090 N.am   28  HIS28      -0.1975
     53  CA       157.8120   75.1010   23.0280 C.3    28  HIS28       0.1656
     54  C        158.1440   76.3830   23.7930 C.2    28  HIS28       0.2291
     55  O        157.8200   77.4770   23.3340 O.2    28  HIS28      -0.2864
     56  CB       156.5180   74.4960   23.5370 C.3    28  HIS28       0.0771
     57  CG       155.4490   75.5120   23.7050 C.ar   28  HIS28       0.0820
     58  ND1      155.0880   76.0150   24.9330 N.ar   28  HIS28      -0.2267
     59  CD2      154.7140   76.1790   22.7920 C.ar   28  HIS28       0.1154
     60  CE1      154.1430   76.9180   24.7720 C.ar   28  HIS28       0.1986
     61  NE2      153.9140   77.0480   23.4820 N.ar   28  HIS28      -0.2212
     62  N        160.0960   78.4280   21.5960 N.3    31  ASN31      -0.1240
     63  CA       159.2780   79.1330   20.6170 C.3    31  ASN31       0.1653
     64  C        158.7060   80.4170   21.2040 C.2    31  ASN31       0.2266
     65  O        158.6360   81.4490   20.5280 O.2    31  ASN31      -0.2867
     66  CB       158.1400   78.2320   20.1420 C.3    31  ASN31       0.1155
     67  CG       158.5960   77.1560   19.1870 C.2    31  ASN31       0.2627
     68  OD1      159.7860   76.9420   18.9520 O.2    31  ASN31      -0.2716
     69  ND2      157.6210   76.4770   18.6050 N.am   31  ASN31      -0.0877
     70  N        166.1090   75.7130   23.0490 N.3    94  TRP94      -0.1241
     71  CA       166.1230   74.8040   21.9050 C.3    94  TRP94       0.1605
     72  C        167.3550   73.9020   21.9310 C.2    94  TRP94       0.2264
     73  O        167.3060   72.7600   21.4540 O.2    94  TRP94      -0.2867
     74  CB       166.1080   75.5790   20.5950 C.3    94  TRP94       0.0550
     75  CG       164.8130   76.1890   20.1700 C.ar   94  TRP94       0.0003
     76  CD1      163.5390   75.7320   20.4150 C.ar   94  TRP94       0.0946
     77  CD2      164.6720   77.3740   19.3970 C.ar   94  TRP94       0.0152
     78  NE1      162.6200   76.5590   19.8270 N.ar   94  TRP94      -0.2442
     79  CE2      163.2880   77.5850   19.2020 C.ar   94  TRP94       0.0810
     80  CE3      165.5820   78.2770   18.8360 C.ar   94  TRP94       0.0012
     81  CZ2      162.8020   78.6770   18.4820 C.ar   94  TRP94       0.0191
     82  CZ3      165.0950   79.3540   18.1190 C.ar   94  TRP94       0.0001
     83  CH2      163.7320   79.5450   17.9450 C.ar   94  TRP94       0.0015
     84  N        166.5850   71.3560   24.2620 N.3    97  GLY97      -0.1210
     85  CA       165.4220   70.6470   23.7520 C.3    97  GLY97       0.1956
     86  C        165.7260   69.6490   22.6490 C.2    97  GLY97       0.2611
     87  O        164.9040   68.7700   22.3820 O.2    97  GLY97      -0.2717
     88  N        166.8970   69.7430   22.0230 N.am   98  HIS98      -0.1975
     89  CA       167.2440   68.8570   20.9220 C.3    98  HIS98       0.1656
     90  C        168.4200   67.9470   21.2430 C.2    98  HIS98       0.2291
     91  O        169.0180   67.3840   20.3180 O.2    98  HIS98      -0.2864
     92  CB       167.5350   69.6750   19.6690 C.3    98  HIS98       0.0771
     93  CG       166.3280   70.3750   19.1310 C.ar   98  HIS98       0.0820
     94  ND1      165.7630   71.4620   19.7560 N.ar   98  HIS98      -0.2267
     95  CD2      165.5780   70.1420   18.0320 C.ar   98  HIS98       0.1154
     96  CE1      164.7250   71.8810   19.0550 C.ar   98  HIS98       0.1986
     97  NE2      164.5920   71.0960   18.0010 N.ar   98  HIS98      -0.2212
@<TRIPOS>BOND
     1     7     6    1
     2    17    16    1
     3    16    15    1
     4     8     6    1
     5     6     5    1
     6    15    14    1
     7     5     2    1
     8    14    13    1
     9     2     1    1
    10     2     3    1
    11     4     3    2
    12    13    10    1
    13     3     9   am
    14     9    10    1
    15    10    11    1
    16    11    12    2
    17    83    82   ar
    18    83    81   ar
    19    97    95   ar
    20    97    96   ar
    21    95    93   ar
    22    82    80   ar
    23    81    79   ar
    24    69    67   am
    25    80    77   ar
    26    68    67    2
    27    96    94   ar
    28    93    92    1
    29    93    94   ar
    30    67    66    1
    31    79    77   ar
    32    79    78   ar
    33    77    75   ar
    34    92    89    1
    35    78    76   ar
    36    66    63    1
    37    75    76   ar
    38    75    74    1
    39    18    24    1
    40    18    19    1
    41    91    90    2
    42    24    23    1
    43    65    64    2
    44    74    71    1
    45    63    64    1
    46    63    62    1
    47    89    90    1
    48    89    88    1
    49    51    49   am
    50    19    20    1
    51    19    22    1
    52    23    22    1
    53    73    72    2
    54    49    48    1
    55    49    50    2
    56    48    45    1
    57    71    72    1
    58    71    70    1
    59    47    46    2
    60    20    21    2
    61    88    86   am
    62    87    86    2
    63    46    45    1
    64    46    52   am
    65    86    85    1
    66    45    44    1
    67    59    61   ar
    68    59    57   ar
    69    43    40    1
    70    53    52    1
    71    53    56    1
    72    53    54    1
    73    29    26    1
    74    40    39    1
    75    40    41    1
    76    55    54    2
    77    61    60   ar
    78    42    41    2
    79    56    57    1
    80    57    58   ar
    81    85    84    1
    82    28    27    2
    83    39    32   am
    84    33    32    2
    85    26    27    1
    86    26    25    1
    87    32    31    1
    88    34    35    1
    89    34    31    1
    90    60    58   ar
    91    35    36    1
    92    31    30    1
    93    36    37    1
    94    37    38    1
