@<TRIPOS>MOLECULE
tmp/5v8kA18.pdb
 202 196 0 0 0
SMALL
GASTEIGER

@<TRIPOS>ATOM
      1  N        145.4250   59.3300   16.2530 N.3     7  PHE7       -0.1227
      2  CA       145.0390   58.9440   14.9080 C.3     7  PHE7        0.1736
      3  C        146.2560   58.5310   14.0880 C.2     7  PHE7        0.2595
      4  O        147.3800   58.9960   14.3090 O.2     7  PHE7       -0.2718
      5  CB       144.3000   60.0940   14.2180 C.3     7  PHE7        0.0547
      6  CG       142.9690   60.4230   14.8280 C.ar    7  PHE7       -0.0202
      7  CD1      142.1850   59.4390   15.4120 C.ar    7  PHE7       -0.0042
      8  CD2      142.4680   61.7090   14.7560 C.ar    7  PHE7       -0.0042
      9  CE1      140.9540   59.7360   15.9600 C.ar    7  PHE7       -0.0003
     10  CE2      141.2350   62.0220   15.2930 C.ar    7  PHE7       -0.0003
     11  CZ       140.4710   61.0380   15.8940 C.ar    7  PHE7       -0.0000
     12  N        145.9900   57.6930   13.0890 N.am    8  GLU8       -0.1965
     13  CA       147.0320   56.9910   12.3510 C.3     8  GLU8        0.1733
     14  C        148.1150   57.9370   11.8720 C.2     8  GLU8        0.2616
     15  O        149.3060   57.6900   12.0720 O.2     8  GLU8       -0.2715
     16  CB       146.3980   56.2450   11.1720 C.3     8  GLU8        0.0429
     17  CG       145.3810   55.2040   11.6410 C.3     8  GLU8        0.1163
     18  CD       146.1040   53.8880   11.8450 C.2     8  GLU8        0.3649
     19  OE1      147.3350   53.7680   11.6350 O.co2   8  GLU8       -0.2457
     20  OE2      145.4460   52.9360   12.2780 O.co2   8  GLU8       -0.2457
     21  N        147.7110   59.0500   11.2700 N.am    9  TYR9       -0.1960
     22  CA       148.6460   59.9940   10.6760 C.3     9  TYR9        0.1771
     23  C        149.6660   60.5370   11.6730 C.2     9  TYR9        0.2619
     24  O        150.7340   61.0030   11.2650 O.2     9  TYR9       -0.2715
     25  CB       147.8360   61.1280   10.0730 C.3     9  TYR9        0.0574
     26  CG       148.6270   62.2110    9.4540 C.ar    9  TYR9       -0.0198
     27  CD1      149.1960   62.0490    8.2060 C.ar    9  TYR9       -0.0009
     28  CD2      148.8150   63.4110   10.1160 C.ar    9  TYR9       -0.0009
     29  CE1      149.9300   63.0610    7.6270 C.ar    9  TYR9        0.0417
     30  CE2      149.5490   64.4270    9.5500 C.ar    9  TYR9        0.0417
     31  CZ       150.0990   64.2460    8.2970 C.ar    9  TYR9        0.1957
     32  OH       150.8460   65.2430    7.7060 O.3     9  TYR9       -0.2866
     33  N        149.3450   60.5260   12.9590 N.am   10  PHE10      -0.1974
     34  CA       150.1840   61.1380   13.9710 C.3    10  PHE10       0.1639
     35  C        150.9840   60.1190   14.7970 C.2    10  PHE10       0.2290
     36  O        151.7460   60.5220   15.6700 O.2    10  PHE10      -0.2864
     37  CB       149.3160   61.9830   14.9000 C.3    10  PHE10       0.0560
     38  CG       148.6590   63.1660   14.2250 C.ar   10  PHE10      -0.0200
     39  CD1      149.3390   64.3630   14.0870 C.ar   10  PHE10      -0.0042
     40  CD2      147.3570   63.0860   13.7480 C.ar   10  PHE10      -0.0042
     41  CE1      148.7290   65.4550   13.4840 C.ar   10  PHE10      -0.0003
     42  CE2      146.7560   64.1680   13.1500 C.ar   10  PHE10      -0.0003
     43  CZ       147.4490   65.3490   13.0120 C.ar   10  PHE10      -0.0000
     44  N        139.0680   78.3040   19.9440 N.3   273  MET273     -0.1245
     45  CA       139.8900   77.2040   19.4090 C.3   273  MET273      0.1570
     46  C        140.2630   76.1890   20.5450 C.2   273  MET273      0.2261
     47  O        140.2530   74.9880   20.3600 O.2   273  MET273     -0.2867
     48  CB       141.1640   77.6520   18.6130 C.3   273  MET273      0.0387
     49  CG       140.9380   78.3090   17.2670 C.3   273  MET273      0.0595
     50  SD       142.3170   79.3050   16.7330 S.3   273  MET273     -0.1393
     51  CE       143.5820   78.1140   16.4120 C.3   273  MET273      0.0692
     52  N        138.0440   58.8910   13.1730 N.3   421  GLU421     -0.1245
     53  CA       138.6510   59.6750   12.0990 C.3   421  GLU421      0.1567
     54  C        138.1750   59.3470   10.7010 C.2   421  GLU421      0.2260
     55  O        138.4740   60.1320    9.7880 O.2   421  GLU421     -0.2867
     56  CB       140.1850   59.5310   12.1120 C.3   421  GLU421      0.0388
     57  CG       140.6980   58.0900   12.0300 C.3   421  GLU421      0.1160
     58  CD       142.2310   58.0020   11.8530 C.2   421  GLU421      0.3649
     59  OE1      142.7520   58.6160   10.9030 O.co2 421  GLU421     -0.2457
     60  OE2      142.9110   57.3190   12.6510 O.co2 421  GLU421     -0.2457
     61  N        136.0340   63.2620   14.5450 N.3   438  VAL438     -0.1245
     62  CA       136.8570   64.3760   14.0670 C.3   438  VAL438      0.1561
     63  C        136.0580   65.2530   13.0930 C.2   438  VAL438      0.2260
     64  O        136.2570   66.4740   13.0280 O.2   438  VAL438     -0.2867
     65  CB       138.1940   63.8750   13.4590 C.3   438  VAL438      0.0252
     66  CG1      138.0240   63.2940   12.0430 C.3   438  VAL438      0.0019
     67  CG2      139.1800   64.9840   13.4550 C.3   438  VAL438      0.0019
     68  N        134.2740   67.6540   15.0970 N.3   441  PHE441     -0.1227
     69  CA       135.2220   68.6870   15.5030 C.3   441  PHE441      0.1736
     70  C        135.3160   69.7920   14.4580 C.2   441  PHE441      0.2595
     71  O        135.1980   70.9740   14.7850 O.2   441  PHE441     -0.2718
     72  CB       136.6000   68.0790   15.7620 C.3   441  PHE441      0.0547
     73  CG       137.7050   69.1040   15.7480 C.ar  441  PHE441     -0.0202
     74  CD1      137.9210   69.9030   16.8390 C.ar  441  PHE441     -0.0042
     75  CD2      138.4590   69.2970   14.6190 C.ar  441  PHE441     -0.0042
     76  CE1      138.9060   70.8640   16.8350 C.ar  441  PHE441     -0.0003
     77  CE2      139.4670   70.2870   14.5720 C.ar  441  PHE441     -0.0003
     78  CZ       139.6970   71.0740   15.6900 C.ar  441  PHE441     -0.0000
     79  N        135.5320   69.4300   13.1870 N.am  442  TYR442     -0.1976
     80  CA       135.5980   70.4460   12.1370 C.3   442  TYR442      0.1639
     81  C        134.3180   71.2570   12.0970 C.2   442  TYR442      0.2290
     82  O        134.3550   72.4760   11.8720 O.2   442  TYR442     -0.2864
     83  CB       135.8380   69.8220   10.7600 C.3   442  TYR442      0.0560
     84  CG       137.0490   68.9660   10.6240 C.ar  442  TYR442     -0.0198
     85  CD1      138.2840   69.3760   11.1040 C.ar  442  TYR442     -0.0009
     86  CD2      136.9680   67.7250   10.0190 C.ar  442  TYR442     -0.0009
     87  CE1      139.3750   68.5760   11.0020 C.ar  442  TYR442      0.0417
     88  CE2      138.0920   66.8970    9.8940 C.ar  442  TYR442      0.0417
     89  CZ       139.3100   67.3460   10.3830 C.ar  442  TYR442      0.1957
     90  OH       140.4500   66.5340   10.3290 O.3   442  TYR442     -0.2866
     91  N        134.1540   73.9290   14.6010 N.3   445  ILE445     -0.1245
     92  CA       135.0030   75.0480   14.1910 C.3   445  ILE445      0.1561
     93  C        134.2540   75.9590   13.2220 C.2   445  ILE445      0.2260
     94  O        134.2930   77.1840   13.3460 O.2   445  ILE445     -0.2867
     95  CB       136.3140   74.5360   13.5670 C.3   445  ILE445      0.0252
     96  CG1      137.1670   73.7420   14.5990 C.3   445  ILE445      0.0019
     97  CG2      137.0960   75.6990   12.9630 C.3   445  ILE445      0.0019
     98  CD1      137.7300   74.6080   15.7610 C.3   445  ILE445      0.0001
     99  N        135.8300   65.1090   -4.4070 N.3   543  ARG543     -0.1245
    100  CA       137.2050   64.6520   -4.3190 C.3   543  ARG543      0.1563
    101  C        137.5660   63.7140   -5.4600 C.2   543  ARG543      0.2260
    102  O        138.6870   63.7660   -5.9780 O.2   543  ARG543     -0.2867
    103  CB       137.4310   63.9640   -2.9980 C.3   543  ARG543      0.0307
    104  CG       138.9350   63.7720   -2.7030 C.3   543  ARG543      0.0489
    105  CD       139.4480   62.4070   -3.1530 C.3   543  ARG543      0.2205
    106  NE       140.8990   62.3230   -3.0560 N.pl3 543  ARG543     -0.0865
    107  CZ       141.5870   61.2280   -3.3400 C.cat 543  ARG543      0.5346
    108  NH1      140.9500   60.1500   -3.7530 N.pl3 543  ARG543      0.1354
    109  NH2      142.9000   61.2150   -3.2270 N.pl3 543  ARG543      0.1354
    110  N        148.4180   62.9090   -6.6280 N.3   571  ARG571     -0.1245
    111  CA       147.0330   62.5460   -6.3270 C.3   571  ARG571      0.1563
    112  C        146.3700   63.7760   -5.7500 C.2   571  ARG571      0.2260
    113  O        147.0400   64.7450   -5.3620 O.2   571  ARG571     -0.2867
    114  CB       146.9480   61.3660   -5.3490 C.3   571  ARG571      0.0307
    115  CG       147.6820   61.6190   -4.0420 C.3   571  ARG571      0.0489
    116  CD       147.3340   60.5790   -3.0010 C.3   571  ARG571      0.2205
    117  NE       148.0110   60.8300   -1.7190 N.pl3 571  ARG571     -0.0865
    118  CZ       147.5720   61.6580   -0.7710 C.cat 571  ARG571      0.5346
    119  NH1      146.4330   62.3670   -0.9190 N.pl3 571  ARG571      0.1354
    120  NH2      148.2630   61.7720    0.3520 N.pl3 571  ARG571      0.1354
    121  N        143.2330   63.6980   -0.0600 N.3   574  SER574     -0.1217
    122  CA       142.2210   62.7210    0.2990 C.3   574  SER574      0.1889
    123  C        141.0660   63.3940    1.0270 C.2   574  SER574      0.2288
    124  O        141.1270   64.5700    1.3800 O.2   574  SER574     -0.2866
    125  CB       142.8240   61.6280    1.1740 C.3   574  SER574      0.2089
    126  OG       143.2460   62.1400    2.4320 O.3   574  SER574     -0.2183
    127  N        140.0720   62.9280    4.0620 N.3   576  LYS576     -0.1231
    128  CA       140.5060   63.3190    5.4010 C.3   576  LYS576      0.1693
    129  C        141.4260   64.5360    5.3750 C.2   576  LYS576      0.2591
    130  O        141.2690   65.4530    6.1930 O.2   576  LYS576     -0.2718
    131  CB       141.2150   62.1480    6.0800 C.3   576  LYS576      0.0285
    132  CG       140.3330   60.9880    6.3050 C.3   576  LYS576      0.0035
    133  CD       141.1020   59.7220    6.6640 C.3   576  LYS576      0.0206
    134  CE       141.4460   59.6910    8.1090 C.3   576  LYS576      0.1093
    135  NZ       141.7820   58.3260    8.5130 N.3   576  LYS576     -0.1314
    136  N        142.3980   64.5540    4.4520 N.am  577  GLU577     -0.1979
    137  CA       143.3390   65.6710    4.3690 C.3   577  GLU577      0.1602
    138  C        142.6260   66.9370    3.9460 C.2   577  GLU577      0.2287
    139  O        142.8410   68.0080    4.5250 O.2   577  GLU577     -0.2864
    140  CB       144.4760   65.3860    3.3750 C.3   577  GLU577      0.0415
    141  CG       145.3130   64.1920    3.6580 C.3   577  GLU577      0.1163
    142  CD       146.1790   63.7510    2.4680 C.2   577  GLU577      0.3649
    143  OE1      145.8070   63.9850    1.2940 O.co2 577  GLU577     -0.2457
    144  OE2      147.2350   63.1240    2.7170 O.co2 577  GLU577     -0.2457
    145  N        140.4750   68.4820    6.7630 N.3   580  ALA580     -0.1231
    146  CA       141.2900   69.1270    7.7920 C.3   580  ALA580      0.1694
    147  C        141.8800   70.4550    7.3050 C.2   580  ALA580      0.2591
    148  O        141.8160   71.4790    8.0040 O.2   580  ALA580     -0.2718
    149  CB       142.4260   68.2110    8.2440 C.3   580  ALA580      0.0304
    150  N        142.4660   70.4510    6.1100 N.am  581  ILE581     -0.1980
    151  CA       143.1130   71.6470    5.5650 C.3   581  ILE581      0.1595
    152  C        142.0550   72.6650    5.1400 C.2   581  ILE581      0.2287
    153  O        142.2080   73.8810    5.3320 O.2   581  ILE581     -0.2864
    154  CB       144.0210   71.2600    4.3820 C.3   581  ILE581      0.0276
    155  CG1      145.1790   70.4100    4.8720 C.3   581  ILE581      0.0022
    156  CG2      144.5300   72.5100    3.6320 C.3   581  ILE581      0.0022
    157  CD1      145.9670   69.7260    3.7530 C.3   581  ILE581      0.0001
    158  N        139.0150   73.0280    6.4050 N.3   583  CYS583     -0.1221
    159  CA       138.4320   73.6560    7.5760 C.3   583  CYS583      0.1808
    160  C        139.3960   74.6720    8.1700 C.2   583  CYS583      0.2601
    161  O        139.0060   75.8010    8.4640 O.2   583  CYS583     -0.2717
    162  CB       138.0310   72.5950    8.6010 C.3   583  CYS583      0.0970
    163  SG       137.4610   73.2580   10.1970 S.3   583  CYS583     -0.0800
    164  N        140.6590   74.2800    8.3530 N.am  584  PHE584     -0.1962
    165  CA       141.6670   75.1830    8.8970 C.3   584  PHE584      0.1771
    166  C        141.7190   76.4900    8.1090 C.2   584  PHE584      0.2619
    167  O        141.6590   77.5770    8.6880 O.2   584  PHE584     -0.2715
    168  CB       143.0580   74.5220    8.9060 C.3   584  PHE584      0.0574
    169  CG       144.1240   75.4560    9.3330 C.ar  584  PHE584     -0.0200
    170  CD1      144.3140   75.7150   10.6790 C.ar  584  PHE584     -0.0042
    171  CD2      144.8730   76.1450    8.4100 C.ar  584  PHE584     -0.0042
    172  CE1      145.2640   76.5970   11.1050 C.ar  584  PHE584     -0.0003
    173  CE2      145.8400   77.0500    8.8420 C.ar  584  PHE584     -0.0003
    174  CZ       146.0240   77.2630   10.2050 C.ar  584  PHE584     -0.0000
    175  N        141.8350   76.4020    6.7840 N.am  585  LEU585     -0.1977
    176  CA       141.9550   77.5940    5.9600 C.3   585  LEU585      0.1596
    177  C        140.6500   78.3820    5.8170 C.2   585  LEU585      0.2287
    178  O        140.6960   79.6060    5.6540 O.2   585  LEU585     -0.2864
    179  CB       142.4810   77.2150    4.5810 C.3   585  LEU585      0.0297
    180  CG       143.9360   76.7890    4.5020 C.3   585  LEU585      0.0022
    181  CD1      144.2380   76.3720    3.0720 C.3   585  LEU585      0.0001
    182  CD2      144.9020   77.9130    4.9420 C.3   585  LEU585      0.0001
    183  N        138.2980   78.6690    8.0570 N.3   587  PHE587     -0.1227
    184  CA       138.2230   79.3210    9.3650 C.3   587  PHE587      0.1736
    185  C        139.2500   80.5030    9.4960 C.2   587  PHE587      0.2595
    186  O        138.9220   81.6030    9.8140 O.2   587  PHE587     -0.2718
    187  CB       138.4160   78.3690   10.5610 C.3   587  PHE587      0.0547
    188  CG       138.2540   79.0250   11.9190 C.ar  587  PHE587     -0.0202
    189  CD1      137.0050   79.3410   12.4120 C.ar  587  PHE587     -0.0042
    190  CD2      139.3430   79.2960   12.7350 C.ar  587  PHE587     -0.0042
    191  CE1      136.8650   79.9000   13.6370 C.ar  587  PHE587     -0.0003
    192  CE2      139.1840   79.8610   13.9560 C.ar  587  PHE587     -0.0003
    193  CZ       137.9440   80.1530   14.4110 C.ar  587  PHE587     -0.0000
    194  N        140.5120   80.2440    9.2100 N.am  588  LYS588     -0.1980
    195  CA       141.5470   81.2560    9.3800 C.3   588  LYS588      0.1596
    196  C        141.4400   82.3730    8.3530 C.2   588  LYS588      0.2287
    197  O        141.7590   83.5200    8.6610 O.2   588  LYS588     -0.2864
    198  CB       142.9370   80.6220    9.3320 C.3   588  LYS588      0.0298
    199  CG       143.3130   79.9310   10.6460 C.3   588  LYS588      0.0038
    200  CD       143.2940   80.9410   11.8270 C.3   588  LYS588      0.0206
    201  CE       143.7420   80.3720   13.1630 C.3   588  LYS588      0.1093
    202  NZ       143.8010   81.5420   14.1550 N.3   588  LYS588     -0.1314
@<TRIPOS>BOND
     1   110   111    1
     2   111   112    1
     3   111   114    1
     4   102   101    2
     5   112   113    2
     6   101   100    1
     7   114   115    1
     8    99   100    1
     9   100   103    1
    10   115   116    1
    11   108   107    1
    12   107   109    1
    13   107   106    2
    14   105   106    1
    15   105   104    1
    16   116   117    1
    17   103   104    1
    18   117   118    2
    19   119   118    1
    20   118   120    1
    21   121   122    1
    22   122   123    1
    23   122   125    1
    24   123   124    2
    25   125   126    1
    26   143   142   ar
    27   142   144   ar
    28   142   141    1
    29   181   180    1
    30   140   141    1
    31   140   137    1
    32   156   154    1
    33   157   155    1
    34   138   137    1
    35   138   139    2
    36   127   128    1
    37   137   136    1
    38   154   155    1
    39   154   151    1
    40   136   129   am
    41   180   179    1
    42   180   182    1
    43   179   176    1
    44   152   153    2
    45   152   151    1
    46   129   128    1
    47   129   130    2
    48   128   131    1
    49   151   150    1
    50   178   177    2
    51   177   176    1
    52   176   175    1
    53   131   132    1
    54   150   147   am
    55   132   133    1
    56   158   159    1
    57   133   134    1
    58   145   146    1
    59   175   166   am
    60   147   146    1
    61   147   148    2
    62   159   160    1
    63   159   162    1
    64    29    27   ar
    65    29    31   ar
    66    32    31    1
    67   146   149    1
    68   183   184    1
    69   134   135    1
    70   166   167    2
    71   166   165    1
    72   160   164   am
    73   160   161    2
    74    27    26   ar
    75    31    30   ar
    76   196   197    2
    77   196   195    1
    78   164   165    1
    79   171   173   ar
    80   171   169   ar
    81   162   163    1
    82   173   174   ar
    83   165   168    1
    84   168   169    1
    85   194   195    1
    86   194   185   am
    87   198   195    1
    88   198   199    1
    89   169   170   ar
    90   184   185    1
    91   184   187    1
    92    26    25    1
    93    26    28   ar
    94   185   186    2
    95    30    28   ar
    96    55    54    2
    97    88    86   ar
    98    88    89   ar
    99    86    84   ar
   100    25    22    1
   101   174   172   ar
   102    90    89    1
   103    89    87   ar
   104   187   188    1
   105    84    83    1
   106    84    85   ar
   107   199   200    1
   108    22    21    1
   109    22    23    1
   110   170   172   ar
   111    54    53    1
   112    83    80    1
   113    59    58   ar
   114    87    85   ar
   115    16    17    1
   116    16    13    1
   117    24    23    2
   118    21    14   am
   119    19    18   ar
   120    17    18    1
   121    23    33   am
   122   200   201    1
   123    18    20   ar
   124    58    57    1
   125    58    60   ar
   126    14    15    2
   127    14    13    1
   128    82    81    2
   129   188   189   ar
   130   188   190   ar
   131    57    56    1
   132    66    65    1
   133    81    80    1
   134    53    56    1
   135    53    52    1
   136    80    79    1
   137    13    12    1
   138   189   191   ar
   139   190   192   ar
   140    33    34    1
   141    97    95    1
   142    43    42   ar
   143    43    41   ar
   144    64    63    2
   145    12     3   am
   146    63    62    1
   147    42    40   ar
   148   201   202    1
   149    79    70   am
   150    93    94    2
   151    93    92    1
   152    67    65    1
   153    65    62    1
   154    41    39   ar
   155    95    92    1
   156    95    96    1
   157   191   193   ar
   158    40    38   ar
   159   192   193   ar
   160    34    35    1
   161    34    37    1
   162    62    61    1
   163    39    38   ar
   164     3     4    2
   165     3     2    1
   166    92    91    1
   167     5     6    1
   168     5     2    1
   169    38    37    1
   170    70    71    2
   171    70    69    1
   172    77    75   ar
   173    77    78   ar
   174    96    98    1
   175    75    73   ar
   176     8     6   ar
   177     8    10   ar
   178    35    36    2
   179     6     7   ar
   180     2     1    1
   181    68    69    1
   182    10    11   ar
   183     7     9   ar
   184    69    72    1
   185    78    76   ar
   186    73    72    1
   187    73    74   ar
   188    11     9   ar
   189    51    50    1
   190    50    49    1
   191    76    74   ar
   192    49    48    1
   193    48    45    1
   194    45    44    1
   195    45    46    1
   196    47    46    2
