@<TRIPOS>MOLECULE
tmp/5v8kA22.pdb
 222 211 0 0 0
SMALL
GASTEIGER

@<TRIPOS>ATOM
      1  N        117.9240   87.0200   15.0760 N.3   333  TYR333     -0.1241
      2  CA       117.9890   87.1930   13.6340 C.3   333  TYR333      0.1605
      3  C        116.6250   87.5540   13.0550 C.2   333  TYR333      0.2264
      4  O        116.5410   88.2640   12.0500 O.2   333  TYR333     -0.2867
      5  CB       118.5830   85.9390   12.9830 C.3   333  TYR333      0.0534
      6  CG       120.0930   85.7980   13.2250 C.ar  333  TYR333     -0.0201
      7  CD1      120.5860   85.3740   14.4510 C.ar  333  TYR333     -0.0009
      8  CD2      121.0100   86.1210   12.2430 C.ar  333  TYR333     -0.0009
      9  CE1      121.9620   85.2850   14.6940 C.ar  333  TYR333      0.0417
     10  CE2      122.4040   86.0250   12.4780 C.ar  333  TYR333      0.0417
     11  CZ       122.8480   85.6030   13.7020 C.ar  333  TYR333      0.1957
     12  OH       124.1790   85.5080   13.9620 O.3   333  TYR333     -0.2866
     13  N        116.2590   91.2860   13.8770 N.3   336  ALA336     -0.1245
     14  CA       117.1960   92.1200   13.1350 C.3   336  ALA336      0.1562
     15  C        116.8570   92.1120   11.6600 C.2   336  ALA336      0.2260
     16  O        117.1550   93.0850   10.9630 O.2   336  ALA336     -0.2867
     17  CB       118.6440   91.6580   13.3500 C.3   336  ALA336      0.0290
     18  N        119.7150   92.2080   20.7420 N.3   380  VAL380     -0.1245
     19  CA       119.9190   91.3490   19.5770 C.3   380  VAL380      0.1561
     20  C        121.3080   90.6990   19.6170 C.2   380  VAL380      0.2260
     21  O        121.4550   89.4930   19.3800 O.2   380  VAL380     -0.2867
     22  CB       119.7000   92.1430   18.2800 C.3   380  VAL380      0.0252
     23  CG1      120.1270   91.3320   17.0140 C.3   380  VAL380      0.0019
     24  CG2      118.2770   92.5790   18.1820 C.3   380  VAL380      0.0019
     25  N        122.1420   86.7380   19.7320 N.3   384  ALA384     -0.1245
     26  CA       122.7750   86.0990   18.5850 C.3   384  ALA384      0.1562
     27  C        124.0390   85.3320   19.0070 C.2   384  ALA384      0.2260
     28  O        124.3250   84.2450   18.4960 O.2   384  ALA384     -0.2867
     29  CB       123.0980   87.1520   17.5250 C.3   384  ALA384      0.0290
     30  N        131.9870   80.3820   14.0010 N.3   449  LEU449     -0.1231
     31  CA       131.8520   81.6940   13.3850 C.3   449  LEU449      0.1693
     32  C        130.5610   82.4110   13.7530 C.2   449  LEU449      0.2591
     33  O        130.5300   83.6470   13.6650 O.2   449  LEU449     -0.2718
     34  CB       131.9390   81.6000   11.8630 C.3   449  LEU449      0.0284
     35  CG       133.2960   81.0750   11.4000 C.3   449  LEU449      0.0019
     36  CD1      133.3110   80.8480    9.9160 C.3   449  LEU449      0.0001
     37  CD2      134.4330   82.0400   11.7750 C.3   449  LEU449      0.0001
     38  N        129.4990   81.6840   14.1520 N.am  450  GLN450     -0.1979
     39  CA       128.3010   82.3400   14.6590 C.3   450  GLN450      0.1601
     40  C        128.4670   82.9270   16.0550 C.2   450  GLN450      0.2287
     41  O        127.5700   83.6420   16.5250 O.2   450  GLN450     -0.2864
     42  CB       127.1370   81.3310   14.6520 C.3   450  GLN450      0.0394
     43  CG       126.7050   80.9610   13.2810 C.3   450  GLN450      0.0908
     44  CD       126.5790   82.1800   12.4420 C.2   450  GLN450      0.2608
     45  OE1      127.4430   82.4750   11.6300 O.2   450  GLN450     -0.2717
     46  NE2      125.5340   82.9570   12.6990 N.am  450  GLN450     -0.0878
     47  N        131.7520   86.1660   14.8360 N.3   453  ALA453     -0.1231
     48  CA       131.4140   87.3080   13.9900 C.3   453  ALA453      0.1679
     49  C        130.4950   88.2900   14.7020 C.2   453  ALA453      0.2434
     50  O        130.8550   89.4800   14.8070 O.2   453  ALA453     -0.2733
     51  CB       130.8120   86.8250   12.6730 C.3   453  ALA453      0.0304
     52  N        129.3550   87.8900   15.2480 N.am  454  PRO454     -0.2729
     53  CA       128.5410   88.8600   15.9840 C.3   454  PRO454      0.1401
     54  C        129.2680   89.4990   17.1610 C.2   454  PRO454      0.2269
     55  O        129.0060   90.6570   17.4960 O.2   454  PRO454     -0.2865
     56  CB       127.3440   88.0120   16.4750 C.3   454  PRO454      0.0296
     57  CG       127.4580   86.7590   15.8080 C.3   454  PRO454      0.0237
     58  CD       128.7710   86.5280   15.3110 C.3   454  PRO454      0.0939
     59  N        131.5230   92.2050   15.5550 N.3   457  PHE457     -0.1241
     60  CA       130.7260   93.3370   15.1010 C.3   457  PHE457      0.1605
     61  C        130.2230   94.1500   16.2860 C.2   457  PHE457      0.2264
     62  O        130.3010   95.3800   16.2690 O.2   457  PHE457     -0.2867
     63  CB       129.5820   92.8690   14.2100 C.3   457  PHE457      0.0534
     64  CG       130.0370   92.2710   12.8890 C.ar  457  PHE457     -0.0203
     65  CD1      131.0270   92.8700   12.1240 C.ar  457  PHE457     -0.0042
     66  CD2      129.4930   91.0730   12.4380 C.ar  457  PHE457     -0.0042
     67  CE1      131.4380   92.2780   10.9160 C.ar  457  PHE457     -0.0003
     68  CE2      129.8730   90.5190   11.2670 C.ar  457  PHE457     -0.0003
     69  CZ       130.8540   91.0990   10.5070 C.ar  457  PHE457     -0.0000
     70  N        123.7320   96.7540   16.2740 N.3   464  MET464     -0.1245
     71  CA       123.3300   95.3670   16.1490 C.3   464  MET464      0.1570
     72  C        121.8050   95.2050   16.1890 C.2   464  MET464      0.2261
     73  O        121.3010   94.0800   16.2520 O.2   464  MET464     -0.2867
     74  CB       124.0480   94.5490   17.2240 C.3   464  MET464      0.0387
     75  CG       125.6090   94.5630   17.0820 C.3   464  MET464      0.0595
     76  SD       126.2130   93.8570   15.5200 S.3   464  MET464     -0.1393
     77  CE       126.0020   92.1270   15.8620 C.3   464  MET464      0.0692
     78  N        120.0950   95.9000   13.5720 N.3   466  SER466     -0.1202
     79  CA       119.7860   95.8870   12.1530 C.3   466  SER466      0.2020
     80  C        121.0520   95.4440   11.4350 C.2   466  SER466      0.2618
     81  O        122.1520   95.6250   11.9520 O.2   466  SER466     -0.2717
     82  CB       119.3080   97.2790   11.6850 C.3   466  SER466      0.2103
     83  OG       119.1050   97.3140   10.2790 O.3   466  SER466     -0.2182
     84  N        120.8980   94.8700   10.2310 N.am  467  PHE467     -0.1975
     85  CA       122.0670   94.5120    9.4470 C.3   467  PHE467      0.1639
     86  C        122.5970   95.7050    8.6380 C.2   467  PHE467      0.2290
     87  O        123.7470   95.6620    8.1700 O.2   467  PHE467     -0.2864
     88  CB       121.7760   93.3250    8.4850 C.3   467  PHE467      0.0560
     89  CG       121.2880   92.0760    9.1530 C.ar  467  PHE467     -0.0200
     90  CD1      121.8120   91.6670   10.3600 C.ar  467  PHE467     -0.0042
     91  CD2      120.2760   91.3200    8.5680 C.ar  467  PHE467     -0.0042
     92  CE1      121.3630   90.5220   10.9700 C.ar  467  PHE467     -0.0003
     93  CE2      119.8200   90.1710    9.1660 C.ar  467  PHE467     -0.0003
     94  CZ       120.3620   89.7700   10.3820 C.ar  467  PHE467     -0.0000
     95  N        126.1290   95.6360   10.3050 N.3   502  TYR502     -0.1241
     96  CA       127.4070   95.0680    9.8750 C.3   502  TYR502      0.1605
     97  C        127.6510   95.2510    8.3760 C.2   502  TYR502      0.2264
     98  O        128.8000   95.4140    7.9360 O.2   502  TYR502     -0.2867
     99  CB       127.4750   93.5890   10.2510 C.3   502  TYR502      0.0534
    100  CG       126.8440   92.6250    9.2780 C.ar  502  TYR502     -0.0201
    101  CD1      127.5760   92.0750    8.2550 C.ar  502  TYR502     -0.0009
    102  CD2      125.5070   92.2350    9.4120 C.ar  502  TYR502     -0.0009
    103  CE1      127.0140   91.1950    7.3660 C.ar  502  TYR502      0.0417
    104  CE2      124.9320   91.3410    8.5190 C.ar  502  TYR502      0.0417
    105  CZ       125.6910   90.8280    7.5030 C.ar  502  TYR502      0.1957
    106  OH       125.1230   89.9280    6.6170 O.3   502  TYR502     -0.2866
    107  N        130.7450   97.2310    6.9690 N.3   506  ILE506     -0.1231
    108  CA       131.7230   96.6400    6.0540 C.3   506  ILE506      0.1692
    109  C        132.0660   97.6280    4.9500 C.2   506  ILE506      0.2591
    110  O        133.2330   97.7960    4.6130 O.2   506  ILE506     -0.2718
    111  CB       131.2290   95.2870    5.4920 C.3   506  ILE506      0.0266
    112  CG1      131.5720   94.1660    6.4700 C.3   506  ILE506      0.0019
    113  CG2      131.8910   94.9600    4.1540 C.3   506  ILE506      0.0020
    114  CD1      130.9580   92.8630    6.1790 C.3   506  ILE506      0.0001
    115  N        131.0660   98.3250    4.4050 N.am  507  ILE507     -0.1980
    116  CA       131.3330   99.2980    3.3430 C.3   507  ILE507      0.1595
    117  C        132.2700  100.3970    3.8510 C.2   507  ILE507      0.2287
    118  O        133.2060  100.8130    3.1490 O.2   507  ILE507     -0.2864
    119  CB       130.0270   99.9110    2.7990 C.3   507  ILE507      0.0276
    120  CG1      129.2310   98.8580    2.0280 C.3   507  ILE507      0.0022
    121  CG2      130.3390  101.1230    1.8570 C.3   507  ILE507      0.0022
    122  CD1      127.8170   99.3730    1.5990 C.3   507  ILE507      0.0001
    123  N        135.9040   98.9630    4.8960 N.3   510  THR510     -0.1218
    124  CA       136.6610   98.6030    3.6960 C.3   510  THR510      0.1862
    125  C        137.0940   99.8400    2.9210 C.2   510  THR510      0.2287
    126  O        138.2110   99.8810    2.3800 O.2   510  THR510     -0.2866
    127  CB       135.8280   97.6640    2.8090 C.3   510  THR510      0.1770
    128  OG1      135.4910   96.4860    3.5300 O.3   510  THR510     -0.2211
    129  CG2      136.6040   97.2440    1.6430 C.3   510  THR510      0.0375
    130  N        140.0590  101.1470    4.5720 N.3   513  MET513     -0.1245
    131  CA       141.2440  100.3170    4.3610 C.3   513  MET513      0.1570
    132  C        142.0740  100.7850    3.1720 C.2   513  MET513      0.2261
    133  O        143.2860  100.5440    3.1440 O.2   513  MET513     -0.2867
    134  CB       140.8610   98.8510    4.1660 C.3   513  MET513      0.0387
    135  CG       140.4310   98.1470    5.4100 C.3   513  MET513      0.0595
    136  SD       139.7660   96.5110    4.9770 S.3   513  MET513     -0.1393
    137  CE       138.6880   96.1770    6.3830 C.3   513  MET513      0.0692
    138  N        142.5440   91.3580    2.3250 N.3   525  LEU525     -0.1245
    139  CA       141.1970   90.8940    2.0470 C.3   525  LEU525      0.1561
    140  C        141.1750   90.0840    0.7740 C.2   525  LEU525      0.2260
    141  O        140.6620   88.9730    0.7500 O.2   525  LEU525     -0.2867
    142  CB       140.2190   92.0650    1.9290 C.3   525  LEU525      0.0270
    143  CG       139.6290   92.7490    3.1390 C.3   525  LEU525      0.0019
    144  CD1      138.5930   93.7650    2.7010 C.3   525  LEU525      0.0001
    145  CD2      138.9700   91.8050    4.0320 C.3   525  LEU525      0.0001
    146  N        140.2490   86.1430    0.5400 N.3   529  HIS529     -0.1241
    147  CA       139.0400   85.7260   -0.1490 C.3   529  HIS529      0.1621
    148  C        139.3560   84.6380   -1.1720 C.2   529  HIS529      0.2264
    149  O        138.6030   83.6670   -1.3090 O.2   529  HIS529     -0.2867
    150  CB       138.3440   86.9160   -0.8400 C.3   529  HIS529      0.0745
    151  CG       137.5670   87.7910    0.0760 C.ar  529  HIS529      0.0817
    152  ND1      138.1160   88.3840    1.1920 N.ar  529  HIS529     -0.2268
    153  CD2      136.2750   88.1950    0.0360 C.ar  529  HIS529      0.1154
    154  CE1      137.1930   89.1070    1.8020 C.ar  529  HIS529      0.1986
    155  NE2      136.0750   89.0060    1.1180 N.ar  529  HIS529     -0.2212
    156  N        139.9900   81.3880    0.6200 N.3   532  TRP532     -0.1227
    157  CA       138.7240   80.8990    1.1650 C.3   532  TRP532      0.1737
    158  C        137.9050   80.2130    0.0800 C.2   532  TRP532      0.2595
    159  O        137.3890   79.1120    0.2690 O.2   532  TRP532     -0.2718
    160  CB       137.9640   82.0710    1.7660 C.3   532  TRP532      0.0564
    161  CG       136.6810   81.7890    2.4240 C.ar  532  TRP532      0.0003
    162  CD1      136.5080   81.3500    3.6860 C.ar  532  TRP532      0.0946
    163  CD2      135.3760   81.9620    1.8730 C.ar  532  TRP532      0.0152
    164  NE1      135.1730   81.2230    3.9710 N.ar  532  TRP532     -0.2442
    165  CE2      134.4530   81.5930    2.8670 C.ar  532  TRP532      0.0810
    166  CE3      134.8980   82.4200    0.6520 C.ar  532  TRP532      0.0012
    167  CZ2      133.0820   81.6940    2.6840 C.ar  532  TRP532      0.0191
    168  CZ3      133.5130   82.5320    0.4700 C.ar  532  TRP532      0.0001
    169  CH2      132.6320   82.1580    1.4680 C.ar  532  TRP532      0.0015
    170  N        137.7960   80.8540   -1.0790 N.am  533  ALA533     -0.1980
    171  CA       137.0930   80.2700   -2.2040 C.3   533  ALA533      0.1597
    172  C        137.6790   78.9160   -2.5780 C.2   533  ALA533      0.2287
    173  O        136.9480   77.9460   -2.8330 O.2   533  ALA533     -0.2864
    174  CB       137.1560   81.2300   -3.3870 C.3   533  ALA533      0.0319
    175  N        139.4980   77.7030    5.8000 N.3   586  PHE586     -0.1241
    176  CA       138.2190   78.3900    5.7220 C.3   586  PHE586      0.1605
    177  C        138.0480   79.2860    6.9420 C.2   586  PHE586      0.2264
    178  O        137.8120   80.4960    6.8240 O.2   586  PHE586     -0.2867
    179  CB       137.0920   77.3230    5.6150 C.3   586  PHE586      0.0534
    180  CG       135.7510   77.8620    5.4060 C.ar  586  PHE586     -0.0203
    181  CD1      135.0620   78.4610    6.4170 C.ar  586  PHE586     -0.0042
    182  CD2      135.1490   77.7200    4.1860 C.ar  586  PHE586     -0.0042
    183  CE1      133.7640   78.9250    6.2300 C.ar  586  PHE586     -0.0003
    184  CE2      133.8450   78.1590    3.9650 C.ar  586  PHE586     -0.0003
    185  CZ       133.1560   78.7840    5.0030 C.ar  586  PHE586     -0.0000
    186  N        141.0580   82.0710    7.1130 N.3   589  MET589     -0.1230
    187  CA       140.8950   83.1640    6.1530 C.3   589  MET589      0.1702
    188  C        139.7280   84.0810    6.5310 C.2   589  MET589      0.2593
    189  O        139.7870   85.2960    6.2930 O.2   589  MET589     -0.2718
    190  CB       140.7210   82.6230    4.7380 C.3   589  MET589      0.0401
    191  CG       141.9640   81.9890    4.1250 C.3   589  MET589      0.0596
    192  SD       143.4090   83.0520    4.0690 S.3   589  MET589     -0.1393
    193  CE       144.2400   82.3770    5.4490 C.3   589  MET589      0.0692
    194  N        138.6830   83.5330    7.1390 N.am  590  THR590     -0.1953
    195  CA       137.6400   84.3820    7.7030 C.3   590  THR590      0.1897
    196  C        138.2180   85.2760    8.7910 C.2   590  THR590      0.2313
    197  O        137.9710   86.4870    8.8200 O.2   590  THR590     -0.2863
    198  CB       136.5180   83.5300    8.2720 C.3   590  THR590      0.1794
    199  OG1      135.9150   82.7280    7.2290 O.3   590  THR590     -0.2208
    200  CG2      135.4980   84.4070    8.8850 C.3   590  THR590      0.0378
    201  N        140.1750   88.2480    7.4370 N.3   593  CYS593     -0.1221
    202  CA       139.3030   89.3220    6.9800 C.3   593  CYS593      0.1808
    203  C        138.8520   90.1720    8.1610 C.2   593  CYS593      0.2601
    204  O        138.8870   91.4130    8.1020 O.2   593  CYS593     -0.2717
    205  CB       138.1230   88.7180    6.2380 C.3   593  CYS593      0.0970
    206  SG       138.5560   88.0260    4.6040 S.3   593  CYS593     -0.0800
    207  N        138.5160   89.5140    9.2760 N.am  594  MET594     -0.1979
    208  CA       138.1050   90.2170   10.4820 C.3   594  MET594      0.1605
    209  C        139.2740   90.9740   11.0770 C.2   594  MET594      0.2287
    210  O        139.1010   92.0660   11.6120 O.2   594  MET594     -0.2864
    211  CB       137.5150   89.2290   11.4910 C.3   594  MET594      0.0413
    212  CG       136.1880   88.5930   11.0090 C.3   594  MET594      0.0598
    213  SD       135.5950   87.4350   12.2270 S.3   594  MET594     -0.1393
    214  CE       134.7850   88.6560   13.1650 C.3   594  MET594      0.0692
    215  N        139.4670   94.2910    9.5900 N.3   597  LEU597     -0.1245
    216  CA       138.5520   95.1690   10.2880 C.3   597  LEU597      0.1561
    217  C        139.1210   95.6430   11.6070 C.2   597  LEU597      0.2260
    218  O        138.7770   96.7420   12.0590 O.2   597  LEU597     -0.2867
    219  CB       137.1830   94.4660   10.5500 C.3   597  LEU597      0.0270
    220  CG       136.3480   94.0720    9.3540 C.3   597  LEU597      0.0019
    221  CD1      135.1880   93.2080    9.8210 C.3   597  LEU597      0.0001
    222  CD2      135.8780   95.3260    8.6730 C.3   597  LEU597      0.0001
@<TRIPOS>BOND
     1   174   171    1
     2   173   172    2
     3   172   171    1
     4   171   170    1
     5   149   148    2
     6   148   147    1
     7   170   158   am
     8   150   147    1
     9   150   151    1
    10   147   146    1
    11   153   151   ar
    12   153   155   ar
    13   151   152   ar
    14   158   159    2
    15   158   157    1
    16   168   166   ar
    17   168   169   ar
    18   156   157    1
    19   166   163   ar
    20   141   140    2
    21   140   139    1
    22   155   154   ar
    23   157   160    1
    24   152   154   ar
    25   169   167   ar
    26   122   120    1
    27   129   127    1
    28   160   161    1
    29   121   119    1
    30   163   161   ar
    31   163   165   ar
    32   142   139    1
    33   142   143    1
    34   120   119    1
    35   139   138    1
    36   126   125    2
    37   161   162   ar
    38   167   165   ar
    39   144   143    1
    40   119   116    1
    41   127   128    1
    42   127   124    1
    43   165   164   ar
    44   125   124    1
    45   143   145    1
    46   133   132    2
    47   118   117    2
    48   132   131    1
    49   116   117    1
    50   116   115    1
    51   162   164   ar
    52   124   123    1
    53   184   182   ar
    54   184   185   ar
    55   192   191    1
    56   192   193    1
    57   191   190    1
    58   113   111    1
    59   134   131    1
    60   134   135    1
    61   182   180   ar
    62   131   130    1
    63   115   109   am
    64   206   205    1
    65   110   109    2
    66   190   187    1
    67   109   108    1
    68   136   135    1
    69   136   137    1
    70   185   183   ar
    71   180   179    1
    72   180   181   ar
    73   111   108    1
    74   111   112    1
    75   179   176    1
    76   176   175    1
    77   176   177    1
    78   108   107    1
    79   187   188    1
    80   187   186    1
    81   114   112    1
    82   183   181   ar
    83   205   202    1
    84   189   188    2
    85   188   194   am
    86   106   105    1
    87   178   177    2
    88   202   201    1
    89   202   203    1
    90   194   195    1
    91   199   198    1
    92   103   105   ar
    93   103   101   ar
    94   105   104   ar
    95   195   198    1
    96   195   196    1
    97    98    97    2
    98   204   203    2
    99   203   207   am
   100    87    86    2
   101   101   100   ar
   102   198   200    1
   103    97    96    1
   104    88    89    1
   105    88    85    1
   106   104   102   ar
   107    91    89   ar
   108    91    93   ar
   109    86    85    1
   110   222   220    1
   111   196   197    2
   112    89    90   ar
   113    93    94   ar
   114   207   208    1
   115   100   102   ar
   116   100    99    1
   117   220   221    1
   118   220   219    1
   119    85    84    1
   120   215   216    1
   121    96    99    1
   122    96    95    1
   123    36    35    1
   124    84    80   am
   125    83    82    1
   126   216   219    1
   127   216   217    1
   128    90    92   ar
   129    94    92   ar
   130   208   209    1
   131   208   211    1
   132    69    67   ar
   133    69    68   ar
   134    67    65   ar
   135    16    15    2
   136   212   211    1
   137   212   213    1
   138   209   210    2
   139    68    66   ar
   140    35    37    1
   141    35    34    1
   142    80    81    2
   143    80    79    1
   144   217   218    2
   145    45    44    2
   146    15    14    1
   147    82    79    1
   148    34    31    1
   149     4     3    2
   150    65    64   ar
   151    79    78    1
   152   213   214    1
   153     8    10   ar
   154     8     6   ar
   155    66    64   ar
   156    44    46   am
   157    44    43    1
   158    10    11   ar
   159    51    48    1
   160    64    63    1
   161     5     6    1
   162     5     2    1
   163     3     2    1
   164    14    17    1
   165    14    13    1
   166     6     7   ar
   167    43    42    1
   168    31    32    1
   169    31    30    1
   170     2     1    1
   171    33    32    2
   172    11    12    1
   173    11     9   ar
   174    32    38   am
   175    48    49    1
   176    48    47    1
   177    38    39    1
   178    63    60    1
   179     7     9   ar
   180    42    39    1
   181    39    40    1
   182    49    50    2
   183    49    52   am
   184    60    59    1
   185    60    61    1
   186    52    58    1
   187    52    53    1
   188    58    57    1
   189    76    77    1
   190    76    75    1
   191    57    56    1
   192    53    56    1
   193    53    54    1
   194    40    41    2
   195    71    72    1
   196    71    70    1
   197    71    74    1
   198    72    73    2
   199    62    61    2
   200    23    22    1
   201    75    74    1
   202    54    55    2
   203    29    26    1
   204    24    22    1
   205    22    19    1
   206    28    27    2
   207    26    27    1
   208    26    25    1
   209    21    20    2
   210    19    20    1
   211    19    18    1
