@<TRIPOS>MOLECULE
tmp/5v8kA03.pdb
 120 118 0 0 0
SMALL
GASTEIGER

@<TRIPOS>ATOM
      1  N        150.8120   97.0830   49.1950 N.3   153  SER153     -0.1202
      2  CA       149.7230   97.2400   50.1500 C.3   153  SER153      0.2020
      3  C        148.7860   96.0480   50.0340 C.2   153  SER153      0.2619
      4  O        148.6110   95.4840   48.9540 O.2   153  SER153     -0.2717
      5  CB       148.9470   98.5430   49.9210 C.3   153  SER153      0.2103
      6  OG       147.7240   98.5350   50.6370 O.3   153  SER153     -0.2182
      7  N        148.1880   95.6620   51.1580 N.am  154  PHE154     -0.1961
      8  CA       147.2470   94.5490   51.1790 C.3   154  PHE154      0.1771
      9  C        145.8420   95.0000   51.5530 C.2   154  PHE154      0.2620
     10  O        145.0580   94.2120   52.0750 O.2   154  PHE154     -0.2715
     11  CB       147.7310   93.4460   52.1180 C.3   154  PHE154      0.0574
     12  CG       149.0170   92.8190   51.6760 C.ar  154  PHE154     -0.0200
     13  CD1      149.0290   91.7950   50.7370 C.ar  154  PHE154     -0.0042
     14  CD2      150.2230   93.2750   52.1740 C.ar  154  PHE154     -0.0042
     15  CE1      150.2180   91.2350   50.3200 C.ar  154  PHE154     -0.0003
     16  CE2      151.4110   92.7190   51.7640 C.ar  154  PHE154     -0.0003
     17  CZ       151.4130   91.6980   50.8370 C.ar  154  PHE154     -0.0000
     18  N        145.4950   96.2530   51.2540 N.am  155  ASP155     -0.1957
     19  CA       144.1410   96.7530   51.4950 C.3   155  ASP155      0.1840
     20  C        143.2550   96.3490   50.3190 C.2   155  ASP155      0.2622
     21  O        142.9680   97.1280   49.4090 O.2   155  ASP155     -0.2715
     22  CB       144.1500   98.2620   51.6990 C.3   155  ASP155      0.1450
     23  CG       142.7920   98.8060   52.0970 C.2   155  ASP155      0.3671
     24  OD1      141.8970   97.9980   52.4690 O.co2 155  ASP155     -0.2456
     25  OD2      142.6300  100.0470   52.0460 O.co2 155  ASP155     -0.2456
     26  N        142.7970   95.0980   50.3620 N.am  156  MET156     -0.1963
     27  CA       142.0770   94.5190   49.2330 C.3   156  MET156      0.1736
     28  C        140.8110   95.3000   48.8850 C.2   156  MET156      0.2616
     29  O        140.4410   95.3920   47.7070 O.2   156  MET156     -0.2715
     30  CB       141.7320   93.0690   49.5480 C.3   156  MET156      0.0427
     31  CG       141.1490   92.3130   48.3780 C.3   156  MET156      0.0599
     32  SD       140.4730   90.7220   48.8460 S.3   156  MET156     -0.1393
     33  CE       141.7960   90.0140   49.8280 C.3   156  MET156      0.0692
     34  N        140.1340   95.8640   49.8780 N.am  157  PHE157     -0.1960
     35  CA       138.8430   96.4990   49.6550 C.3   157  PHE157      0.1771
     36  C        138.9220   98.0150   49.5630 C.2   157  PHE157      0.2620
     37  O        137.9070   98.6570   49.2870 O.2   157  PHE157     -0.2715
     38  CB       137.8730   96.0870   50.7610 C.3   157  PHE157      0.0574
     39  CG       137.7080   94.5960   50.8820 C.ar  157  PHE157     -0.0200
     40  CD1      137.5220   93.8110   49.7500 C.ar  157  PHE157     -0.0042
     41  CD2      137.7690   93.9790   52.1110 C.ar  157  PHE157     -0.0042
     42  CE1      137.3810   92.4430   49.8580 C.ar  157  PHE157     -0.0003
     43  CE2      137.6300   92.6210   52.2200 C.ar  157  PHE157     -0.0003
     44  CZ       137.4350   91.8510   51.0960 C.ar  157  PHE157     -0.0000
     45  N        140.0950   98.6010   49.7780 N.am  158  GLY158     -0.1954
     46  CA       140.2920   99.9930   49.4850 C.3   158  GLY158      0.1869
     47  C        140.3290  100.2410   47.9860 C.2   158  GLY158      0.2309
     48  O        140.1580   99.3170   47.1750 O.2   158  GLY158     -0.2863
     49  N        141.7220  100.7400   44.2800 N.3   160  ILE160     -0.1245
     50  CA       142.8280  100.1120   43.5740 C.3   160  ILE160      0.1561
     51  C        143.9270  101.1360   43.3600 C.2   160  ILE160      0.2260
     52  O        143.6960  102.2200   42.8060 O.2   160  ILE160     -0.2867
     53  CB       142.3520   99.5190   42.2460 C.3   160  ILE160      0.0252
     54  CG1      141.4080   98.3430   42.5070 C.3   160  ILE160      0.0019
     55  CG2      143.5330   99.0740   41.4070 C.3   160  ILE160      0.0019
     56  CD1      140.5290   98.0010   41.3090 C.3   160  ILE160      0.0001
     57  N        148.3000   98.1580   45.8850 N.3   164  THR164     -0.1203
     58  CA       147.4160   97.0240   46.1630 C.3   164  THR164      0.1994
     59  C        147.4350   96.0240   45.0270 C.2   164  THR164      0.2617
     60  O        147.1930   94.8340   45.2510 O.2   164  THR164     -0.2717
     61  CB       145.9610   97.4590   46.4100 C.3   164  THR164      0.1784
     62  OG1      145.4330   98.1180   45.2420 O.3   164  THR164     -0.2211
     63  CG2      145.8770   98.3760   47.6000 C.3   164  THR164      0.0376
     64  N        147.7060   96.4850   43.8090 N.am  165  MET165     -0.1979
     65  CA       147.8330   95.5530   42.6990 C.3   165  MET165      0.1605
     66  C        149.0950   94.7180   42.8510 C.2   165  MET165      0.2287
     67  O        149.1100   93.5360   42.4960 O.2   165  MET165     -0.2864
     68  CB       147.8350   96.3090   41.3750 C.3   165  MET165      0.0413
     69  CG       147.9190   95.4390   40.1830 C.3   165  MET165      0.0598
     70  SD       146.5170   94.3080   40.0570 S.3   165  MET165     -0.1393
     71  CE       145.2670   95.4540   39.4290 C.3   165  MET165      0.0692
     72  N        150.2190   94.0450   45.9160 N.3   167  GLY167     -0.1210
     73  CA       149.7690   93.1430   46.9630 C.3   167  GLY167      0.1956
     74  C        148.9550   91.9800   46.4190 C.2   167  GLY167      0.2611
     75  O        149.0640   90.8510   46.9100 O.2   167  GLY167     -0.2717
     76  N        148.1330   92.2410   45.3930 N.am  168  ASN168     -0.1974
     77  CA       147.3380   91.1770   44.7800 C.3   168  ASN168      0.1688
     78  C        148.2320   90.0610   44.2560 C.2   168  ASN168      0.2292
     79  O        147.9120   88.8780   44.4050 O.2   168  ASN168     -0.2864
     80  CB       146.4790   91.7400   43.6560 C.3   168  ASN168      0.1181
     81  CG       145.8340   90.6590   42.8230 C.2   168  ASN168      0.2629
     82  OD1      144.8790   90.0170   43.2540 O.2   168  ASN168     -0.2716
     83  ND2      146.3590   90.4340   41.6220 N.am  168  ASN168     -0.0877
     84  N        149.8050   88.1510   47.1610 N.3   171  ALA171     -0.1231
     85  CA       148.8000   87.3210   47.8160 C.3   171  ALA171      0.1694
     86  C        148.5750   86.0530   47.0160 C.2   171  ALA171      0.2592
     87  O        148.5040   84.9600   47.5800 O.2   171  ALA171     -0.2718
     88  CB       147.5000   88.1000   48.0060 C.3   171  ALA171      0.0304
     89  N        148.5200   86.1700   45.6930 N.am  172  PHE172     -0.1976
     90  CA       148.4150   84.9780   44.8660 C.3   172  PHE172      0.1639
     91  C        149.6190   84.0750   45.0640 C.2   172  PHE172      0.2290
     92  O        149.4870   82.8520   45.0370 O.2   172  PHE172     -0.2864
     93  CB       148.2530   85.3550   43.3820 C.3   172  PHE172      0.0560
     94  CG       146.8190   85.3850   42.9190 C.ar  172  PHE172     -0.0200
     95  CD1      146.1560   84.2080   42.5670 C.ar  172  PHE172     -0.0042
     96  CD2      146.1310   86.5890   42.8370 C.ar  172  PHE172     -0.0042
     97  CE1      144.8480   84.2300   42.1580 C.ar  172  PHE172     -0.0003
     98  CE2      144.8280   86.6240   42.4210 C.ar  172  PHE172     -0.0003
     99  CZ       144.1710   85.4350   42.0790 C.ar  172  PHE172     -0.0000
    100  N        148.8420   82.2420   48.3100 N.3   175  VAL175     -0.1245
    101  CA       147.7460   81.2820   48.1750 C.3   175  VAL175      0.1561
    102  C        148.2230   80.0150   47.4690 C.2   175  VAL175      0.2260
    103  O        147.9810   78.8980   47.9420 O.2   175  VAL175     -0.2867
    104  CB       146.5500   81.9350   47.4550 C.3   175  VAL175      0.0252
    105  CG1      145.5460   80.8850   46.9490 C.3   175  VAL175      0.0019
    106  CG2      145.8650   82.9030   48.4170 C.3   175  VAL175      0.0019
    107  N        138.1680   96.3610   32.3290 N.3   225  TRP225     -0.1241
    108  CA       139.2710   96.8400   33.1750 C.3   225  TRP225      0.1605
    109  C        140.2220   97.6070   32.2640 C.2   225  TRP225      0.2264
    110  O        141.1650   97.0520   31.6940 O.2   225  TRP225     -0.2867
    111  CB       139.9430   95.6800   33.9070 C.3   225  TRP225      0.0550
    112  CG       141.1270   96.0490   34.7820 C.ar  225  TRP225      0.0003
    113  CD1      142.3500   95.4420   34.7930 C.ar  225  TRP225      0.0946
    114  CD2      141.1890   97.0900   35.7720 C.ar  225  TRP225      0.0152
    115  NE1      143.1610   96.0240   35.7380 N.ar  225  TRP225     -0.2442
    116  CE2      142.4720   97.0340   36.3540 C.ar  225  TRP225      0.0810
    117  CE3      140.2770   98.0340   36.2410 C.ar  225  TRP225      0.0012
    118  CZ2      142.8820   97.9160   37.3510 C.ar  225  TRP225      0.0191
    119  CZ3      140.6710   98.8980   37.2440 C.ar  225  TRP225      0.0001
    120  CH2      141.9750   98.8480   37.7790 C.ar  225  TRP225      0.0015
@<TRIPOS>BOND
     1   110   109    2
     2   109   108    1
     3   107   108    1
     4   108   111    1
     5   111   112    1
     6   112   113   ar
     7   112   114   ar
     8   113   115   ar
     9   115   116   ar
    10   114   117   ar
    11   114   116   ar
    12   117   119   ar
    13   116   118   ar
    14   119   120   ar
    15   118   120   ar
    16    71    70    1
    17    70    69    1
    18    69    68    1
    19    56    54    1
    20    68    65    1
    21    55    53    1
    22    83    81   am
    23    99    97   ar
    24    99    98   ar
    25    97    95   ar
    26    53    54    1
    27    53    50    1
    28    98    96   ar
    29    67    66    2
    30    95    94   ar
    31    65    66    1
    32    65    64    1
    33    52    51    2
    34    81    82    2
    35    81    80    1
    36    96    94   ar
    37    94    93    1
    38    51    50    1
    39    93    90    1
    40    50    49    1
    41    80    77    1
    42    64    59   am
    43    78    79    2
    44    78    77    1
    45    77    76    1
    46    90    91    1
    47    90    89    1
    48    59    60    2
    49    59    58    1
    50    92    91    2
    51    62    61    1
    52    76    74   am
    53    89    86   am
    54    57    58    1
    55    72    73    1
    56    58    61    1
    57    61    63    1
    58    74    75    2
    59    74    73    1
    60   105   104    1
    61    86    87    2
    62    86    85    1
    63    84    85    1
    64    48    47    2
    65   104   101    1
    66   104   106    1
    67   102   103    2
    68   102   101    1
    69    29    28    2
    70    85    88    1
    71    47    46    1
    72   101   100    1
    73    31    32    1
    74    31    30    1
    75    32    33    1
    76    28    27    1
    77    28    34   am
    78     4     3    2
    79     1     2    1
    80    27    30    1
    81    27    26    1
    82    37    36    2
    83    21    20    2
    84    46    45    1
    85    36    35    1
    86    36    45   am
    87    35    34    1
    88    35    38    1
    89    40    42   ar
    90    40    39   ar
    91    42    44   ar
    92     5     2    1
    93     5     6    1
    94     3     2    1
    95     3     7   am
    96    20    26   am
    97    20    19    1
    98    15    13   ar
    99    15    17   ar
   100    13    12   ar
   101    38    39    1
   102    17    16   ar
   103    39    41   ar
   104    44    43   ar
   105     7     8    1
   106     8     9    1
   107     8    11    1
   108    18    19    1
   109    18     9   am
   110    19    22    1
   111     9    10    2
   112    12    11    1
   113    12    14   ar
   114    22    23    1
   115    16    14   ar
   116    25    23   ar
   117    23    24   ar
   118    41    43   ar
