@<TRIPOS>MOLECULE
tmp/5v8kA31.pdb
 129 124 0 0 0
SMALL
GASTEIGER

@<TRIPOS>ATOM
      1  N        158.7420   65.9470   27.4810 N.3    22  LEU22      -0.1231
      2  CA       159.4300   67.0370   28.1670 C.3    22  LEU22       0.1693
      3  C        160.2520   67.8610   27.1940 C.2    22  LEU22       0.2591
      4  O        160.2580   69.0920   27.2680 O.2    22  LEU22      -0.2718
      5  CB       160.3250   66.4950   29.2850 C.3    22  LEU22       0.0284
      6  CG       160.8350   67.6100   30.2050 C.3    22  LEU22       0.0019
      7  CD1      159.6980   68.2090   31.0640 C.3    22  LEU22       0.0001
      8  CD2      161.9430   67.0930   31.0750 C.3    22  LEU22       0.0001
      9  N        160.9460   67.2080   26.2660 N.am   23  LYS23      -0.1980
     10  CA       161.7310   67.9480   25.2840 C.3    23  LYS23       0.1596
     11  C        160.8380   68.8110   24.4090 C.2    23  LYS23       0.2287
     12  O        161.1950   69.9400   24.0700 O.2    23  LYS23      -0.2864
     13  CB       162.5410   66.9900   24.4290 C.3    23  LYS23       0.0298
     14  CG       163.6240   66.2480   25.2210 C.3    23  LYS23       0.0038
     15  CD       164.7870   67.1300   25.6050 C.3    23  LYS23       0.0206
     16  CE       165.6830   66.3720   26.5650 C.3    23  LYS23       0.1093
     17  NZ       166.7260   67.2560   27.0970 N.3    23  LYS23      -0.1314
     18  N        160.0200   71.8630   26.4720 N.3    26  ILE26      -0.1245
     19  CA       161.1660   72.7690   26.4590 C.3    26  ILE26       0.1561
     20  C        161.2190   73.5330   25.1410 C.2    26  ILE26       0.2260
     21  O        161.3390   74.7640   25.1280 O.2    26  ILE26      -0.2867
     22  CB       162.4670   71.9790   26.7150 C.3    26  ILE26       0.0252
     23  CG1      162.4000   71.2870   28.0800 C.3    26  ILE26       0.0019
     24  CG2      163.7250   72.8960   26.5980 C.3    26  ILE26       0.0019
     25  CD1      163.6670   70.5250   28.4730 C.3    26  ILE26       0.0001
     26  N        158.7900   76.2720   24.9580 N.3    29  LEU29      -0.1245
     27  CA       159.2640   77.4690   25.6510 C.3    29  LEU29       0.1561
     28  C        160.2490   78.2600   24.7840 C.2    29  LEU29       0.2260
     29  O        160.1740   79.4940   24.7130 O.2    29  LEU29      -0.2867
     30  CB       159.9080   77.0870   26.9840 C.3    29  LEU29       0.0270
     31  CG       158.9370   76.4590   27.9870 C.3    29  LEU29       0.0019
     32  CD1      159.6640   75.9690   29.2020 C.3    29  LEU29       0.0001
     33  CD2      157.8270   77.3990   28.3680 C.3    29  LEU29       0.0001
     34  N        169.1590   78.6850   24.1280 N.3    92  ILE92      -0.1231
     35  CA       169.5060   77.7850   25.2250 C.3    92  ILE92       0.1692
     36  C        168.4290   76.7170   25.3930 C.2    92  ILE92       0.2591
     37  O        168.7350   75.5440   25.6240 O.2    92  ILE92      -0.2718
     38  CB       169.7070   78.5810   26.5250 C.3    92  ILE92       0.0266
     39  CG1      170.9130   79.5170   26.4020 C.3    92  ILE92       0.0019
     40  CG2      169.9050   77.6410   27.7080 C.3    92  ILE92       0.0020
     41  CD1      171.1390   80.4130   27.6240 C.3    92  ILE92       0.0001
     42  N        167.1490   77.1170   25.3000 N.am   93  LEU93      -0.1980
     43  CA       166.0380   76.1790   25.4470 C.3    93  LEU93       0.1596
     44  C        165.9770   75.2080   24.2800 C.2    93  LEU93       0.2287
     45  O        165.7730   74.0030   24.4790 O.2    93  LEU93      -0.2864
     46  CB       164.7210   76.9430   25.5510 C.3    93  LEU93       0.0297
     47  CG       164.5730   77.7600   26.8260 C.3    93  LEU93       0.0022
     48  CD1      163.5280   78.8250   26.6350 C.3    93  LEU93       0.0001
     49  CD2      164.2000   76.8350   27.9510 C.3    93  LEU93       0.0001
     50  N        169.0030   72.6730   24.6500 N.3    96  PHE96      -0.1241
     51  CA       168.6530   71.5890   25.5580 C.3    96  PHE96       0.1605
     52  C        167.5180   70.7350   24.9930 C.2    96  PHE96       0.2264
     53  O        167.4910   69.5140   25.2010 O.2    96  PHE96      -0.2867
     54  CB       168.2780   72.1700   26.9280 C.3    96  PHE96       0.0534
     55  CG       169.4710   72.6680   27.7550 C.ar   96  PHE96      -0.0203
     56  CD1      170.6580   71.9510   27.8400 C.ar   96  PHE96      -0.0042
     57  CD2      169.3710   73.8490   28.4620 C.ar   96  PHE96      -0.0042
     58  CE1      171.7270   72.4310   28.6120 C.ar   96  PHE96      -0.0003
     59  CE2      170.4150   74.3310   29.2270 C.ar   96  PHE96      -0.0003
     60  CZ       171.5940   73.6290   29.3070 C.ar   96  PHE96      -0.0000
     61  N        168.7760   67.7980   22.5140 N.3    99  VAL99      -0.1231
     62  CA       169.7460   66.8000   22.9510 C.3    99  VAL99       0.1692
     63  C        169.0450   65.8480   23.9080 C.2    99  VAL99       0.2592
     64  O        168.1150   66.2290   24.6290 O.2    99  VAL99      -0.2718
     65  CB       170.9790   67.4170   23.6410 C.3    99  VAL99       0.0266
     66  CG1      171.7170   68.3550   22.7000 C.3    99  VAL99       0.0020
     67  CG2      170.5570   68.1370   24.9130 C.3    99  VAL99       0.0020
     68  N        169.5020   64.6060   23.9260 N.am  100  LYS100     -0.1966
     69  CA       168.9170   63.6030   24.7930 C.3   100  LYS100      0.1728
     70  C        169.5620   63.7050   26.1690 C.2   100  LYS100      0.2617
     71  O        170.7620   63.9680   26.2890 O.2   100  LYS100     -0.2715
     72  CB       169.1090   62.2180   24.1820 C.3   100  LYS100      0.0311
     73  CG       168.4230   61.1000   24.9270 C.3   100  LYS100      0.0038
     74  CD       168.3130   59.8540   24.0700 C.3   100  LYS100      0.0206
     75  CE       169.6320   59.5070   23.3880 C.3   100  LYS100      0.1093
     76  NZ       170.7610   59.3730   24.3670 N.3   100  LYS100     -0.1314
     77  N        168.7530   63.5340   27.2120 N.am  101  SER101     -0.1936
     78  CA       169.2050   63.6620   28.6000 C.3   101  SER101      0.2040
     79  C        168.7470   62.4260   29.3740 C.2   101  SER101      0.2485
     80  O        167.7030   62.4350   30.0430 O.2   101  SER101     -0.2729
     81  CB       168.6800   64.9580   29.2160 C.3   101  SER101      0.2129
     82  OG       168.9600   66.0670   28.3650 O.3   101  SER101     -0.2179
     83  N        169.5280   61.3440   29.3230 N.am  102  PRO102     -0.2715
     84  CA       169.0880   60.0810   29.9540 C.3   102  PRO102      0.1536
     85  C        168.8310   60.1810   31.4490 C.2   102  PRO102      0.2598
     86  O        167.8900   59.5510   31.9420 O.2   102  PRO102     -0.2715
     87  CB       170.2460   59.1210   29.6470 C.3   102  PRO102      0.0310
     88  CG       170.9220   59.6940   28.4690 C.3   102  PRO102      0.0237
     89  CD       170.7920   61.1860   28.5940 C.3   102  PRO102      0.0939
     90  N        169.6430   60.9290   32.2000 N.am  103  ALA103     -0.1964
     91  CA       169.3590   61.1000   33.6240 C.3   103  ALA103      0.1728
     92  C        168.0300   61.8170   33.8300 C.2   103  ALA103      0.2616
     93  O        167.2160   61.4180   34.6720 O.2   103  ALA103     -0.2715
     94  CB       170.4920   61.8700   34.3000 C.3   103  ALA103      0.0334
     95  N        167.7870   62.8730   33.0600 N.am  104  GLU104     -0.1977
     96  CA       166.4870   63.5300   33.1050 C.3   104  GLU104      0.1602
     97  C        165.3690   62.5300   32.8290 C.2   104  GLU104      0.2287
     98  O        164.3530   62.5130   33.5370 O.2   104  GLU104     -0.2864
     99  CB       166.4900   64.7000   32.1180 C.3   104  GLU104      0.0415
    100  CG       165.1840   65.4150   31.8730 C.3   104  GLU104      0.1163
    101  CD       165.3700   66.5240   30.8510 C.2   104  GLU104      0.3649
    102  OE1      165.7480   67.6490   31.2340 O.co2 104  GLU104     -0.2457
    103  OE2      165.1870   66.2650   29.6500 O.co2 104  GLU104     -0.2457
    104  N        164.7100   60.0840   35.7980 N.3   107  PHE107     -0.1227
    105  CA       163.9450   60.7390   36.8500 C.3   107  PHE107      0.1736
    106  C        162.4710   60.8980   36.4690 C.2   107  PHE107      0.2595
    107  O        161.5870   60.7430   37.3210 O.2   107  PHE107     -0.2718
    108  CB       164.5890   62.0860   37.1560 C.3   107  PHE107      0.0547
    109  CG       163.8110   62.9190   38.1140 C.ar  107  PHE107     -0.0202
    110  CD1      163.9010   62.6970   39.4790 C.ar  107  PHE107     -0.0042
    111  CD2      162.9860   63.9210   37.6510 C.ar  107  PHE107     -0.0042
    112  CE1      163.1820   63.4690   40.3600 C.ar  107  PHE107     -0.0003
    113  CE2      162.2600   64.6900   38.5260 C.ar  107  PHE107     -0.0003
    114  CZ       162.3550   64.4680   39.8820 C.ar  107  PHE107     -0.0000
    115  N        162.1820   61.2060   35.1960 N.am  108  LEU108     -0.1980
    116  CA       160.7950   61.4040   34.7680 C.3   108  LEU108      0.1596
    117  C        159.9530   60.1470   34.9530 C.2   108  LEU108      0.2287
    118  O        158.7270   60.2330   35.1110 O.2   108  LEU108     -0.2864
    119  CB       160.7450   61.8250   33.3020 C.3   108  LEU108      0.0297
    120  CG       161.3980   63.1590   32.9700 C.3   108  LEU108      0.0022
    121  CD1      161.4850   63.2950   31.4630 C.3   108  LEU108      0.0001
    122  CD2      160.6200   64.3060   33.5840 C.3   108  LEU108      0.0001
    123  N        157.9660   60.5490   38.0200 N.3   111  VAL111     -0.1245
    124  CA       157.0970   61.7080   38.1830 C.3   111  VAL111      0.1561
    125  C        155.6760   61.3230   37.7840 C.2   111  VAL111      0.2260
    126  O        155.4560   60.7080   36.7330 O.2   111  VAL111     -0.2867
    127  CB       157.5950   62.8970   37.3400 C.3   111  VAL111      0.0252
    128  CG1      156.7010   64.1180   37.5410 C.3   111  VAL111      0.0019
    129  CG2      159.0200   63.2300   37.6860 C.3   111  VAL111      0.0019
@<TRIPOS>BOND
     1    61    62    1
     2    66    65    1
     3    62    65    1
     4    62    63    1
     5    75    74    1
     6    75    76    1
     7    65    67    1
     8    63    68   am
     9    63    64    2
    10    68    69    1
    11    74    73    1
    12    12    11    2
    13    34    35    1
    14    72    69    1
    15    72    73    1
    16    44    45    2
    17    44    43    1
    18    11    10    1
    19    13    14    1
    20    13    10    1
    21    50    51    1
    22    29    28    2
    23    28    27    1
    24    69    70    1
    25    26    27    1
    26    52    53    2
    27    52    51    1
    28    21    20    2
    29    20    19    1
    30    14    15    1
    31    35    36    1
    32    35    38    1
    33    10     9    1
    34    42    36   am
    35    42    43    1
    36    36    37    2
    37    43    46    1
    38    46    47    1
    39    51    54    1
    40    15    16    1
    41    27    30    1
    42    70    71    2
    43    70    77   am
    44     9     3   am
    45    39    38    1
    46    39    41    1
    47    19    18    1
    48    19    22    1
    49    38    40    1
    50    16    17    1
    51    24    22    1
    52    48    47    1
    53    22    23    1
    54    47    49    1
    55    54    55    1
    56    30    31    1
    57     3     4    2
    58     3     2    1
    59    77    78    1
    60     1     2    1
    61    55    56   ar
    62    55    57   ar
    63    56    58   ar
    64    31    33    1
    65    31    32    1
    66    23    25    1
    67     2     5    1
    68    82    81    1
    69    57    59   ar
    70    88    89    1
    71    88    87    1
    72    89    83    1
    73    78    81    1
    74    78    79    1
    75    58    60   ar
    76    59    60   ar
    77     5     6    1
    78    83    79   am
    79    83    84    1
    80    79    80    2
    81    87    84    1
    82   103   101   ar
    83    84    85    1
    84     6     7    1
    85     6     8    1
    86   101   102   ar
    87   101   100    1
    88    85    86    2
    89    85    90   am
    90   121   120    1
    91   100    99    1
    92    99    96    1
    93    90    91    1
    94    97    96    1
    95    97    98    2
    96   120   119    1
    97   120   122    1
    98    95    96    1
    99    95    92   am
   100   119   116    1
   101    91    92    1
   102    91    94    1
   103    92    93    2
   104   116   117    1
   105   116   115    1
   106   117   118    2
   107   115   106   am
   108   104   105    1
   109   106   105    1
   110   106   107    2
   111   126   125    2
   112   105   108    1
   113   108   109    1
   114   127   128    1
   115   127   129    1
   116   127   124    1
   117   111   109   ar
   118   111   113   ar
   119   125   124    1
   120   123   124    1
   121   109   110   ar
   122   113   114   ar
   123   110   112   ar
   124   114   112   ar
