@<TRIPOS>MOLECULE
tmp/5v8kA01.pdb
 132 127 0 0 0
SMALL
GASTEIGER

@<TRIPOS>ATOM
      1  N        152.1090   65.0450   40.9720 N.3   115  LYS115     -0.1245
      2  CA       153.3350   65.6920   41.4480 C.3   115  LYS115      0.1561
      3  C        153.6790   66.9100   40.6050 C.2   115  LYS115      0.2260
      4  O        154.0170   67.9750   41.1350 O.2   115  LYS115     -0.2867
      5  CB       154.5160   64.7180   41.4150 C.3   115  LYS115      0.0271
      6  CG       154.5620   63.6710   42.5120 C.3   115  LYS115      0.0035
      7  CD       154.2290   64.2640   43.8760 C.3   115  LYS115      0.0206
      8  CE       154.5660   63.3100   45.0070 C.3   115  LYS115      0.1093
      9  NZ       153.7480   63.6570   46.1940 N.3   115  LYS115     -0.1314
     10  N        151.6210   69.7990   41.6780 N.3   118  VAL118     -0.1231
     11  CA       152.1700   70.4090   42.8940 C.3   118  VAL118      0.1692
     12  C        153.2910   71.3690   42.5290 C.2   118  VAL118      0.2591
     13  O        153.3240   72.5200   42.9840 O.2   118  VAL118     -0.2718
     14  CB       152.6660   69.3290   43.8780 C.3   118  VAL118      0.0266
     15  CG1      153.2950   69.9670   45.1000 C.3   118  VAL118      0.0020
     16  CG2      151.5370   68.4660   44.3520 C.3   118  VAL118      0.0020
     17  N        154.2250   70.9040   41.6920 N.am  119  ALA119     -0.1980
     18  CA       155.3650   71.7270   41.3010 C.3   119  ALA119      0.1597
     19  C        154.9100   72.9660   40.5510 C.2   119  ALA119      0.2287
     20  O        155.4810   74.0490   40.7190 O.2   119  ALA119     -0.2864
     21  CB       156.3340   70.9130   40.4390 C.3   119  ALA119      0.0319
     22  N        153.7740   75.7790   42.8650 N.3   122  HIS122     -0.1226
     23  CA       154.8180   76.5500   43.5380 C.3   122  HIS122      0.1752
     24  C        155.7040   77.3170   42.5660 C.2   122  HIS122      0.2596
     25  O        156.2510   78.3580   42.9400 O.2   122  HIS122     -0.2718
     26  CB       155.6780   75.6430   44.4440 C.3   122  HIS122      0.0759
     27  CG       155.1170   75.4640   45.8230 C.ar  122  HIS122      0.0818
     28  ND1      155.8820   75.0570   46.8920 N.ar  122  HIS122     -0.2268
     29  CD2      153.8680   75.6400   46.3090 C.ar  122  HIS122      0.1154
     30  CE1      155.1320   74.9760   47.9740 C.ar  122  HIS122      0.1986
     31  NE2      153.9030   75.3300   47.6490 N.ar  122  HIS122     -0.2212
     32  N        155.8340   76.8600   41.3220 N.am  123  PHE123     -0.1976
     33  CA       156.4230   77.7100   40.2970 C.3   123  PHE123      0.1639
     34  C        155.5530   78.9460   40.0430 C.2   123  PHE123      0.2290
     35  O        156.0580   80.0740   39.9760 O.2   123  PHE123     -0.2864
     36  CB       156.6180   76.9260   39.0000 C.3   123  PHE123      0.0560
     37  CG       157.2750   77.7340   37.9090 C.ar  123  PHE123     -0.0200
     38  CD1      158.5880   78.1710   38.0440 C.ar  123  PHE123     -0.0042
     39  CD2      156.5910   78.0560   36.7590 C.ar  123  PHE123     -0.0042
     40  CE1      159.2000   78.9210   37.0470 C.ar  123  PHE123     -0.0003
     41  CE2      157.2070   78.8160   35.7510 C.ar  123  PHE123     -0.0003
     42  CZ       158.5050   79.2360   35.9040 C.ar  123  PHE123     -0.0000
     43  N        153.5230   80.2120   42.1710 N.3   125  ALA125     -0.1231
     44  CA       153.6700   81.0270   43.3710 C.3   125  ALA125      0.1694
     45  C        154.9250   81.8810   43.2880 C.2   125  ALA125      0.2591
     46  O        154.8990   83.0710   43.6190 O.2   125  ALA125     -0.2718
     47  CB       153.7180   80.1400   44.6150 C.3   125  ALA125      0.0304
     48  N        156.0260   81.3010   42.8150 N.am  126  LEU126     -0.1980
     49  CA       157.2550   82.0670   42.6760 C.3   126  LEU126      0.1596
     50  C        157.0490   83.2330   41.7220 C.2   126  LEU126      0.2287
     51  O        157.3300   84.3830   42.0690 O.2   126  LEU126     -0.2864
     52  CB       158.3900   81.1650   42.1960 C.3   126  LEU126      0.0297
     53  CG       159.7170   81.8600   41.9130 C.3   126  LEU126      0.0022
     54  CD1      160.3500   82.3050   43.2190 C.3   126  LEU126      0.0001
     55  CD2      160.6170   80.9340   41.1320 C.3   126  LEU126      0.0001
     56  N        154.8640   86.0660   43.1660 N.3   129  THR129     -0.1218
     57  CA       155.5240   86.8170   44.2370 C.3   129  THR129      0.1862
     58  C        156.6160   87.7170   43.6800 C.2   129  THR129      0.2287
     59  O        156.6800   88.9060   44.0050 O.2   129  THR129     -0.2866
     60  CB       156.1010   85.8450   45.2750 C.3   129  THR129      0.1770
     61  OG1      155.0440   85.0280   45.7960 O.3   129  THR129     -0.2211
     62  CG2      156.7810   86.5910   46.4260 C.3   129  THR129      0.0375
     63  N        151.4540   89.2930   45.2570 N.3   170  VAL170     -0.1245
     64  CA       152.0740   88.6310   46.3980 C.3   170  VAL170      0.1561
     65  C        151.0700   87.7200   47.0850 C.2   170  VAL170      0.2260
     66  O        151.4140   86.6180   47.5370 O.2   170  VAL170     -0.2867
     67  CB       152.6440   89.6860   47.3640 C.3   170  VAL170      0.0252
     68  CG1      153.3170   89.0270   48.5640 C.3   170  VAL170      0.0019
     69  CG2      153.6280   90.5850   46.6450 C.3   170  VAL170      0.0019
     70  N        150.7930   84.6500   45.2930 N.3   173  GLY173     -0.1210
     71  CA       151.9450   83.8300   45.6170 C.3   173  GLY173      0.1956
     72  C        151.7190   83.0220   46.8750 C.2   173  GLY173      0.2611
     73  O        151.9120   81.8070   46.8930 O.2   173  GLY173     -0.2717
     74  N        151.2870   83.6910   47.9420 N.am  174  ALA174     -0.1979
     75  CA       150.9940   83.0040   49.1970 C.3   174  ALA174      0.1597
     76  C        149.9260   81.9260   49.0150 C.2   174  ALA174      0.2287
     77  O        150.0740   80.8040   49.5150 O.2   174  ALA174     -0.2864
     78  CB       150.5460   84.0230   50.2500 C.3   174  ALA174      0.0319
     79  N        151.2640   79.0230   47.2360 N.3   177  PHE177     -0.1227
     80  CA       152.2420   78.3650   48.0950 C.3   177  PHE177      0.1736
     81  C        151.5480   77.4380   49.0930 C.2   177  PHE177      0.2595
     82  O        151.9100   76.2630   49.2240 O.2   177  PHE177     -0.2718
     83  CB       153.1010   79.4170   48.8140 C.3   177  PHE177      0.0547
     84  CG       154.0360   78.8440   49.8540 C.ar  177  PHE177     -0.0202
     85  CD1      155.1770   78.1680   49.4750 C.ar  177  PHE177     -0.0042
     86  CD2      153.7790   79.0050   51.2040 C.ar  177  PHE177     -0.0042
     87  CE1      156.0480   77.6610   50.4170 C.ar  177  PHE177     -0.0003
     88  CE2      154.6510   78.4960   52.1540 C.ar  177  PHE177     -0.0003
     89  CZ       155.7880   77.8270   51.7570 C.ar  177  PHE177     -0.0000
     90  N        150.5420   77.9480   49.8080 N.am  178  LEU178     -0.1980
     91  CA       149.8010   77.0980   50.7360 C.3   178  LEU178      0.1596
     92  C        149.0760   75.9750   50.0050 C.2   178  LEU178      0.2287
     93  O        148.9740   74.8530   50.5200 O.2   178  LEU178     -0.2864
     94  CB       148.8050   77.9380   51.5310 C.3   178  LEU178      0.0297
     95  CG       149.3980   79.0840   52.3500 C.3   178  LEU178      0.0022
     96  CD1      148.2750   79.8200   53.0830 C.3   178  LEU178      0.0001
     97  CD2      150.4700   78.5940   53.3400 C.3   178  LEU178      0.0001
     98  N        149.9130   74.5300   47.1570 N.3   180  GLY180     -0.1210
     99  CA       150.8960   73.5310   46.7590 C.3   180  GLY180      0.1956
    100  C        151.3450   72.6530   47.9150 C.2   180  GLY180      0.2611
    101  O        151.4800   71.4360   47.7720 O.2   180  GLY180     -0.2717
    102  N        151.5780   73.2500   49.0770 N.am  181  ILE181     -0.1979
    103  CA       151.9420   72.4520   50.2430 C.3   181  ILE181      0.1595
    104  C        150.8090   71.5090   50.6090 C.2   181  ILE181      0.2287
    105  O        151.0290   70.3180   50.8800 O.2   181  ILE181     -0.2864
    106  CB       152.3220   73.3590   51.4220 C.3   181  ILE181      0.0276
    107  CG1      153.6790   73.9850   51.1430 C.3   181  ILE181      0.0022
    108  CG2      152.3720   72.5590   52.7300 C.3   181  ILE181      0.0022
    109  CD1      154.0220   75.0690   52.0660 C.3   181  ILE181      0.0001
    110  N        150.7200   68.7630   48.1950 N.3   184  TYR184     -0.1227
    111  CA       151.8940   67.9130   48.3010 C.3   184  TYR184      0.1736
    112  C        151.6210   66.7620   49.2560 C.2   184  TYR184      0.2595
    113  O        152.0280   65.6210   49.0070 O.2   184  TYR184     -0.2718
    114  CB       153.0940   68.7330   48.7550 C.3   184  TYR184      0.0548
    115  CG       154.3200   67.9110   49.0250 C.ar  184  TYR184     -0.0200
    116  CD1      154.9950   67.2780   47.9950 C.ar  184  TYR184     -0.0009
    117  CD2      154.8060   67.7740   50.3090 C.ar  184  TYR184     -0.0009
    118  CE1      156.1180   66.5220   48.2340 C.ar  184  TYR184      0.0417
    119  CE2      155.9350   67.0310   50.5670 C.ar  184  TYR184      0.0417
    120  CZ       156.5930   66.4060   49.5270 C.ar  184  TYR184      0.1957
    121  OH       157.7200   65.6530   49.8050 O.3   184  TYR184     -0.2866
    122  N        150.9010   67.0400   50.3370 N.am  185  PHE185     -0.1976
    123  CA       150.6550   66.0590   51.3820 C.3   185  PHE185      0.1639
    124  C        149.3930   65.2350   51.1320 C.2   185  PHE185      0.2290
    125  O        149.3700   64.0360   51.4260 O.2   185  PHE185     -0.2864
    126  CB       150.5610   66.7740   52.7290 C.3   185  PHE185      0.0560
    127  CG       151.8800   67.2650   53.2400 C.ar  185  PHE185     -0.0200
    128  CD1      152.8720   66.3680   53.6150 C.ar  185  PHE185     -0.0042
    129  CD2      152.1320   68.6270   53.3510 C.ar  185  PHE185     -0.0042
    130  CE1      154.0900   66.8220   54.0840 C.ar  185  PHE185     -0.0003
    131  CE2      153.3400   69.0850   53.8190 C.ar  185  PHE185     -0.0003
    132  CZ       154.3250   68.1870   54.1850 C.ar  185  PHE185     -0.0000
@<TRIPOS>BOND
     1    41    42   ar
     2    41    39   ar
     3    42    40   ar
     4    39    37   ar
     5    40    38   ar
     6    37    38   ar
     7    37    36    1
     8    36    33    1
     9    35    34    2
    10    34    33    1
    11    33    32    1
    12    21    18    1
    13    19    20    2
    14    19    18    1
    15     3     4    2
    16     3     2    1
    17     1     2    1
    18    55    53    1
    19    18    17    1
    20    32    24   am
    21     5     2    1
    22     5     6    1
    23    10    11    1
    24    17    12   am
    25    50    51    2
    26    50    49    1
    27    53    52    1
    28    53    54    1
    29    43    44    1
    30    52    49    1
    31     6     7    1
    32    12    11    1
    33    12    13    2
    34    24    25    2
    35    24    23    1
    36    49    48    1
    37    48    45   am
    38    22    23    1
    39    11    14    1
    40    56    57    1
    41    45    44    1
    42    45    46    2
    43    44    47    1
    44    23    26    1
    45    58    59    2
    46    58    57    1
    47     7     8    1
    48    14    16    1
    49    14    15    1
    50    57    60    1
    51    26    27    1
    52     8     9    1
    53    63    64    1
    54    60    61    1
    55    60    62    1
    56    70    71    1
    57    71    72    1
    58    27    29   ar
    59    27    28   ar
    60    29    31   ar
    61    64    65    1
    62    64    67    1
    63    69    67    1
    64    99    98    1
    65    99   100    1
    66    72    73    2
    67    72    74   am
    68    28    30   ar
    69    65    66    2
    70    79    80    1
    71    67    68    1
    72    31    30   ar
    73   101   100    2
    74   100   102   am
    75    74    75    1
    76   116   118   ar
    77   116   115   ar
    78    80    83    1
    79    80    81    1
    80   110   111    1
    81   118   120   ar
    82   111   114    1
    83   111   112    1
    84   114   115    1
    85    83    84    1
    86   113   112    2
    87    76    75    1
    88    76    77    2
    89   115   117   ar
    90   102   103    1
    91    81    82    2
    92    81    90   am
    93    75    78    1
    94   112   122   am
    95    85    84   ar
    96    85    87   ar
    97   120   121    1
    98   120   119   ar
    99    90    91    1
   100    84    86   ar
   101    92    93    2
   102    92    91    1
   103   103   104    1
   104   103   106    1
   105   117   119   ar
   106   122   123    1
   107    87    89   ar
   108   104   105    2
   109    91    94    1
   110   124   123    1
   111   124   125    2
   112   107   106    1
   113   107   109    1
   114    86    88   ar
   115   123   126    1
   116   106   108    1
   117    94    95    1
   118    89    88   ar
   119    95    96    1
   120    95    97    1
   121   126   127    1
   122   127   129   ar
   123   127   128   ar
   124   129   131   ar
   125   128   130   ar
   126   131   132   ar
   127   130   132   ar
