@<TRIPOS>MOLECULE
tmp/5v8kA08.pdb
 116 115 0 0 0
SMALL
GASTEIGER

@<TRIPOS>ATOM
      1  N        152.0300   74.5650   40.9430 N.3   121  PHE121     -0.1241
      2  CA       151.5120   75.4880   41.9500 C.3   121  PHE121      0.1605
      3  C        152.6120   76.3630   42.5520 C.2   121  PHE121      0.2264
      4  O        152.4020   77.5630   42.7760 O.2   121  PHE121     -0.2867
      5  CB       150.8150   74.7120   43.0830 C.3   121  PHE121      0.0534
      6  CG       149.4860   74.0980   42.7050 C.ar  121  PHE121     -0.0203
      7  CD1      148.7440   74.6010   41.6530 C.ar  121  PHE121     -0.0042
      8  CD2      148.9700   73.0300   43.4320 C.ar  121  PHE121     -0.0042
      9  CE1      147.4980   74.0360   41.3060 C.ar  121  PHE121     -0.0003
     10  CE2      147.7420   72.4570   43.0920 C.ar  121  PHE121     -0.0003
     11  CZ       147.0060   72.9630   42.0240 C.ar  121  PHE121     -0.0000
     12  N        148.5200   86.1700   45.6930 N.3   172  PHE172     -0.1241
     13  CA       148.4150   84.9780   44.8660 C.3   172  PHE172      0.1605
     14  C        149.6190   84.0750   45.0640 C.2   172  PHE172      0.2264
     15  O        149.4870   82.8520   45.0370 O.2   172  PHE172     -0.2867
     16  CB       148.2530   85.3550   43.3820 C.3   172  PHE172      0.0534
     17  CG       146.8190   85.3850   42.9190 C.ar  172  PHE172     -0.0203
     18  CD1      146.1560   84.2080   42.5670 C.ar  172  PHE172     -0.0042
     19  CD2      146.1310   86.5890   42.8370 C.ar  172  PHE172     -0.0042
     20  CE1      144.8480   84.2300   42.1580 C.ar  172  PHE172     -0.0003
     21  CE2      144.8280   86.6240   42.4210 C.ar  172  PHE172     -0.0003
     22  CZ       144.1710   85.4350   42.0790 C.ar  172  PHE172     -0.0000
     23  N        148.9080   80.1660   46.3260 N.3   176  PHE176     -0.1241
     24  CA       149.4180   78.9950   45.6150 C.3   176  PHE176      0.1605
     25  C        150.5490   78.3020   46.3680 C.2   176  PHE176      0.2264
     26  O        150.7960   77.1110   46.1450 O.2   176  PHE176     -0.2867
     27  CB       149.9010   79.3840   44.2260 C.3   176  PHE176      0.0534
     28  CG       148.8120   79.4340   43.2020 C.ar  176  PHE176     -0.0203
     29  CD1      148.1910   78.2680   42.7730 C.ar  176  PHE176     -0.0042
     30  CD2      148.3990   80.6380   42.6730 C.ar  176  PHE176     -0.0042
     31  CE1      147.1680   78.3050   41.8210 C.ar  176  PHE176     -0.0003
     32  CE2      147.3740   80.6880   41.7040 C.ar  176  PHE176     -0.0003
     33  CZ       146.7740   79.5290   41.2810 C.ar  176  PHE176     -0.0000
     34  N        148.4000   70.1850   48.8030 N.3   183  HIS183     -0.1241
     35  CA       148.3080   69.0590   47.8820 C.3   183  HIS183      0.1621
     36  C        149.5650   68.2100   47.8360 C.2   183  HIS183      0.2264
     37  O        149.4980   67.0560   47.4000 O.2   183  HIS183     -0.2867
     38  CB       148.0180   69.5360   46.4770 C.3   183  HIS183      0.0745
     39  CG       146.5630   69.7230   46.2160 C.ar  183  HIS183      0.0817
     40  ND1      145.6480   68.7020   46.3410 N.ar  183  HIS183     -0.2268
     41  CD2      145.8630   70.8190   45.8540 C.ar  183  HIS183      0.1154
     42  CE1      144.4420   69.1600   46.0650 C.ar  183  HIS183      0.1986
     43  NE2      144.5480   70.4400   45.7630 N.ar  183  HIS183     -0.2212
     44  N        138.5540   62.0920   40.6170 N.3   193  PHE193     -0.1241
     45  CA       139.8110   62.7350   40.2250 C.3   193  PHE193      0.1605
     46  C        140.9680   61.7620   40.0680 C.2   193  PHE193      0.2264
     47  O        141.9260   62.0880   39.3580 O.2   193  PHE193     -0.2867
     48  CB       140.2310   63.8180   41.2410 C.3   193  PHE193      0.0534
     49  CG       139.3820   65.0510   41.1880 C.ar  193  PHE193     -0.0203
     50  CD1      138.1740   65.1040   41.8690 C.ar  193  PHE193     -0.0042
     51  CD2      139.7690   66.1430   40.4430 C.ar  193  PHE193     -0.0042
     52  CE1      137.3770   66.2210   41.8050 C.ar  193  PHE193     -0.0003
     53  CE2      138.9750   67.2660   40.3800 C.ar  193  PHE193     -0.0003
     54  CZ       137.7760   67.3020   41.0630 C.ar  193  PHE193     -0.0000
     55  N        139.5780   74.5580   30.4770 N.3   210  ILE210     -0.1245
     56  CA       139.6570   75.6240   31.4620 C.3   210  ILE210      0.1561
     57  C        140.3870   76.8380   30.8790 C.2   210  ILE210      0.2260
     58  O        139.9960   77.9800   31.1120 O.2   210  ILE210     -0.2867
     59  CB       140.3350   75.1230   32.7440 C.3   210  ILE210      0.0252
     60  CG1      139.5030   74.0230   33.3910 C.3   210  ILE210      0.0019
     61  CG2      140.5770   76.2890   33.7200 C.3   210  ILE210      0.0019
     62  CD1      138.1810   74.4690   34.0190 C.3   210  ILE210      0.0001
     63  N        137.9480   78.9760   29.0760 N.3   213  PHE213     -0.1227
     64  CA       137.1670   79.8000   29.9800 C.3   213  PHE213      0.1736
     65  C        137.9720   80.9870   30.4980 C.2   213  PHE213      0.2595
     66  O        137.4260   82.0870   30.6470 O.2   213  PHE213     -0.2718
     67  CB       136.6470   78.9540   31.1310 C.3   213  PHE213      0.0547
     68  CG       135.8200   79.7240   32.0690 C.ar  213  PHE213     -0.0202
     69  CD1      134.4810   79.9790   31.8060 C.ar  213  PHE213     -0.0042
     70  CD2      136.3890   80.2530   33.1840 C.ar  213  PHE213     -0.0042
     71  CE1      133.7350   80.7330   32.6940 C.ar  213  PHE213     -0.0003
     72  CE2      135.6770   81.0170   34.0490 C.ar  213  PHE213     -0.0003
     73  CZ       134.3640   81.2740   33.8230 C.ar  213  PHE213     -0.0000
     74  N        139.2660   80.7890   30.7740 N.am  214  HIS214     -0.1975
     75  CA       140.1500   81.9070   31.1080 C.3   214  HIS214      0.1656
     76  C        140.1820   82.9230   29.9710 C.2   214  HIS214      0.2291
     77  O        140.0740   84.1280   30.1950 O.2   214  HIS214     -0.2864
     78  CB       141.5560   81.3790   31.3990 C.3   214  HIS214      0.0771
     79  CG       141.7360   80.7830   32.7630 C.ar  214  HIS214      0.0820
     80  ND1      141.0440   81.2180   33.8730 N.ar  214  HIS214     -0.2267
     81  CD2      142.5510   79.7880   33.1970 C.ar  214  HIS214      0.1154
     82  CE1      141.4260   80.5200   34.9320 C.ar  214  HIS214      0.1986
     83  NE2      142.3470   79.6520   34.5510 N.ar  214  HIS214     -0.2212
     84  N        137.1730   85.0520   30.1490 N.3   217  THR217     -0.1203
     85  CA       137.2330   86.0610   31.2010 C.3   217  THR217      0.1994
     86  C        138.2050   87.1750   30.8180 C.2   217  THR217      0.2617
     87  O        138.0050   88.3330   31.2030 O.2   217  THR217     -0.2717
     88  CB       137.6080   85.4480   32.5610 C.3   217  THR217      0.1784
     89  OG1      138.9250   84.8850   32.5540 O.3   217  THR217     -0.2211
     90  CG2      136.6270   84.3980   32.9430 C.3   217  THR217      0.0376
     91  N        139.2310   86.8580   30.0300 N.am  218  VAL218     -0.1979
     92  CA       140.1810   87.8790   29.6210 C.3   218  VAL218      0.1595
     93  C        139.5550   88.8200   28.5950 C.2   218  VAL218      0.2287
     94  O        139.7900   90.0340   28.6290 O.2   218  VAL218     -0.2864
     95  CB       141.4740   87.2320   29.0940 C.3   218  VAL218      0.0276
     96  CG1      142.3700   88.2960   28.4120 C.3   218  VAL218      0.0022
     97  CG2      142.2300   86.5820   30.2460 C.3   218  VAL218      0.0022
     98  N        137.4910   91.1240   30.5760 N.3   221  ALA221     -0.1245
     99  CA       138.3100   92.0140   31.3910 C.3   221  ALA221      0.1562
    100  C        138.9910   93.0890   30.5350 C.2   221  ALA221      0.2260
    101  O        139.1660   94.2280   30.9730 O.2   221  ALA221     -0.2867
    102  CB       139.3490   91.2080   32.1630 C.3   221  ALA221      0.0290
    103  N        138.1680   96.3610   32.3290 N.3   225  TRP225     -0.1241
    104  CA       139.2710   96.8400   33.1750 C.3   225  TRP225      0.1605
    105  C        140.2220   97.6070   32.2640 C.2   225  TRP225      0.2264
    106  O        141.1650   97.0520   31.6940 O.2   225  TRP225     -0.2867
    107  CB       139.9430   95.6800   33.9070 C.3   225  TRP225      0.0550
    108  CG       141.1270   96.0490   34.7820 C.ar  225  TRP225      0.0003
    109  CD1      142.3500   95.4420   34.7930 C.ar  225  TRP225      0.0946
    110  CD2      141.1890   97.0900   35.7720 C.ar  225  TRP225      0.0152
    111  NE1      143.1610   96.0240   35.7380 N.ar  225  TRP225     -0.2442
    112  CE2      142.4720   97.0340   36.3540 C.ar  225  TRP225      0.0810
    113  CE3      140.2770   98.0340   36.2410 C.ar  225  TRP225      0.0012
    114  CZ2      142.8820   97.9160   37.3510 C.ar  225  TRP225      0.0191
    115  CZ3      140.6710   98.8980   37.2440 C.ar  225  TRP225      0.0001
    116  CH2      141.9750   98.8480   37.7790 C.ar  225  TRP225      0.0015
@<TRIPOS>BOND
     1    96    95    1
     2    93    94    2
     3    93    92    1
     4    63    64    1
     5    95    92    1
     6    95    97    1
     7    92    91    1
     8    76    77    2
     9    76    75    1
    10    64    65    1
    11    64    67    1
    12    91    86   am
    13    84    85    1
    14    55    56    1
    15    65    66    2
    16    65    74   am
    17   100   101    2
    18   100    99    1
    19    98    99    1
    20    74    75    1
    21    86    85    1
    22    86    87    2
    23    57    58    2
    24    57    56    1
    25    75    78    1
    26    67    68    1
    27    85    88    1
    28    99   102    1
    29    78    79    1
    30    56    59    1
    31   106   105    2
    32    69    68   ar
    33    69    71   ar
    34    68    70   ar
    35   105   104    1
    36   103   104    1
    37    89    88    1
    38    88    90    1
    39    71    73   ar
    40    59    60    1
    41    59    61    1
    42    79    81   ar
    43    79    80   ar
    44   104   107    1
    45    70    72   ar
    46    81    83   ar
    47    60    62    1
    48    73    72   ar
    49    80    82   ar
    50   107   108    1
    51    83    82   ar
    52   108   109   ar
    53   108   110   ar
    54   109   111   ar
    55   111   112   ar
    56   110   113   ar
    57   110   112   ar
    58   113   115   ar
    59   112   114   ar
    60   115   116   ar
    61   114   116   ar
    62    47    46    2
    63    46    45    1
    64    45    44    1
    65    45    48    1
    66    53    51   ar
    67    53    54   ar
    68    51    49   ar
    69     1     2    1
    70    54    52   ar
    71    49    48    1
    72    49    50   ar
    73    33    32   ar
    74    33    31   ar
    75     9     7   ar
    76     9    11   ar
    77     7     6   ar
    78    32    30   ar
    79    52    50   ar
    80    31    29   ar
    81     2     3    1
    82     2     5    1
    83    11    10   ar
    84    22    20   ar
    85    22    21   ar
    86    20    18   ar
    87    21    19   ar
    88     3     4    2
    89    18    17   ar
    90    30    28   ar
    91     6     5    1
    92     6     8   ar
    93    29    28   ar
    94    19    17   ar
    95    17    16    1
    96    10     8   ar
    97    28    27    1
    98    16    13    1
    99    27    24    1
   100    13    14    1
   101    13    12    1
   102    15    14    2
   103    24    23    1
   104    24    25    1
   105    43    41   ar
   106    43    42   ar
   107    41    39   ar
   108    42    40   ar
   109    26    25    2
   110    39    40   ar
   111    39    38    1
   112    38    35    1
   113    37    36    2
   114    36    35    1
   115    35    34    1
