@<TRIPOS>MOLECULE
tmp/5v8kA29.pdb
 160 150 0 0 0
SMALL
GASTEIGER

@<TRIPOS>ATOM
      1  N        158.7900   76.2720   24.9580 N.3    29  LEU29      -0.1245
      2  CA       159.2640   77.4690   25.6510 C.3    29  LEU29       0.1561
      3  C        160.2490   78.2600   24.7840 C.2    29  LEU29       0.2260
      4  O        160.1740   79.4940   24.7130 O.2    29  LEU29      -0.2867
      5  CB       159.9080   77.0870   26.9840 C.3    29  LEU29       0.0270
      6  CG       158.9370   76.4590   27.9870 C.3    29  LEU29       0.0019
      7  CD1      159.6640   75.9690   29.2020 C.3    29  LEU29       0.0001
      8  CD2      157.8270   77.3990   28.3680 C.3    29  LEU29       0.0001
      9  N        158.2760   80.3630   22.4590 N.3    32  VAL32      -0.1231
     10  CA       157.6960   81.5250   23.1060 C.3    32  VAL32       0.1692
     11  C        158.7390   82.6280   23.1930 C.2    32  VAL32       0.2591
     12  O        158.5390   83.7470   22.7100 O.2    32  VAL32      -0.2718
     13  CB       157.1680   81.1460   24.4990 C.3    32  VAL32       0.0266
     14  CG1      156.6420   82.3940   25.2700 C.3    32  VAL32       0.0020
     15  CG2      156.0780   80.0380   24.3920 C.3    32  VAL32       0.0020
     16  N        159.8910   82.3170   23.7850 N.am   33  ALA33      -0.1980
     17  CA       160.9330   83.3290   23.8810 C.3    33  ALA33       0.1597
     18  C        161.3400   83.8350   22.4960 C.2    33  ALA33       0.2287
     19  O        161.6240   85.0250   22.3230 O.2    33  ALA33      -0.2864
     20  CB       162.1430   82.7770   24.6430 C.3    33  ALA33       0.0319
     21  N        158.9590   86.5320   20.9570 N.3    36  VAL36      -0.1245
     22  CA       159.1930   87.8200   21.6030 C.3    36  VAL36       0.1561
     23  C        160.4170   88.5070   21.0050 C.2    36  VAL36       0.2260
     24  O        160.3850   89.7050   20.7130 O.2    36  VAL36      -0.2867
     25  CB       159.3410   87.6370   23.1260 C.3    36  VAL36       0.0252
     26  CG1      159.7440   88.9140   23.7910 C.3    36  VAL36       0.0019
     27  CG2      158.0250   87.2280   23.7130 C.3    36  VAL36       0.0019
     28  N        160.0090   92.1220   18.4650 N.3    40  LEU40      -0.1245
     29  CA       160.5450   93.4220   18.8840 C.3    40  LEU40       0.1561
     30  C        161.5110   94.0360   17.8720 C.2    40  LEU40       0.2260
     31  O        161.8260   95.2290   17.9830 O.2    40  LEU40      -0.2867
     32  CB       161.2530   93.3030   20.2560 C.3    40  LEU40       0.0270
     33  CG       160.2960   92.9520   21.4220 C.3    40  LEU40       0.0019
     34  CD1      161.0690   92.7320   22.7110 C.3    40  LEU40       0.0001
     35  CD2      159.2490   94.0330   21.6250 C.3    40  LEU40       0.0001
     36  N        153.2100   94.2350   21.4530 N.3    61  PHE61      -0.1241
     37  CA       154.3870   93.9490   22.2700 C.3    61  PHE61       0.1605
     38  C        155.1260   95.2340   22.6410 C.2    61  PHE61       0.2264
     39  O        155.7040   95.3350   23.7350 O.2    61  PHE61      -0.2867
     40  CB       155.3060   92.9820   21.5260 C.3    61  PHE61       0.0534
     41  CG       154.8260   91.5870   21.5540 C.ar   61  PHE61      -0.0203
     42  CD1      153.9700   91.1340   20.5790 C.ar   61  PHE61      -0.0042
     43  CD2      155.1800   90.7370   22.5700 C.ar   61  PHE61      -0.0042
     44  CE1      153.5010   89.8520   20.5960 C.ar   61  PHE61      -0.0003
     45  CE2      154.6890   89.4200   22.6110 C.ar   61  PHE61      -0.0003
     46  CZ       153.8570   88.9890   21.6390 C.ar   61  PHE61      -0.0000
     47  N        153.3740   96.7300   25.4460 N.3    64  ARG64      -0.1231
     48  CA       153.8450   96.1620   26.7040 C.3    64  ARG64       0.1694
     49  C        155.1070   96.8600   27.1970 C.2    64  ARG64       0.2591
     50  O        155.2320   97.1550   28.3960 O.2    64  ARG64      -0.2718
     51  CB       154.0710   94.6610   26.5600 C.3    64  ARG64       0.0321
     52  CG       152.7270   93.8630   26.4730 C.3    64  ARG64       0.0489
     53  CD       152.2600   93.4400   27.8800 C.3    64  ARG64       0.2205
     54  NE       152.8730   92.1750   28.2120 N.pl3  64  ARG64      -0.0865
     55  CZ       153.4890   91.8510   29.3440 C.cat  64  ARG64       0.5346
     56  NH1      153.9560   90.6210   29.4590 N.pl3  64  ARG64       0.1354
     57  NH2      153.6750   92.7130   30.3360 N.pl3  64  ARG64       0.1354
     58  N        156.0650   97.1380   26.2950 N.am   65  LEU65      -0.1980
     59  CA       157.2800   97.8330   26.7260 C.3    65  LEU65       0.1596
     60  C        156.9080   99.1400   27.3920 C.2    65  LEU65       0.2287
     61  O        157.4650   99.5100   28.4370 O.2    65  LEU65      -0.2864
     62  CB       158.2110   98.1230   25.5490 C.3    65  LEU65       0.0297
     63  CG       158.8990   96.9810   24.8120 C.3    65  LEU65       0.0022
     64  CD1      159.8510   97.5560   23.7970 C.3    65  LEU65       0.0001
     65  CD2      159.6280   96.1270   25.7730 C.3    65  LEU65       0.0001
     66  N        155.6380   98.7290   30.8240 N.3    68  LEU68      -0.1245
     67  CA       156.7040   98.4020   31.7660 C.3    68  LEU68       0.1561
     68  C        157.5430   99.6110   32.1660 C.2    68  LEU68       0.2260
     69  O        158.4180   99.4820   33.0310 O.2    68  LEU68      -0.2867
     70  CB       157.6090   97.3310   31.1840 C.3    68  LEU68       0.0270
     71  CG       156.8650   96.0160   30.9210 C.3    68  LEU68       0.0019
     72  CD1      157.5540   95.2540   29.8380 C.3    68  LEU68       0.0001
     73  CD2      156.7860   95.1990   32.1950 C.3    68  LEU68       0.0001
     74  N        159.5430  101.2400   30.0870 N.3    70  LEU70      -0.1245
     75  CA       160.7430  101.2450   29.2770 C.3    70  LEU70       0.1561
     76  C        160.5760  102.1890   28.0890 C.2    70  LEU70       0.2260
     77  O        159.4780  102.6220   27.7590 O.2    70  LEU70      -0.2867
     78  CB       161.0500   99.8130   28.8150 C.3    70  LEU70       0.0270
     79  CG       161.2420   98.8160   29.9710 C.3    70  LEU70       0.0019
     80  CD1      161.4740   97.3840   29.4830 C.3    70  LEU70       0.0001
     81  CD2      162.3880   99.2500   30.9020 C.3    70  LEU70       0.0001
     82  N        165.9440   93.6680   25.5150 N.3    82  VAL82      -0.1245
     83  CA       164.9180   92.6620   25.7860 C.3    82  VAL82       0.1561
     84  C        164.8920   91.6170   24.6760 C.2    82  VAL82       0.2260
     85  O        164.8100   90.4080   24.9370 O.2    82  VAL82      -0.2867
     86  CB       163.5470   93.3310   25.9730 C.3    82  VAL82       0.0252
     87  CG1      162.4290   92.2690   26.1000 C.3    82  VAL82       0.0019
     88  CG2      163.5440   94.2030   27.2130 C.3    82  VAL82       0.0019
     89  N        165.9020   87.4920   25.0960 N.3    86  HIS86      -0.1241
     90  CA       164.9360   86.4300   24.8330 C.3    86  HIS86       0.1621
     91  C        165.4130   85.4950   23.7430 C.2    86  HIS86       0.2264
     92  O        165.0530   84.3090   23.7520 O.2    86  HIS86      -0.2867
     93  CB       163.5730   87.0090   24.4640 C.3    86  HIS86       0.0745
     94  CG       162.8470   87.5200   25.6470 C.ar   86  HIS86       0.0817
     95  ND1      163.1020   88.7570   26.2020 N.ar   86  HIS86      -0.2268
     96  CD2      161.9500   86.9210   26.4510 C.ar   86  HIS86       0.1154
     97  CE1      162.3400   88.9150   27.2650 C.ar   86  HIS86       0.1986
     98  NE2      161.6350   87.8180   27.4360 N.ar   86  HIS86      -0.2212
     99  N        167.7560   83.1520   25.4600 N.3    89  ALA89      -0.1245
    100  CA       166.9310   82.1540   26.1440 C.3    89  ALA89       0.1562
    101  C        166.3790   81.1240   25.1640 C.2    89  ALA89       0.2260
    102  O        166.4030   79.9210   25.4370 O.2    89  ALA89      -0.2867
    103  CB       165.7930   82.8550   26.8850 C.3    89  ALA89       0.0290
    104  N        167.1490   77.1170   25.3000 N.3    93  LEU93      -0.1245
    105  CA       166.0380   76.1790   25.4470 C.3    93  LEU93       0.1561
    106  C        165.9770   75.2080   24.2800 C.2    93  LEU93       0.2260
    107  O        165.7730   74.0030   24.4790 O.2    93  LEU93      -0.2867
    108  CB       164.7210   76.9430   25.5510 C.3    93  LEU93       0.0270
    109  CG       164.5730   77.7600   26.8260 C.3    93  LEU93       0.0019
    110  CD1      163.5280   78.8250   26.6350 C.3    93  LEU93       0.0001
    111  CD2      164.2000   76.8350   27.9510 C.3    93  LEU93       0.0001
    112  N        155.8340   76.8600   41.3220 N.3   123  PHE123     -0.1241
    113  CA       156.4230   77.7100   40.2970 C.3   123  PHE123      0.1605
    114  C        155.5530   78.9460   40.0430 C.2   123  PHE123      0.2264
    115  O        156.0580   80.0740   39.9760 O.2   123  PHE123     -0.2867
    116  CB       156.6180   76.9260   39.0000 C.3   123  PHE123      0.0534
    117  CG       157.2750   77.7340   37.9090 C.ar  123  PHE123     -0.0203
    118  CD1      158.5880   78.1710   38.0440 C.ar  123  PHE123     -0.0042
    119  CD2      156.5910   78.0560   36.7590 C.ar  123  PHE123     -0.0042
    120  CE1      159.2000   78.9210   37.0470 C.ar  123  PHE123     -0.0003
    121  CE2      157.2070   78.8160   35.7510 C.ar  123  PHE123     -0.0003
    122  CZ       158.5050   79.2360   35.9040 C.ar  123  PHE123     -0.0000
    123  N        156.0260   81.3010   42.8150 N.3   126  LEU126     -0.1231
    124  CA       157.2550   82.0670   42.6760 C.3   126  LEU126      0.1693
    125  C        157.0490   83.2330   41.7220 C.2   126  LEU126      0.2591
    126  O        157.3300   84.3830   42.0690 O.2   126  LEU126     -0.2718
    127  CB       158.3900   81.1650   42.1960 C.3   126  LEU126      0.0284
    128  CG       159.7170   81.8600   41.9130 C.3   126  LEU126      0.0019
    129  CD1      160.3500   82.3050   43.2190 C.3   126  LEU126      0.0001
    130  CD2      160.6170   80.9340   41.1320 C.3   126  LEU126      0.0001
    131  N        156.5330   82.9560   40.5200 N.am  127  ILE127     -0.1980
    132  CA       156.3410   84.0160   39.5310 C.3   127  ILE127      0.1595
    133  C        155.4550   85.1220   40.0890 C.2   127  ILE127      0.2287
    134  O        155.7510   86.3120   39.9360 O.2   127  ILE127     -0.2864
    135  CB       155.7660   83.4530   38.2180 C.3   127  ILE127      0.0276
    136  CG1      156.8700   82.9290   37.3110 C.3   127  ILE127      0.0022
    137  CG2      155.1020   84.5440   37.4150 C.3   127  ILE127      0.0022
    138  CD1      157.7050   81.8610   37.8840 C.3   127  ILE127      0.0001
    139  N        157.4740   87.1700   42.8210 N.3   130  LEU130     -0.1231
    140  CA       158.5680   87.9620   42.2750 C.3   130  LEU130      0.1693
    141  C        158.0470   89.1280   41.4440 C.2   130  LEU130      0.2592
    142  O        158.6400   90.2160   41.4440 O.2   130  LEU130     -0.2718
    143  CB       159.4990   87.0770   41.4420 C.3   130  LEU130      0.0284
    144  CG       160.3170   85.9950   42.1490 C.3   130  LEU130      0.0019
    145  CD1      161.2610   85.3610   41.1470 C.3   130  LEU130      0.0001
    146  CD2      161.0880   86.5950   43.3490 C.3   130  LEU130      0.0001
    147  N        156.9360   88.9380   40.7350 N.am  131  TRP131     -0.1976
    148  CA       156.4420   90.0520   39.9290 C.3   131  TRP131      0.1640
    149  C        155.8450   91.1430   40.8080 C.2   131  TRP131      0.2290
    150  O        156.0400   92.3320   40.5380 O.2   131  TRP131     -0.2864
    151  CB       155.4210   89.5940   38.9030 C.3   131  TRP131      0.0576
    152  CG       154.9800   90.7780   38.0630 C.ar  131  TRP131      0.0006
    153  CD1      153.7500   91.3640   38.0290 C.ar  131  TRP131      0.0946
    154  CD2      155.8170   91.5490   37.1860 C.ar  131  TRP131      0.0152
    155  NE1      153.7700   92.4400   37.1620 N.ar  131  TRP131     -0.2442
    156  CE2      155.0280   92.5650   36.6370 C.ar  131  TRP131      0.0810
    157  CE3      157.1630   91.4670   36.8120 C.ar  131  TRP131      0.0012
    158  CZ2      155.5430   93.5010   35.7280 C.ar  131  TRP131      0.0191
    159  CZ3      157.6610   92.3810   35.9020 C.ar  131  TRP131      0.0001
    160  CH2      156.8660   93.3850   35.3860 C.ar  131  TRP131      0.0015
@<TRIPOS>BOND
     1    30    31    2
     2    30    29    1
     3    28    29    1
     4    29    32    1
     5    32    33    1
     6    42    44   ar
     7    42    41   ar
     8    44    46   ar
     9    24    23    2
    10    21    22    1
    11    23    22    1
    12    33    35    1
    13    33    34    1
    14    36    37    1
    15    40    41    1
    16    40    37    1
    17    41    43   ar
    18    22    25    1
    19    46    45   ar
    20    37    38    1
    21    19    18    2
    22     9    10    1
    23    18    17    1
    24    43    45   ar
    25    38    39    2
    26    12    11    2
    27    10    11    1
    28    10    13    1
    29    25    27    1
    30    25    26    1
    31    11    16   am
    32    91    92    2
    33    91    90    1
    34    16    17    1
    35    64    63    1
    36    17    20    1
    37   106   107    2
    38   106   105    1
    39    15    13    1
    40    93    90    1
    41    93    94    1
    42    13    14    1
    43    84    85    2
    44    84    83    1
    45     4     3    2
    46     3     2    1
    47    63    62    1
    48    63    65    1
    49    90    89    1
    50     1     2    1
    51   101   102    2
    52   101   100    1
    53   104   105    1
    54    47    48    1
    55   105   108    1
    56    99   100    1
    57    82    83    1
    58    62    59    1
    59   108   109    1
    60    94    95   ar
    61    94    96   ar
    62     2     5    1
    63    83    86    1
    64    86    87    1
    65    86    88    1
    66   100   103    1
    67    95    97   ar
    68    58    59    1
    69    58    49   am
    70    96    98   ar
    71    52    51    1
    72    52    53    1
    73    51    48    1
    74   110   109    1
    75    48    49    1
    76    59    60    1
    77   109   111    1
    78     5     6    1
    79    49    50    2
    80    97    98   ar
    81    60    61    2
    82    77    76    2
    83    53    54    1
    84     6     8    1
    85     6     7    1
    86    76    75    1
    87    54    55    2
    88    78    75    1
    89    78    79    1
    90    75    74    1
    91    55    56    1
    92    55    57    1
    93    80    79    1
    94    72    71    1
    95    79    81    1
    96    66    67    1
    97    71    70    1
    98    71    73    1
    99    70    67    1
   100    67    68    1
   101    68    69    2
   102   160   158   ar
   103   160   159   ar
   104   158   156   ar
   105   121   122   ar
   106   121   119   ar
   107   159   157   ar
   108   122   120   ar
   109   156   155   ar
   110   156   154   ar
   111   119   117   ar
   112   157   154   ar
   113   120   118   ar
   114   155   153   ar
   115   154   152   ar
   116   136   138    1
   117   136   135    1
   118   137   135    1
   119   117   118   ar
   120   117   116    1
   121   153   152   ar
   122   152   151    1
   123   135   132    1
   124   151   148    1
   125   116   113    1
   126   132   133    1
   127   132   131    1
   128   148   147    1
   129   148   149    1
   130   134   133    2
   131   115   114    2
   132   114   113    1
   133   113   112    1
   134   131   125   am
   135   150   149    2
   136   147   141   am
   137   130   128    1
   138   145   144    1
   139   143   144    1
   140   143   140    1
   141   142   141    2
   142   141   140    1
   143   125   126    2
   144   125   124    1
   145   128   127    1
   146   128   129    1
   147   144   146    1
   148   127   124    1
   149   140   139    1
   150   124   123    1
