@<TRIPOS>MOLECULE
tmp/5v8kA07.pdb
 220 216 0 0 0
SMALL
GASTEIGER

@<TRIPOS>ATOM
      1  N        138.5540   62.0920   40.6170 N.3   193  PHE193     -0.1241
      2  CA       139.8110   62.7350   40.2250 C.3   193  PHE193      0.1605
      3  C        140.9680   61.7620   40.0680 C.2   193  PHE193      0.2264
      4  O        141.9260   62.0880   39.3580 O.2   193  PHE193     -0.2867
      5  CB       140.2310   63.8180   41.2410 C.3   193  PHE193      0.0534
      6  CG       139.3820   65.0510   41.1880 C.ar  193  PHE193     -0.0203
      7  CD1      138.1740   65.1040   41.8690 C.ar  193  PHE193     -0.0042
      8  CD2      139.7690   66.1430   40.4430 C.ar  193  PHE193     -0.0042
      9  CE1      137.3770   66.2210   41.8050 C.ar  193  PHE193     -0.0003
     10  CE2      138.9750   67.2660   40.3800 C.ar  193  PHE193     -0.0003
     11  CZ       137.7760   67.3020   41.0630 C.ar  193  PHE193     -0.0000
     12  N        141.2110   59.1160   38.3660 N.3   195  PHE195     -0.1227
     13  CA       141.3820   58.6200   37.0070 C.3   195  PHE195      0.1736
     14  C        142.2840   59.5180   36.1750 C.2   195  PHE195      0.2595
     15  O        142.8720   59.0490   35.1980 O.2   195  PHE195     -0.2718
     16  CB       140.0250   58.4530   36.3190 C.3   195  PHE195      0.0547
     17  CG       139.4270   59.7450   35.7960 C.ar  195  PHE195     -0.0202
     18  CD1      138.6900   60.5830   36.6330 C.ar  195  PHE195     -0.0042
     19  CD2      139.5790   60.1080   34.4650 C.ar  195  PHE195     -0.0042
     20  CE1      138.1440   61.7600   36.1510 C.ar  195  PHE195     -0.0003
     21  CE2      139.0340   61.2830   33.9800 C.ar  195  PHE195     -0.0003
     22  CZ       138.3240   62.1100   34.8210 C.ar  195  PHE195     -0.0000
     23  N        142.4180   60.8010   36.5330 N.am  196  PHE196     -0.1976
     24  CA       143.2680   61.6890   35.7350 C.3   196  PHE196      0.1639
     25  C        144.7050   61.1770   35.6590 C.2   196  PHE196      0.2290
     26  O        145.3420   61.2800   34.6050 O.2   196  PHE196     -0.2864
     27  CB       143.2410   63.1200   36.2830 C.3   196  PHE196      0.0560
     28  CG       142.0090   63.8920   35.9030 C.ar  196  PHE196     -0.0200
     29  CD1      141.7610   64.2280   34.5760 C.ar  196  PHE196     -0.0042
     30  CD2      141.0940   64.2920   36.8750 C.ar  196  PHE196     -0.0042
     31  CE1      140.6270   64.9410   34.2290 C.ar  196  PHE196     -0.0003
     32  CE2      139.9520   65.0120   36.5260 C.ar  196  PHE196     -0.0003
     33  CZ       139.7180   65.3300   35.2080 C.ar  196  PHE196     -0.0000
     34  N        143.1890   62.9510   29.2170 N.3   202  ALA202     -0.1245
     35  CA       142.1540   63.5400   30.0600 C.3   202  ALA202      0.1562
     36  C        142.6510   64.8330   30.6860 C.2   202  ALA202      0.2260
     37  O        141.9440   65.8480   30.6680 O.2   202  ALA202     -0.2867
     38  CB       141.6890   62.5620   31.1370 C.3   202  ALA202      0.0290
     39  N        142.8640   67.5240   27.9970 N.3   205  SER205     -0.1202
     40  CA       141.5520   68.0430   27.6470 C.3   205  SER205      0.2020
     41  C        141.0990   69.0940   28.6440 C.2   205  SER205      0.2618
     42  O        140.6350   70.1740   28.2640 O.2   205  SER205     -0.2717
     43  CB       140.5420   66.8940   27.5850 C.3   205  SER205      0.2103
     44  OG       139.2130   67.4020   27.4600 O.3   205  SER205     -0.2182
     45  N        141.2080   68.7800   29.9300 N.am  206  VAL206     -0.1979
     46  CA       140.7500   69.6930   30.9610 C.3   206  VAL206      0.1595
     47  C        141.5540   70.9880   30.9330 C.2   206  VAL206      0.2287
     48  O        140.9920   72.0880   31.0760 O.2   206  VAL206     -0.2864
     49  CB       140.8130   68.9880   32.3220 C.3   206  VAL206      0.0276
     50  CG1      140.6130   69.9430   33.4510 C.3   206  VAL206      0.0022
     51  CG2      139.7480   67.9590   32.3660 C.3   206  VAL206      0.0022
     52  N        140.1690   73.0940   28.1090 N.3   209  GLN209     -0.1231
     53  CA       138.8280   73.6040   28.3560 C.3   209  GLN209      0.1698
     54  C        138.8480   74.7340   29.3780 C.2   209  GLN209      0.2592
     55  O        138.1930   75.7600   29.1930 O.2   209  GLN209     -0.2718
     56  CB       137.9210   72.4700   28.8280 C.3   209  GLN209      0.0381
     57  CG       137.7960   71.3090   27.8490 C.3   209  GLN209      0.0905
     58  CD       136.7960   70.3450   28.3130 C.2   209  GLN209      0.2608
     59  OE1      135.6720   70.7260   28.5300 O.2   209  GLN209     -0.2717
     60  NE2      137.1810   69.0810   28.5100 N.am  209  GLN209     -0.0878
     61  N        139.5780   74.5580   30.4770 N.am  210  ILE210     -0.1980
     62  CA       139.6570   75.6240   31.4620 C.3   210  ILE210      0.1595
     63  C        140.3870   76.8380   30.8790 C.2   210  ILE210      0.2287
     64  O        139.9960   77.9800   31.1120 O.2   210  ILE210     -0.2864
     65  CB       140.3350   75.1230   32.7440 C.3   210  ILE210      0.0276
     66  CG1      139.5030   74.0230   33.3910 C.3   210  ILE210      0.0022
     67  CG2      140.5770   76.2890   33.7200 C.3   210  ILE210      0.0022
     68  CD1      138.1810   74.4690   34.0190 C.3   210  ILE210      0.0001
     69  N        137.9480   78.9760   29.0760 N.3   213  PHE213     -0.1241
     70  CA       137.1670   79.8000   29.9800 C.3   213  PHE213      0.1605
     71  C        137.9720   80.9870   30.4980 C.2   213  PHE213      0.2264
     72  O        137.4260   82.0870   30.6470 O.2   213  PHE213     -0.2867
     73  CB       136.6470   78.9540   31.1310 C.3   213  PHE213      0.0534
     74  CG       135.8200   79.7240   32.0690 C.ar  213  PHE213     -0.0203
     75  CD1      134.4810   79.9790   31.8060 C.ar  213  PHE213     -0.0042
     76  CD2      136.3890   80.2530   33.1840 C.ar  213  PHE213     -0.0042
     77  CE1      133.7350   80.7330   32.6940 C.ar  213  PHE213     -0.0003
     78  CE2      135.6770   81.0170   34.0490 C.ar  213  PHE213     -0.0003
     79  CZ       134.3640   81.2740   33.8230 C.ar  213  PHE213     -0.0000
     80  N        138.5590   75.7810   23.3810 N.3   275  TRP275     -0.1241
     81  CA       137.3160   75.1790   23.8470 C.3   275  TRP275      0.1605
     82  C        136.9640   73.9730   22.9860 C.2   275  TRP275      0.2264
     83  O        136.7090   72.8800   23.4880 O.2   275  TRP275     -0.2867
     84  CB       136.2000   76.2330   23.7920 C.3   275  TRP275      0.0550
     85  CG       134.8310   75.8470   24.2700 C.ar  275  TRP275      0.0003
     86  CD1      134.5040   75.0450   25.3290 C.ar  275  TRP275      0.0946
     87  CD2      133.5920   76.2840   23.6970 C.ar  275  TRP275      0.0152
     88  NE1      133.1210   74.9530   25.4440 N.ar  275  TRP275     -0.2442
     89  CE2      132.5470   75.7180   24.4530 C.ar  275  TRP275      0.0810
     90  CE3      133.2690   77.1010   22.6110 C.ar  275  TRP275      0.0012
     91  CZ2      131.1980   75.9470   24.1450 C.ar  275  TRP275      0.0191
     92  CZ3      131.9530   77.3160   22.3040 C.ar  275  TRP275      0.0001
     93  CH2      130.9240   76.7440   23.0720 C.ar  275  TRP275      0.0015
     94  N        137.5020   70.0090   23.9600 N.3   279  VAL279     -0.1245
     95  CA       136.3830   69.0710   23.9740 C.3   279  VAL279      0.1561
     96  C        136.6590   67.9010   23.0340 C.2   279  VAL279      0.2260
     97  O        136.3220   66.7510   23.3420 O.2   279  VAL279     -0.2867
     98  CB       135.0740   69.8110   23.6300 C.3   279  VAL279      0.0252
     99  CG1      133.9060   68.8360   23.4160 C.3   279  VAL279      0.0019
    100  CG2      134.7430   70.7700   24.7730 C.3   279  VAL279      0.0019
    101  N        138.7940   65.4920   25.0140 N.3   282  GLY282     -0.1210
    102  CA       138.0730   64.7720   26.0400 C.3   282  GLY282      0.1956
    103  C        137.2020   63.6960   25.4230 C.2   282  GLY282      0.2611
    104  O        137.1760   62.5570   25.8840 O.2   282  GLY282     -0.2717
    105  N        136.5110   64.0500   24.3400 N.am  283  ALA283     -0.1979
    106  CA       135.6890   63.0990   23.6030 C.3   283  ALA283      0.1597
    107  C        136.5330   61.9620   23.0470 C.2   283  ALA283      0.2287
    108  O        136.1110   60.8010   23.0530 O.2   283  ALA283     -0.2864
    109  CB       134.9530   63.8290   22.4610 C.3   283  ALA283      0.0319
    110  N        139.3470   60.8690   24.2950 N.3   285  PHE285     -0.1227
    111  CA       139.6650   60.0350   25.4510 C.3   285  PHE285      0.1736
    112  C        138.4910   59.1210   25.8010 C.2   285  PHE285      0.2595
    113  O        138.6680   57.9090   26.0080 O.2   285  PHE285     -0.2718
    114  CB       140.0690   60.9280   26.6340 C.3   285  PHE285      0.0547
    115  CG       139.8970   60.2710   27.9950 C.ar  285  PHE285     -0.0202
    116  CD1      140.8240   59.3580   28.4840 C.ar  285  PHE285     -0.0042
    117  CD2      138.8130   60.6060   28.7920 C.ar  285  PHE285     -0.0042
    118  CE1      140.6320   58.7620   29.7560 C.ar  285  PHE285     -0.0003
    119  CE2      138.6280   60.0360   30.0420 C.ar  285  PHE285     -0.0003
    120  CZ       139.5270   59.1100   30.5230 C.ar  285  PHE285     -0.0000
    121  N        137.2740   59.6740   25.8400 N.am  286  MET286     -0.1979
    122  CA       136.1150   58.8400   26.1490 C.3   286  MET286      0.1605
    123  C        135.9460   57.7370   25.1240 C.2   286  MET286      0.2287
    124  O        135.6210   56.5980   25.4700 O.2   286  MET286     -0.2864
    125  CB       134.8450   59.6840   26.2060 C.3   286  MET286      0.0413
    126  CG       134.8370   60.6510   27.3410 C.3   286  MET286      0.0598
    127  SD       133.7300   61.9890   26.9210 S.3   286  MET286     -0.1393
    128  CE       133.0270   62.2750   28.4870 C.3   286  MET286      0.0692
    129  N        128.8870   58.3510   31.6550 N.3   304  PHE304     -0.1241
    130  CA       128.9770   58.5760   30.2120 C.3   304  PHE304      0.1605
    131  C        129.1030   57.2720   29.4430 C.2   304  PHE304      0.2264
    132  O        128.7330   57.2160   28.2670 O.2   304  PHE304     -0.2867
    133  CB       130.1520   59.4920   29.8490 C.3   304  PHE304      0.0534
    134  CG       131.5070   58.8400   29.9750 C.ar  304  PHE304     -0.0203
    135  CD1      132.0380   58.0820   28.9350 C.ar  304  PHE304     -0.0042
    136  CD2      132.2560   58.9960   31.1350 C.ar  304  PHE304     -0.0042
    137  CE1      133.2960   57.4800   29.0520 C.ar  304  PHE304     -0.0003
    138  CE2      133.5170   58.3930   31.2660 C.ar  304  PHE304     -0.0003
    139  CZ       134.0360   57.6330   30.2190 C.ar  304  PHE304     -0.0000
    140  N        125.5140   56.7410   28.8330 N.3   307  ARG307     -0.1245
    141  CA       124.8950   57.7390   27.9720 C.3   307  ARG307      0.1563
    142  C        125.3420   57.5820   26.5270 C.2   307  ARG307      0.2260
    143  O        124.5640   57.8510   25.6030 O.2   307  ARG307     -0.2867
    144  CB       125.2300   59.1450   28.4840 C.3   307  ARG307      0.0307
    145  CG       124.4920   59.5160   29.7290 C.3   307  ARG307      0.0489
    146  CD       125.1210   60.6950   30.4320 C.3   307  ARG307      0.2205
    147  NE       124.2550   61.1690   31.5010 N.pl3 307  ARG307     -0.0865
    148  CZ       124.5960   62.0800   32.4000 C.cat 307  ARG307      0.5346
    149  NH1      125.8050   62.6270   32.3710 N.pl3 307  ARG307      0.1354
    150  NH2      123.7250   62.4370   33.3350 N.pl3 307  ARG307      0.1354
    151  N        118.5940   59.1730   25.8950 N.3   313  PHE313     -0.1241
    152  CA       119.3860   60.2640   26.4440 C.3   313  PHE313      0.1605
    153  C        119.9770   61.1310   25.3330 C.2   313  PHE313      0.2264
    154  O        119.9150   62.3550   25.4020 O.2   313  PHE313     -0.2867
    155  CB       120.5100   59.7410   27.3470 C.3   313  PHE313      0.0534
    156  CG       121.4770   60.8110   27.7290 C.ar  313  PHE313     -0.0203
    157  CD1      122.5480   61.1030   26.8960 C.ar  313  PHE313     -0.0042
    158  CD2      121.2940   61.5670   28.8740 C.ar  313  PHE313     -0.0042
    159  CE1      123.4450   62.1270   27.2000 C.ar  313  PHE313     -0.0003
    160  CE2      122.1850   62.5960   29.1970 C.ar  313  PHE313     -0.0003
    161  CZ       123.2680   62.8670   28.3560 C.ar  313  PHE313     -0.0000
    162  N        118.9830   65.0570   25.1360 N.3   317  PHE317     -0.1241
    163  CA       120.0600   65.9860   25.4150 C.3   317  PHE317      0.1605
    164  C        120.3910   66.8320   24.1940 C.2   317  PHE317      0.2264
    165  O        120.4920   68.0600   24.2890 O.2   317  PHE317     -0.2867
    166  CB       121.2890   65.2300   25.8950 C.3   317  PHE317      0.0534
    167  CG       122.3740   66.1250   26.3350 C.ar  317  PHE317     -0.0203
    168  CD1      122.4260   66.5940   27.6280 C.ar  317  PHE317     -0.0042
    169  CD2      123.3340   66.5340   25.4420 C.ar  317  PHE317     -0.0042
    170  CE1      123.4520   67.4560   28.0200 C.ar  317  PHE317     -0.0003
    171  CE2      124.3370   67.3970   25.8280 C.ar  317  PHE317     -0.0003
    172  CZ       124.3880   67.8510   27.1160 C.ar  317  PHE317     -0.0000
    173  N        127.6820   74.3020   20.0790 N.3   393  MET393     -0.1245
    174  CA       127.6630   73.1420   20.9660 C.3   393  MET393      0.1570
    175  C        126.9760   71.9150   20.3440 C.2   393  MET393      0.2261
    176  O        127.1510   70.8000   20.8700 O.2   393  MET393     -0.2867
    177  CB       126.9480   73.4710   22.2850 C.3   393  MET393      0.0387
    178  CG       127.7470   74.2860   23.3040 C.3   393  MET393      0.0595
    179  SD       127.0120   74.1740   24.9600 S.3   393  MET393     -0.1393
    180  CE       125.5210   75.1280   24.7070 C.3   393  MET393      0.0692
    181  N        129.6140   69.8270   19.1240 N.3   396  MET396     -0.1230
    182  CA       130.4600   69.5070   20.2760 C.3   396  MET396      0.1702
    183  C        129.8690   68.3730   21.1100 C.2   396  MET396      0.2592
    184  O        130.5860   67.4530   21.5280 O.2   396  MET396     -0.2718
    185  CB       130.6800   70.7460   21.1430 C.3   396  MET396      0.0401
    186  CG       131.4040   71.8570   20.4180 C.3   396  MET396      0.0596
    187  SD       131.6320   73.3590   21.4020 S.3   396  MET396     -0.1393
    188  CE       132.8050   72.7010   22.5360 C.3   396  MET396      0.0692
    189  N        128.5660   68.4310   21.3870 N.am  397  TRP397     -0.1976
    190  CA       127.9840   67.3660   22.1870 C.3   397  TRP397      0.1640
    191  C        127.8100   66.0800   21.3840 C.2   397  TRP397      0.2290
    192  O        127.7990   64.9950   21.9730 O.2   397  TRP397     -0.2864
    193  CB       126.6700   67.8040   22.8220 C.3   397  TRP397      0.0576
    194  CG       126.9050   68.7730   23.9480 C.ar  397  TRP397      0.0006
    195  CD1      126.6130   70.1080   23.9500 C.ar  397  TRP397      0.0946
    196  CD2      127.4870   68.4920   25.2330 C.ar  397  TRP397      0.0152
    197  NE1      126.9520   70.6660   25.1450 N.ar  397  TRP397     -0.2442
    198  CE2      127.4840   69.7010   25.9620 C.ar  397  TRP397      0.0810
    199  CE3      127.9980   67.3420   25.8430 C.ar  397  TRP397      0.0012
    200  CZ2      128.0140   69.8060   27.2570 C.ar  397  TRP397      0.0191
    201  CZ3      128.4970   67.4420   27.1580 C.ar  397  TRP397      0.0001
    202  CH2      128.5040   68.6740   27.8380 C.ar  397  TRP397      0.0015
    203  N        131.0440   64.1980   21.8670 N.3   400  VAL400     -0.1231
    204  CA       131.0830   63.5740   23.1840 C.3   400  VAL400      0.1692
    205  C        130.2320   62.3090   23.2300 C.2   400  VAL400      0.2592
    206  O        130.6590   61.2900   23.7790 O.2   400  VAL400     -0.2718
    207  CB       130.6350   64.5850   24.2490 C.3   400  VAL400      0.0266
    208  CG1      130.5330   63.9110   25.6150 C.3   400  VAL400      0.0020
    209  CG2      131.5980   65.7640   24.2870 C.3   400  VAL400      0.0020
    210  N        129.0040   62.3510   22.6810 N.am  401  PHE401     -0.1976
    211  CA       128.0080   61.3090   22.9470 C.3   401  PHE401      0.1639
    212  C        127.5430   60.5000   21.7320 C.2   401  PHE401      0.2290
    213  O        126.9140   59.4440   21.9250 O.2   401  PHE401     -0.2864
    214  CB       126.7670   61.9240   23.6150 C.3   401  PHE401      0.0560
    215  CG       126.9830   62.3480   25.0380 C.ar  401  PHE401     -0.0200
    216  CD1      127.4920   61.4610   25.9800 C.ar  401  PHE401     -0.0042
    217  CD2      126.6740   63.6300   25.4360 C.ar  401  PHE401     -0.0042
    218  CE1      127.6880   61.8440   27.3140 C.ar  401  PHE401     -0.0003
    219  CE2      126.8700   64.0390   26.7570 C.ar  401  PHE401     -0.0003
    220  CZ       127.3920   63.1500   27.7000 C.ar  401  PHE401     -0.0000
@<TRIPOS>BOND
     1   181   182    1
     2   173   174    1
     3   182   183    1
     4   182   185    1
     5   175   176    2
     6   175   174    1
     7   186   185    1
     8   186   187    1
     9   174   177    1
    10   183   189   am
    11   183   184    2
    12   191   192    2
    13   191   190    1
    14   189   190    1
    15   187   188    1
    16   212   213    2
    17   212   211    1
    18   203   204    1
    19   190   193    1
    20   177   178    1
    21    92    90   ar
    22    92    93   ar
    23   109   106    1
    24    90    87   ar
    25   210   211    1
    26   210   205   am
    27   193   194    1
    28   211   214    1
    29    82    83    2
    30    82    81    1
    31    96    97    2
    32    96    95    1
    33   107   108    2
    34   107   106    1
    35    93    91   ar
    36   204   205    1
    37   204   207    1
    38   205   206    2
    39   178   179    1
    40    80    81    1
    41    99    98    1
    42   106   105    1
    43   214   215    1
    44    98    95    1
    45    98   100    1
    46    87    85   ar
    47    87    89   ar
    48    84    81    1
    49    84    85    1
    50   194   195   ar
    51   194   196   ar
    52   195   197   ar
    53    94    95    1
    54    91    89   ar
    55   164   165    2
    56   164   163    1
    57   207   209    1
    58   207   208    1
    59    85    86   ar
    60   110   111    1
    61   105   103   am
    62    89    88   ar
    63   180   179    1
    64   101   102    1
    65   215   217   ar
    66   215   216   ar
    67   123   124    2
    68   123   122    1
    69   162   163    1
    70   197   198   ar
    71   196   199   ar
    72   196   198   ar
    73    86    88   ar
    74   153   154    2
    75   153   152    1
    76   163   166    1
    77   103   104    2
    78   103   102    1
    79   217   219   ar
    80   169   171   ar
    81   169   167   ar
    82   111   112    1
    83   111   114    1
    84   143   142    2
    85   112   121   am
    86   112   113    2
    87   171   172   ar
    88   121   122    1
    89   199   201   ar
    90   151   152    1
    91   166   167    1
    92   198   200   ar
    93   216   218   ar
    94   122   125    1
    95   125   126    1
    96   167   168   ar
    97   152   155    1
    98   142   141    1
    99   114   115    1
   100   219   220   ar
   101   157   159   ar
   102   157   156   ar
   103   127   126    1
   104   127   128    1
   105   172   170   ar
   106   201   202   ar
   107   159   161   ar
   108   200   202   ar
   109   218   220   ar
   110   155   156    1
   111    44    43    1
   112    43    40    1
   113   168   170   ar
   114    40    39    1
   115    40    41    1
   116   156   158   ar
   117    57    58    1
   118    57    56    1
   119   141   144    1
   120   141   140    1
   121   115   116   ar
   122   115   117   ar
   123    52    53    1
   124    42    41    2
   125   132   131    2
   126    58    60   am
   127    58    59    2
   128    53    56    1
   129    53    54    1
   130   161   160   ar
   131   116   118   ar
   132   144   145    1
   133    41    45   am
   134   117   119   ar
   135   158   160   ar
   136   135   137   ar
   137   135   134   ar
   138   137   139   ar
   139    69    70    1
   140    55    54    2
   141    34    35    1
   142    54    61   am
   143   131   130    1
   144   145   146    1
   145   118   120   ar
   146   133   134    1
   147   133   130    1
   148    45    46    1
   149   134   136   ar
   150    70    71    1
   151    70    73    1
   152   119   120   ar
   153    35    36    1
   154    35    38    1
   155   130   129    1
   156   139   138   ar
   157   146   147    1
   158    61    62    1
   159    71    72    2
   160    37    36    2
   161    63    64    2
   162    63    62    1
   163    47    46    1
   164    47    48    2
   165    46    49    1
   166    73    74    1
   167   136   138   ar
   168    62    65    1
   169   147   148    2
   170    75    74   ar
   171    75    77   ar
   172    74    76   ar
   173    49    51    1
   174    49    50    1
   175   149   148    1
   176   148   150    1
   177    77    79   ar
   178    65    66    1
   179    65    67    1
   180    76    78   ar
   181    66    68    1
   182    79    78   ar
   183    21    19   ar
   184    21    22   ar
   185    31    29   ar
   186    31    33   ar
   187    19    17   ar
   188    29    28   ar
   189    26    25    2
   190    22    20   ar
   191    15    14    2
   192    33    32   ar
   193    25    24    1
   194    24    27    1
   195    24    23    1
   196    17    16    1
   197    17    18   ar
   198    28    27    1
   199    28    30   ar
   200    20    18   ar
   201    14    23   am
   202    14    13    1
   203    16    13    1
   204    32    30   ar
   205    13    12    1
   206     4     3    2
   207     3     2    1
   208     2     1    1
   209     2     5    1
   210    10     8   ar
   211    10    11   ar
   212     8     6   ar
   213    11     9   ar
   214     6     5    1
   215     6     7   ar
   216     9     7   ar
