@<TRIPOS>MOLECULE
tmp/5v8kA04.pdb
 216 210 0 0 0
SMALL
GASTEIGER

@<TRIPOS>ATOM
      1  N        153.3740   96.7300   25.4460 N.3    64  ARG64      -0.1245
      2  CA       153.8450   96.1620   26.7040 C.3    64  ARG64       0.1563
      3  C        155.1070   96.8600   27.1970 C.2    64  ARG64       0.2260
      4  O        155.2320   97.1550   28.3960 O.2    64  ARG64      -0.2867
      5  CB       154.0710   94.6610   26.5600 C.3    64  ARG64       0.0307
      6  CG       152.7270   93.8630   26.4730 C.3    64  ARG64       0.0489
      7  CD       152.2600   93.4400   27.8800 C.3    64  ARG64       0.2205
      8  NE       152.8730   92.1750   28.2120 N.pl3  64  ARG64      -0.0865
      9  CZ       153.4890   91.8510   29.3440 C.cat  64  ARG64       0.5346
     10  NH1      153.9560   90.6210   29.4590 N.pl3  64  ARG64       0.1354
     11  NH2      153.6750   92.7130   30.3360 N.pl3  64  ARG64       0.1354
     12  N        154.0660   99.9420   28.8970 N.3    67  GLN67      -0.1231
     13  CA       153.4760   99.7100   30.2090 C.3    67  GLN67       0.1698
     14  C        154.5390   99.3510   31.2430 C.2    67  GLN67       0.2592
     15  O        154.3670   99.6280   32.4300 O.2    67  GLN67      -0.2718
     16  CB       152.4280   98.5980   30.1090 C.3    67  GLN67       0.0381
     17  CG       151.6640   98.3170   31.4190 C.3    67  GLN67       0.0905
     18  CD       150.8290   97.0460   31.3460 C.2    67  GLN67       0.2608
     19  OE1      151.1730   96.0890   30.6480 O.2    67  GLN67      -0.2717
     20  NE2      149.7180   97.0400   32.0640 N.am   67  GLN67      -0.0878
     21  N        155.6380   98.7290   30.8240 N.am   68  LEU68      -0.1980
     22  CA       156.7040   98.4020   31.7660 C.3    68  LEU68       0.1596
     23  C        157.5430   99.6110   32.1660 C.2    68  LEU68       0.2287
     24  O        158.4180   99.4820   33.0310 O.2    68  LEU68      -0.2864
     25  CB       157.6090   97.3310   31.1840 C.3    68  LEU68       0.0297
     26  CG       156.8650   96.0160   30.9210 C.3    68  LEU68       0.0022
     27  CD1      157.5540   95.2540   29.8380 C.3    68  LEU68       0.0001
     28  CD2      156.7860   95.1990   32.1950 C.3    68  LEU68       0.0001
     29  N        154.2350   78.7550   39.8840 N.3   124  PHE124     -0.1241
     30  CA       153.3510   79.9110   39.7480 C.3   124  PHE124      0.1605
     31  C        153.4220   80.8050   40.9810 C.2   124  PHE124      0.2264
     32  O        153.3540   82.0300   40.8690 O.2   124  PHE124     -0.2867
     33  CB       151.9060   79.4700   39.5110 C.3   124  PHE124      0.0534
     34  CG       151.5900   79.1410   38.0860 C.ar  124  PHE124     -0.0203
     35  CD1      152.3400   78.2030   37.3890 C.ar  124  PHE124     -0.0042
     36  CD2      150.5200   79.7380   37.4470 C.ar  124  PHE124     -0.0042
     37  CE1      152.0320   77.8740   36.0710 C.ar  124  PHE124     -0.0003
     38  CE2      150.2080   79.4030   36.1240 C.ar  124  PHE124     -0.0003
     39  CZ       150.9800   78.4710   35.4420 C.ar  124  PHE124     -0.0000
     40  N        156.5330   82.9560   40.5200 N.3   127  ILE127     -0.1231
     41  CA       156.3410   84.0160   39.5310 C.3   127  ILE127      0.1692
     42  C        155.4550   85.1220   40.0890 C.2   127  ILE127      0.2591
     43  O        155.7510   86.3120   39.9360 O.2   127  ILE127     -0.2718
     44  CB       155.7660   83.4530   38.2180 C.3   127  ILE127      0.0266
     45  CG1      156.8700   82.9290   37.3110 C.3   127  ILE127      0.0019
     46  CG2      155.1020   84.5440   37.4150 C.3   127  ILE127      0.0020
     47  CD1      157.7050   81.8610   37.8840 C.3   127  ILE127      0.0001
     48  N        154.3370   84.7580   40.7210 N.am  128  ALA128     -0.1980
     49  CA       153.4340   85.8010   41.1980 C.3   128  ALA128      0.1597
     50  C        154.1140   86.6810   42.2400 C.2   128  ALA128      0.2287
     51  O        153.9640   87.9090   42.2140 O.2   128  ALA128     -0.2864
     52  CB       152.1630   85.1910   41.7690 C.3   128  ALA128      0.0319
     53  N        156.9360   88.9380   40.7350 N.3   131  TRP131     -0.1241
     54  CA       156.4420   90.0520   39.9290 C.3   131  TRP131      0.1605
     55  C        155.8450   91.1430   40.8080 C.2   131  TRP131      0.2264
     56  O        156.0400   92.3320   40.5380 O.2   131  TRP131     -0.2867
     57  CB       155.4210   89.5940   38.9030 C.3   131  TRP131      0.0550
     58  CG       154.9800   90.7780   38.0630 C.ar  131  TRP131      0.0003
     59  CD1      153.7500   91.3640   38.0290 C.ar  131  TRP131      0.0946
     60  CD2      155.8170   91.5490   37.1860 C.ar  131  TRP131      0.0152
     61  NE1      153.7700   92.4400   37.1620 N.ar  131  TRP131     -0.2442
     62  CE2      155.0280   92.5650   36.6370 C.ar  131  TRP131      0.0810
     63  CE3      157.1630   91.4670   36.8120 C.ar  131  TRP131      0.0012
     64  CZ2      155.5430   93.5010   35.7280 C.ar  131  TRP131      0.0191
     65  CZ3      157.6610   92.3810   35.9020 C.ar  131  TRP131      0.0001
     66  CH2      156.8660   93.3850   35.3860 C.ar  131  TRP131      0.0015
     67  N        157.2610   94.9760   40.7270 N.3   135  MET135     -0.1245
     68  CA       156.3780   96.1360   40.7290 C.3   135  MET135      0.1570
     69  C        156.6740   97.0200   41.9310 C.2   135  MET135      0.2261
     70  O        156.8340   98.2410   41.8040 O.2   135  MET135     -0.2867
     71  CB       154.9170   95.6810   40.7720 C.3   135  MET135      0.0387
     72  CG       154.3710   94.9800   39.5070 C.3   135  MET135      0.0595
     73  SD       152.6450   94.4030   39.7180 S.3   135  MET135     -0.1393
     74  CE       151.8530   96.0010   39.9010 C.3   135  MET135      0.0692
     75  N        156.5280  100.0090   37.4850 N.3   140  ILE140     -0.1245
     76  CA       156.0460   99.9850   36.1280 C.3   140  ILE140      0.1561
     77  C        155.7550  101.4250   35.7350 C.2   140  ILE140      0.2260
     78  O        155.9360  102.3430   36.5280 O.2   140  ILE140     -0.2867
     79  CB       154.7860   99.1070   35.9670 C.3   140  ILE140      0.0252
     80  CG1      153.6260   99.6380   36.8270 C.3   140  ILE140      0.0019
     81  CG2      155.0650   97.6530   36.3470 C.3   140  ILE140      0.0019
     82  CD1      152.2880   98.9910   36.4640 C.3   140  ILE140      0.0001
     83  N        147.7060   96.4850   43.8090 N.3   165  MET165     -0.1245
     84  CA       147.8330   95.5530   42.6990 C.3   165  MET165      0.1570
     85  C        149.0950   94.7180   42.8510 C.2   165  MET165      0.2261
     86  O        149.1100   93.5360   42.4960 O.2   165  MET165     -0.2867
     87  CB       147.8350   96.3090   41.3750 C.3   165  MET165      0.0387
     88  CG       147.9190   95.4390   40.1830 C.3   165  MET165      0.0595
     89  SD       146.5170   94.3080   40.0570 S.3   165  MET165     -0.1393
     90  CE       145.2670   95.4540   39.4290 C.3   165  MET165      0.0692
     91  N        148.1330   92.2410   45.3930 N.3   168  ASN168     -0.1225
     92  CA       147.3380   91.1770   44.7800 C.3   168  ASN168      0.1785
     93  C        148.2320   90.0610   44.2560 C.2   168  ASN168      0.2597
     94  O        147.9120   88.8780   44.4050 O.2   168  ASN168     -0.2718
     95  CB       146.4790   91.7400   43.6560 C.3   168  ASN168      0.1169
     96  CG       145.8340   90.6590   42.8230 C.2   168  ASN168      0.2627
     97  OD1      144.8790   90.0170   43.2540 O.2   168  ASN168     -0.2716
     98  ND2      146.3590   90.4340   41.6220 N.am  168  ASN168     -0.0877
     99  N        149.3780   90.4150   43.6680 N.am  169  HIS169     -0.1975
    100  CA       150.2730   89.3890   43.1380 C.3   169  HIS169      0.1656
    101  C        150.9270   88.5960   44.2560 C.2   169  HIS169      0.2291
    102  O        150.9410   87.3580   44.2260 O.2   169  HIS169     -0.2864
    103  CB       151.3230   90.0240   42.2450 C.3   169  HIS169      0.0771
    104  CG       150.7630   90.5230   40.9590 C.ar  169  HIS169      0.0820
    105  ND1      150.0190   91.6800   40.8760 N.ar  169  HIS169     -0.2267
    106  CD2      150.7740   89.9930   39.7180 C.ar  169  HIS169      0.1154
    107  CE1      149.6390   91.8640   39.6280 C.ar  169  HIS169      0.1986
    108  NE2      150.0770   90.8510   38.9090 N.ar  169  HIS169     -0.2212
    109  N        148.5200   86.1700   45.6930 N.3   172  PHE172     -0.1241
    110  CA       148.4150   84.9780   44.8660 C.3   172  PHE172      0.1605
    111  C        149.6190   84.0750   45.0640 C.2   172  PHE172      0.2264
    112  O        149.4870   82.8520   45.0370 O.2   172  PHE172     -0.2867
    113  CB       148.2530   85.3550   43.3820 C.3   172  PHE172      0.0534
    114  CG       146.8190   85.3850   42.9190 C.ar  172  PHE172     -0.0203
    115  CD1      146.1560   84.2080   42.5670 C.ar  172  PHE172     -0.0042
    116  CD2      146.1310   86.5890   42.8370 C.ar  172  PHE172     -0.0042
    117  CE1      144.8480   84.2300   42.1580 C.ar  172  PHE172     -0.0003
    118  CE2      144.8280   86.6240   42.4210 C.ar  172  PHE172     -0.0003
    119  CZ       144.1710   85.4350   42.0790 C.ar  172  PHE172     -0.0000
    120  N        148.9080   80.1660   46.3260 N.3   176  PHE176     -0.1241
    121  CA       149.4180   78.9950   45.6150 C.3   176  PHE176      0.1605
    122  C        150.5490   78.3020   46.3680 C.2   176  PHE176      0.2264
    123  O        150.7960   77.1110   46.1450 O.2   176  PHE176     -0.2867
    124  CB       149.9010   79.3840   44.2260 C.3   176  PHE176      0.0534
    125  CG       148.8120   79.4340   43.2020 C.ar  176  PHE176     -0.0203
    126  CD1      148.1910   78.2680   42.7730 C.ar  176  PHE176     -0.0042
    127  CD2      148.3990   80.6380   42.6730 C.ar  176  PHE176     -0.0042
    128  CE1      147.1680   78.3050   41.8210 C.ar  176  PHE176     -0.0003
    129  CE2      147.3740   80.6880   41.7040 C.ar  176  PHE176     -0.0003
    130  CZ       146.7740   79.5290   41.2810 C.ar  176  PHE176     -0.0000
    131  N        139.2660   80.7890   30.7740 N.3   214  HIS214     -0.1241
    132  CA       140.1500   81.9070   31.1080 C.3   214  HIS214      0.1621
    133  C        140.1820   82.9230   29.9710 C.2   214  HIS214      0.2264
    134  O        140.0740   84.1280   30.1950 O.2   214  HIS214     -0.2867
    135  CB       141.5560   81.3790   31.3990 C.3   214  HIS214      0.0745
    136  CG       141.7360   80.7830   32.7630 C.ar  214  HIS214      0.0817
    137  ND1      141.0440   81.2180   33.8730 N.ar  214  HIS214     -0.2268
    138  CD2      142.5510   79.7880   33.1970 C.ar  214  HIS214      0.1154
    139  CE1      141.4260   80.5200   34.9320 C.ar  214  HIS214      0.1986
    140  NE2      142.3470   79.6520   34.5510 N.ar  214  HIS214     -0.2212
    141  N        137.1730   85.0520   30.1490 N.3   217  THR217     -0.1203
    142  CA       137.2330   86.0610   31.2010 C.3   217  THR217      0.1994
    143  C        138.2050   87.1750   30.8180 C.2   217  THR217      0.2617
    144  O        138.0050   88.3330   31.2030 O.2   217  THR217     -0.2717
    145  CB       137.6080   85.4480   32.5610 C.3   217  THR217      0.1784
    146  OG1      138.9250   84.8850   32.5540 O.3   217  THR217     -0.2211
    147  CG2      136.6270   84.3980   32.9430 C.3   217  THR217      0.0376
    148  N        139.2310   86.8580   30.0300 N.am  218  VAL218     -0.1979
    149  CA       140.1810   87.8790   29.6210 C.3   218  VAL218      0.1595
    150  C        139.5550   88.8200   28.5950 C.2   218  VAL218      0.2287
    151  O        139.7900   90.0340   28.6290 O.2   218  VAL218     -0.2864
    152  CB       141.4740   87.2320   29.0940 C.3   218  VAL218      0.0276
    153  CG1      142.3700   88.2960   28.4120 C.3   218  VAL218      0.0022
    154  CG2      142.2300   86.5820   30.2460 C.3   218  VAL218      0.0022
    155  N        137.4910   91.1240   30.5760 N.3   221  ALA221     -0.1245
    156  CA       138.3100   92.0140   31.3910 C.3   221  ALA221      0.1562
    157  C        138.9910   93.0890   30.5350 C.2   221  ALA221      0.2260
    158  O        139.1660   94.2280   30.9730 O.2   221  ALA221     -0.2867
    159  CB       139.3490   91.2080   32.1630 C.3   221  ALA221      0.0290
    160  N        138.1680   96.3610   32.3290 N.3   225  TRP225     -0.1241
    161  CA       139.2710   96.8400   33.1750 C.3   225  TRP225      0.1605
    162  C        140.2220   97.6070   32.2640 C.2   225  TRP225      0.2264
    163  O        141.1650   97.0520   31.6940 O.2   225  TRP225     -0.2867
    164  CB       139.9430   95.6800   33.9070 C.3   225  TRP225      0.0550
    165  CG       141.1270   96.0490   34.7820 C.ar  225  TRP225      0.0003
    166  CD1      142.3500   95.4420   34.7930 C.ar  225  TRP225      0.0946
    167  CD2      141.1890   97.0900   35.7720 C.ar  225  TRP225      0.0152
    168  NE1      143.1610   96.0240   35.7380 N.ar  225  TRP225     -0.2442
    169  CE2      142.4720   97.0340   36.3540 C.ar  225  TRP225      0.0810
    170  CE3      140.2770   98.0340   36.2410 C.ar  225  TRP225      0.0012
    171  CZ2      142.8820   97.9160   37.3510 C.ar  225  TRP225      0.0191
    172  CZ3      140.6710   98.8980   37.2440 C.ar  225  TRP225      0.0001
    173  CH2      141.9750   98.8480   37.7790 C.ar  225  TRP225      0.0015
    174  N        147.3540  102.1290   33.4590 N.3   229  GLN229     -0.1231
    175  CA       148.6030  101.4740   33.8010 C.3   229  GLN229      0.1698
    176  C        148.4330  100.1190   34.4460 C.2   229  GLN229      0.2592
    177  O        149.2590   99.2330   34.2000 O.2   229  GLN229     -0.2718
    178  CB       149.4350  102.3540   34.7560 C.3   229  GLN229      0.0381
    179  CG       149.8810  103.6740   34.1580 C.3   229  GLN229      0.0905
    180  CD       148.9450  104.8330   34.4860 C.2   229  GLN229      0.2608
    181  OE1      148.3130  104.8780   35.5470 O.2   229  GLN229     -0.2717
    182  NE2      148.8620  105.7850   33.5660 N.am  229  GLN229     -0.0878
    183  N        147.3830   99.9320   35.2480 N.am  230  LEU230     -0.1966
    184  CA       147.1300   98.7090   35.9870 C.3   230  LEU230      0.1728
    185  C        146.1250   97.8040   35.2910 C.2   230  LEU230      0.2617
    186  O        145.7770   96.7440   35.8300 O.2   230  LEU230     -0.2715
    187  CB       146.6330   99.0520   37.4040 C.3   230  LEU230      0.0311
    188  CG       147.5160  100.0150   38.2220 C.3   230  LEU230      0.0022
    189  CD1      146.8970  100.2940   39.5700 C.3   230  LEU230      0.0001
    190  CD2      148.9160   99.4180   38.4080 C.3   230  LEU230      0.0001
    191  N        145.6570   98.1960   34.1130 N.am  231  GLY231     -0.1940
    192  CA       144.7080   97.4060   33.3370 C.3   231  GLY231      0.2014
    193  C        145.0720   97.4490   31.8670 C.2   231  GLY231      0.2638
    194  O        146.1920   97.8000   31.5250 O.2   231  GLY231     -0.2714
    195  N        144.1500   97.1370   30.9750 N.am  232  PHE232     -0.1973
    196  CA       144.4550   97.0730   29.5570 C.3   232  PHE232      0.1639
    197  C        144.3450   98.4170   28.8630 C.2   232  PHE232      0.2290
    198  O        144.4860   98.4830   27.6380 O.2   232  PHE232     -0.2864
    199  CB       143.5440   96.0410   28.8840 C.3   232  PHE232      0.0560
    200  CG       143.6830   94.6950   29.4520 C.ar  232  PHE232     -0.0200
    201  CD1      144.7190   93.8750   29.0420 C.ar  232  PHE232     -0.0042
    202  CD2      142.7990   94.2440   30.4130 C.ar  232  PHE232     -0.0042
    203  CE1      144.8730   92.6190   29.5760 C.ar  232  PHE232     -0.0003
    204  CE2      142.9390   92.9970   30.9480 C.ar  232  PHE232     -0.0003
    205  CZ       143.9900   92.1830   30.5370 C.ar  232  PHE232     -0.0000
    206  N        146.6150  100.4160   28.8980 N.3   234  PHE234     -0.1241
    207  CA       147.9450  100.7890   28.4310 C.3   234  PHE234      0.1605
    208  C        148.0160  100.7120   26.9170 C.2   234  PHE234      0.2264
    209  O        148.8430  101.3820   26.3110 O.2   234  PHE234     -0.2867
    210  CB       149.0260   99.9080   29.0760 C.3   234  PHE234      0.0534
    211  CG       149.0430   98.4730   28.5860 C.ar  234  PHE234     -0.0203
    212  CD1      149.8030   98.1320   27.4710 C.ar  234  PHE234     -0.0042
    213  CD2      148.3190   97.4700   29.2440 C.ar  234  PHE234     -0.0042
    214  CE1      149.8540   96.8550   26.9970 C.ar  234  PHE234     -0.0003
    215  CE2      148.3660   96.1250   28.7790 C.ar  234  PHE234     -0.0003
    216  CZ       149.1240   95.8180   27.6470 C.ar  234  PHE234     -0.0000
@<TRIPOS>BOND
     1     1     2    1
     2   209   208    2
     3     6     5    1
     4     6     7    1
     5     5     2    1
     6     2     3    1
     7   208   207    1
     8   214   212   ar
     9   214   216   ar
    10     3     4    2
    11   212   211   ar
    12   198   197    2
    13   216   215   ar
    14     7     8    1
    15     8     9    2
    16   153   152    1
    17   207   206    1
    18   207   210    1
    19   211   210    1
    20   211   213   ar
    21   150   151    2
    22   150   149    1
    23   215   213   ar
    24   197   196    1
    25   199   200    1
    26   199   196    1
    27    12    13    1
    28   201   200   ar
    29   201   203   ar
    30   152   149    1
    31   152   154    1
    32     9    10    1
    33     9    11    1
    34   200   202   ar
    35   196   195    1
    36   203   205   ar
    37   149   148    1
    38    27    26    1
    39   133   134    2
    40   133   132    1
    41   148   143   am
    42    16    13    1
    43    16    17    1
    44   141   142    1
    45    13    14    1
    46   202   204   ar
    47   157   158    2
    48   157   156    1
    49   205   204   ar
    50   155   156    1
    51    19    18    2
    52   131   132    1
    53   143   142    1
    54   143   144    2
    55    21    14   am
    56    21    22    1
    57    26    25    1
    58    26    28    1
    59   195   193   am
    60   132   135    1
    61    25    22    1
    62   142   145    1
    63    14    15    2
    64    18    17    1
    65    18    20   am
    66   156   159    1
    67   135   136    1
    68   194   193    2
    69   163   162    2
    70    22    23    1
    71   193   192    1
    72    23    24    2
    73   162   161    1
    74   160   161    1
    75   146   145    1
    76   145   147    1
    77   136   138   ar
    78   136   137   ar
    79   161   164    1
    80   138   140   ar
    81   192   191    1
    82   174   175    1
    83   182   180   am
    84   175   176    1
    85   175   178    1
    86   137   139   ar
    87   164   165    1
    88   191   185   am
    89   179   180    1
    90   179   178    1
    91   177   176    2
    92   176   183   am
    93   180   181    2
    94   140   139   ar
    95   165   166   ar
    96   165   167   ar
    97   166   168   ar
    98   183   184    1
    99   185   186    2
   100   185   184    1
   101    66    64   ar
   102    66    65   ar
   103    39    37   ar
   104    39    38   ar
   105    64    62   ar
   106    77    76    1
   107    77    78    2
   108   168   169   ar
   109   167   170   ar
   110   167   169   ar
   111    65    63   ar
   112    79    76    1
   113    79    81    1
   114    79    80    1
   115   184   187    1
   116    37    35   ar
   117    38    36   ar
   118    76    75    1
   119   170   172   ar
   120   169   171   ar
   121    82    80    1
   122    62    61   ar
   123    62    60   ar
   124    63    60   ar
   125    61    59   ar
   126    60    58   ar
   127   172   173   ar
   128    45    47    1
   129    45    44    1
   130   171   173   ar
   131    35    34   ar
   132   187   188    1
   133    46    44    1
   134    36    34   ar
   135    59    58   ar
   136    58    57    1
   137    34    33    1
   138    44    41    1
   139   188   190    1
   140   188   189    1
   141    57    54    1
   142   108   107   ar
   143   108   106   ar
   144    90    89    1
   145    72    73    1
   146    72    71    1
   147    33    30    1
   148    41    42    1
   149    41    40    1
   150   107   105   ar
   151    73    74    1
   152   106   104   ar
   153    30    29    1
   154    30    31    1
   155    54    53    1
   156    54    55    1
   157    43    42    2
   158    89    88    1
   159    42    48   am
   160    88    87    1
   161    56    55    2
   162    48    49    1
   163    67    68    1
   164    68    71    1
   165    68    69    1
   166    32    31    2
   167   105   104   ar
   168   104   103    1
   169    49    52    1
   170    49    50    1
   171   130   129   ar
   172   130   128   ar
   173    87    84    1
   174    98    96   am
   175   129   127   ar
   176    70    69    2
   177   128   126   ar
   178   119   117   ar
   179   119   118   ar
   180   117   115   ar
   181    51    50    2
   182   103   100    1
   183   118   116   ar
   184    86    85    2
   185   115   114   ar
   186   127   125   ar
   187    84    85    1
   188    84    83    1
   189   126   125   ar
   190    96    97    2
   191    96    95    1
   192   116   114   ar
   193   114   113    1
   194   100    99    1
   195   100   101    1
   196   125   124    1
   197   113   110    1
   198    95    92    1
   199    99    93   am
   200   124   121    1
   201   102   101    2
   202    93    94    2
   203    93    92    1
   204    92    91    1
   205   110   111    1
   206   110   109    1
   207   112   111    2
   208   121   120    1
   209   121   122    1
   210   123   122    2
