@<TRIPOS>MOLECULE
tmp/5v8kA11.pdb
 112 110 0 0 0
SMALL
GASTEIGER

@<TRIPOS>ATOM
      1  N        116.3300   82.6080   16.5880 N.3   330  PHE330     -0.1227
      2  CA       115.0760   83.0350   15.9990 C.3   330  PHE330      0.1736
      3  C        114.7380   84.4420   16.4440 C.2   330  PHE330      0.2595
      4  O        114.3550   85.2770   15.6260 O.2   330  PHE330     -0.2718
      5  CB       113.9390   82.0650   16.3830 C.3   330  PHE330      0.0547
      6  CG       112.6070   82.4090   15.7590 C.ar  330  PHE330     -0.0202
      7  CD1      111.7520   83.2970   16.3690 C.ar  330  PHE330     -0.0042
      8  CD2      112.2490   81.8800   14.5480 C.ar  330  PHE330     -0.0042
      9  CE1      110.5210   83.6230   15.7950 C.ar  330  PHE330     -0.0003
     10  CE2      111.0140   82.2020   13.9490 C.ar  330  PHE330     -0.0003
     11  CZ       110.1580   83.0780   14.5850 C.ar  330  PHE330     -0.0000
     12  N        114.8630   84.7160   17.7360 N.am  331  VAL331     -0.1980
     13  CA       114.5290   86.0300   18.2700 C.3   331  VAL331      0.1595
     14  C        115.4770   87.1040   17.7140 C.2   331  VAL331      0.2287
     15  O        115.0270   88.1450   17.2130 O.2   331  VAL331     -0.2864
     16  CB       114.5620   85.9840   19.8100 C.3   331  VAL331      0.0276
     17  CG1      114.5340   87.3470   20.3890 C.3   331  VAL331      0.0022
     18  CG2      113.3570   85.1900   20.3650 C.3   331  VAL331      0.0022
     19  N        115.5350   87.0880   13.6580 N.3   334  GLY334     -0.1210
     20  CA       114.2410   87.5000   13.1750 C.3   334  GLY334      0.1956
     21  C        113.9650   88.9740   13.4280 C.2   334  GLY334      0.2611
     22  O        113.4970   89.7000   12.5410 O.2   334  GLY334     -0.2717
     23  N        114.2370   89.4370   14.6470 N.am  335  ILE335     -0.1979
     24  CA       114.0890   90.8620   14.9270 C.3   335  ILE335      0.1595
     25  C        114.9800   91.6860   14.0090 C.2   335  ILE335      0.2287
     26  O        114.5490   92.7090   13.4490 O.2   335  ILE335     -0.2864
     27  CB       114.3870   91.1720   16.4010 C.3   335  ILE335      0.0276
     28  CG1      113.2230   90.7300   17.2850 C.3   335  ILE335      0.0022
     29  CG2      114.5860   92.6870   16.6060 C.3   335  ILE335      0.0022
     30  CD1      113.5700   90.7840   18.7500 C.3   335  ILE335      0.0001
     31  N        116.2320   91.0310   11.1730 N.3   337  THR337     -0.1203
     32  CA       115.7960   90.9830    9.7750 C.3   337  THR337      0.1994
     33  C        114.5970   91.9030    9.5530 C.2   337  THR337      0.2617
     34  O        114.5470   92.6170    8.5550 O.2   337  THR337     -0.2717
     35  CB       115.4340   89.5560    9.3400 C.3   337  THR337      0.1784
     36  OG1      116.5800   88.7260    9.4660 O.3   337  THR337     -0.2211
     37  CG2      115.0290   89.4970    7.8710 C.3   337  THR337      0.0376
     38  N        113.6360   91.9150   10.4780 N.am  338  HIS338     -0.1975
     39  CA       112.5100   92.8340   10.3460 C.3   338  HIS338      0.1656
     40  C        113.0170   94.2690   10.3340 C.2   338  HIS338      0.2291
     41  O        112.7180   95.0360    9.4220 O.2   338  HIS338     -0.2864
     42  CB       111.5030   92.6510   11.4760 C.3   338  HIS338      0.0771
     43  CG       110.6120   93.8440   11.6850 C.ar  338  HIS338      0.0820
     44  ND1      109.2900   93.8690   11.3120 N.ar  338  HIS338     -0.2267
     45  CD2      110.8590   95.0590   12.2260 C.ar  338  HIS338      0.1154
     46  CE1      108.7590   95.0350   11.6220 C.ar  338  HIS338      0.1986
     47  NE2      109.6960   95.7790   12.1730 N.ar  338  HIS338     -0.2212
     48  N        114.7390   95.1710    7.0410 N.3   341  ILE341     -0.1245
     49  CA       113.7660   95.4420    5.9850 C.3   341  ILE341      0.1561
     50  C        113.1790   96.8330    6.1630 C.2   341  ILE341      0.2260
     51  O        112.9880   97.5620    5.1930 O.2   341  ILE341     -0.2867
     52  CB       112.6780   94.3520    5.9730 C.3   341  ILE341      0.0252
     53  CG1      113.2720   93.0700    5.4010 C.3   341  ILE341      0.0019
     54  CG2      111.4520   94.7470    5.1520 C.3   341  ILE341      0.0019
     55  CD1      112.3200   91.8990    5.5710 C.3   341  ILE341      0.0001
     56  N        104.4870   97.0840    0.1070 N.3   352  LEU352     -0.1231
     57  CA       104.4760   96.1110    1.1950 C.3   352  LEU352      0.1693
     58  C        105.3630   96.5000    2.3690 C.2   352  LEU352      0.2592
     59  O        105.0890   96.0960    3.5040 O.2   352  LEU352     -0.2718
     60  CB       104.9210   94.7460    0.6670 C.3   352  LEU352      0.0284
     61  CG       104.2320   93.5540    1.3150 C.3   352  LEU352      0.0019
     62  CD1      102.8080   93.4740    0.8710 C.3   352  LEU352      0.0001
     63  CD2      104.9680   92.2490    0.9870 C.3   352  LEU352      0.0001
     64  N        106.4600   97.2220    2.1230 N.am  353  PHE353     -0.1962
     65  CA       107.4540   97.4880    3.1480 C.3   353  PHE353      0.1771
     66  C        107.4230   98.9070    3.6880 C.2   353  PHE353      0.2619
     67  O        108.3340   99.2920    4.4170 O.2   353  PHE353     -0.2715
     68  CB       108.8360   97.1970    2.5980 C.3   353  PHE353      0.0574
     69  CG       108.9890   95.8220    2.0340 C.ar  353  PHE353     -0.0200
     70  CD1      108.8770   94.7060    2.8520 C.ar  353  PHE353     -0.0042
     71  CD2      109.2680   95.6430    0.6910 C.ar  353  PHE353     -0.0042
     72  CE1      109.0500   93.4440    2.3360 C.ar  353  PHE353     -0.0003
     73  CE2      109.4240   94.3860    0.1710 C.ar  353  PHE353     -0.0003
     74  CZ       109.3400   93.2820    0.9950 C.ar  353  PHE353     -0.0000
     75  N        106.4100   99.6870    3.3800 N.am  354  ALA354     -0.1963
     76  CA       106.3900  101.0700    3.8180 C.3   354  ALA354      0.1728
     77  C        105.8890  101.2090    5.2510 C.2   354  ALA354      0.2616
     78  O        105.0270  100.4560    5.7130 O.2   354  ALA354     -0.2715
     79  CB       105.5080  101.9060    2.8990 C.3   354  ALA354      0.0334
     80  N        106.4660  102.1740    5.9590 N.am  355  HIS355     -0.1959
     81  CA       106.0280  102.5320    7.3040 C.3   355  HIS355      0.1787
     82  C        106.0110  101.3250    8.2440 C.2   355  HIS355      0.2620
     83  O        105.0340  101.0510    8.9310 O.2   355  HIS355     -0.2715
     84  CB       104.6720  103.2180    7.2160 C.3   355  HIS355      0.0785
     85  CG       104.6870  104.3890    6.2820 C.ar  355  HIS355      0.0821
     86  ND1      103.9070  104.4540    5.1460 N.ar  355  HIS355     -0.2267
     87  CD2      105.4370  105.5160    6.2900 C.ar  355  HIS355      0.1154
     88  CE1      104.1590  105.5830    4.5080 C.ar  355  HIS355      0.1986
     89  NE2      105.0790  106.2480    5.1840 N.ar  355  HIS355     -0.2212
     90  N        107.1170  100.5840    8.2640 N.am  356  MET356     -0.1963
     91  CA       107.2620   99.5400    9.2560 C.3   356  MET356      0.1736
     92  C        107.6740  100.1430   10.5980 C.2   356  MET356      0.2617
     93  O        108.3080  101.1960   10.6700 O.2   356  MET356     -0.2715
     94  CB       108.2630   98.5310    8.7630 C.3   356  MET356      0.0427
     95  CG       107.8110   97.8310    7.4770 C.3   356  MET356      0.0599
     96  SD       109.1370   96.8000    6.8520 S.3   356  MET356     -0.1393
     97  CE       109.3900   95.7030    8.2440 C.3   356  MET356      0.0692
     98  N        107.2330   99.5090   11.6730 N.am  357  THR357     -0.1951
     99  CA       107.6930   99.8700   13.0060 C.3   357  THR357      0.1897
    100  C        109.0280   99.2010   13.2960 C.2   357  THR357      0.2313
    101  O        109.2590   98.0540   12.9080 O.2   357  THR357     -0.2863
    102  CB       106.6470   99.4550   14.0470 C.3   357  THR357      0.1794
    103  OG1      105.4670  100.2390   13.8410 O.3   357  THR357     -0.2208
    104  CG2      107.1420   99.7260   15.4410 C.3   357  THR357      0.0378
    105  N        111.4850   97.3970   15.8070 N.3   359  ILE359     -0.1245
    106  CA       111.3820   96.6030   17.0230 C.3   359  ILE359      0.1561
    107  C        112.4550   97.0880   17.9850 C.2   359  ILE359      0.2260
    108  O        113.6520   97.0580   17.6770 O.2   359  ILE359     -0.2867
    109  CB       111.5220   95.1020   16.7360 C.3   359  ILE359      0.0252
    110  CG1      110.3690   94.6440   15.8460 C.3   359  ILE359      0.0019
    111  CG2      111.5190   94.3360   18.0460 C.3   359  ILE359      0.0019
    112  CD1      110.5320   93.2680   15.3280 C.3   359  ILE359      0.0001
@<TRIPOS>BOND
     1    56    57    1
     2    73    71   ar
     3    73    74   ar
     4    60    57    1
     5    60    61    1
     6    71    69   ar
     7    62    61    1
     8    63    61    1
     9    74    72   ar
    10    57    58    1
    11    69    68    1
    12    69    70   ar
    13    64    58   am
    14    64    65    1
    15    72    70   ar
    16    58    59    2
    17    68    65    1
    18    79    76    1
    19    65    66    1
    20    75    66   am
    21    75    76    1
    22    66    67    2
    23    76    77    1
    24    88    86   ar
    25    88    89   ar
    26    86    85   ar
    27    54    52    1
    28    89    87   ar
    29    51    50    2
    30    77    78    2
    31    77    80   am
    32    53    55    1
    33    53    52    1
    34    80    81    1
    35    52    49    1
    36    49    50    1
    37    49    48    1
    38    85    87   ar
    39    85    84    1
    40    96    95    1
    41    96    97    1
    42    84    81    1
    43    81    82    1
    44    95    94    1
    45    37    35    1
    46    82    90   am
    47    82    83    2
    48    90    91    1
    49    34    33    2
    50    94    91    1
    51    91    92    1
    52    35    36    1
    53    35    32    1
    54    41    40    2
    55    33    32    1
    56    33    38   am
    57    32    31    1
    58    40    39    1
    59    39    38    1
    60    39    42    1
    61    92    93    2
    62    92    98   am
    63    44    46   ar
    64    44    43   ar
    65    42    43    1
    66    46    47   ar
    67    98    99    1
    68    43    45   ar
    69    47    45   ar
    70    22    21    2
    71   101   100    2
    72    99   100    1
    73    99   102    1
    74    20    21    1
    75    20    19    1
    76    21    23   am
    77    26    25    2
    78   103   102    1
    79    10     8   ar
    80    10    11   ar
    81    25    24    1
    82   102   104    1
    83     8     6   ar
    84    11     9   ar
    85    23    24    1
    86    24    27    1
    87   112   110    1
    88     4     3    2
    89     6     7   ar
    90     6     5    1
    91     9     7   ar
    92   105   106    1
    93   110   109    1
    94     2     5    1
    95     2     3    1
    96     2     1    1
    97    27    29    1
    98    27    28    1
    99     3    12   am
   100   109   106    1
   101   109   111    1
   102   106   107    1
   103    15    14    2
   104    28    30    1
   105   108   107    2
   106    14    13    1
   107    12    13    1
   108    13    16    1
   109    16    18    1
   110    16    17    1
