@<TRIPOS>MOLECULE
tmp/5v8kA06.pdb
 166 160 0 0 0
SMALL
GASTEIGER

@<TRIPOS>ATOM
      1  N        153.3740   96.7300   25.4460 N.3    64  ARG64      -0.1245
      2  CA       153.8450   96.1620   26.7040 C.3    64  ARG64       0.1563
      3  C        155.1070   96.8600   27.1970 C.2    64  ARG64       0.2260
      4  O        155.2320   97.1550   28.3960 O.2    64  ARG64      -0.2867
      5  CB       154.0710   94.6610   26.5600 C.3    64  ARG64       0.0307
      6  CG       152.7270   93.8630   26.4730 C.3    64  ARG64       0.0489
      7  CD       152.2600   93.4400   27.8800 C.3    64  ARG64       0.2205
      8  NE       152.8730   92.1750   28.2120 N.pl3  64  ARG64      -0.0865
      9  CZ       153.4890   91.8510   29.3440 C.cat  64  ARG64       0.5346
     10  NH1      153.9560   90.6210   29.4590 N.pl3  64  ARG64       0.1354
     11  NH2      153.6750   92.7130   30.3360 N.pl3  64  ARG64       0.1354
     12  N        151.5960   62.9860   37.2850 N.3   113  MET113     -0.1230
     13  CA       150.9750   64.2450   36.8900 C.3   113  MET113      0.1702
     14  C        150.4550   65.0180   38.1000 C.2   113  MET113      0.2592
     15  O        150.4670   66.2510   38.0930 O.2   113  MET113     -0.2718
     16  CB       149.8690   63.9570   35.8680 C.3   113  MET113      0.0401
     17  CG       150.4350   63.8260   34.4510 C.3   113  MET113      0.0596
     18  SD       149.2910   63.5870   33.0780 S.3   113  MET113     -0.1393
     19  CE       148.7330   61.9130   33.3880 C.3   113  MET113      0.0692
     20  N        150.0270   64.3200   39.1560 N.am  114  GLY114     -0.1957
     21  CA       149.7330   64.9990   40.4110 C.3   114  GLY114      0.1869
     22  C        150.9440   65.7000   41.0030 C.2   114  GLY114      0.2309
     23  O        150.8390   66.8310   41.4870 O.2   114  GLY114     -0.2863
     24  N        153.6730   66.7440   39.2830 N.3   116  ALA116     -0.1231
     25  CA       153.9110   67.8750   38.3970 C.3   116  ALA116      0.1694
     26  C        152.9700   69.0290   38.7150 C.2   116  ALA116      0.2591
     27  O        153.3500   70.1960   38.6090 O.2   116  ALA116     -0.2718
     28  CB       153.7380   67.4470   36.9410 C.3   116  ALA116      0.0304
     29  N        151.7360   68.7310   39.1160 N.am  117  LEU117     -0.1980
     30  CA       150.8130   69.8320   39.3690 C.3   117  LEU117      0.1596
     31  C        151.1750   70.5510   40.6610 C.2   117  LEU117      0.2287
     32  O        151.0670   71.7840   40.7370 O.2   117  LEU117     -0.2864
     33  CB       149.3710   69.3340   39.3920 C.3   117  LEU117      0.0297
     34  CG       148.3260   70.4330   39.6000 C.3   117  LEU117      0.0022
     35  CD1      148.4760   71.5710   38.5920 C.3   117  LEU117      0.0001
     36  CD2      146.9560   69.8590   39.4970 C.3   117  LEU117      0.0001
     37  N        153.8940   72.8260   39.7060 N.3   120  GLN120     -0.1231
     38  CA       153.3810   73.9880   38.9780 C.3   120  GLN120      0.1698
     39  C        152.7570   75.0150   39.9180 C.2   120  GLN120      0.2592
     40  O        152.9280   76.2170   39.7190 O.2   120  GLN120     -0.2718
     41  CB       152.3830   73.5290   37.9110 C.3   120  GLN120      0.0381
     42  CG       153.0600   72.8200   36.7590 C.3   120  GLN120      0.0905
     43  CD       153.8810   73.7790   35.9020 C.2   120  GLN120      0.2608
     44  OE1      155.0160   74.1570   36.2550 O.2   120  GLN120     -0.2717
     45  NE2      153.3100   74.1690   34.7540 N.am  120  GLN120     -0.0878
     46  N        152.0300   74.5650   40.9430 N.am  121  PHE121     -0.1976
     47  CA       151.5120   75.4880   41.9500 C.3   121  PHE121      0.1639
     48  C        152.6120   76.3630   42.5520 C.2   121  PHE121      0.2290
     49  O        152.4020   77.5630   42.7760 O.2   121  PHE121     -0.2864
     50  CB       150.8150   74.7120   43.0830 C.3   121  PHE121      0.0560
     51  CG       149.4860   74.0980   42.7050 C.ar  121  PHE121     -0.0200
     52  CD1      148.7440   74.6010   41.6530 C.ar  121  PHE121     -0.0042
     53  CD2      148.9700   73.0300   43.4320 C.ar  121  PHE121     -0.0042
     54  CE1      147.4980   74.0360   41.3060 C.ar  121  PHE121     -0.0003
     55  CE2      147.7420   72.4570   43.0920 C.ar  121  PHE121     -0.0003
     56  CZ       147.0060   72.9630   42.0240 C.ar  121  PHE121     -0.0000
     57  N        154.2350   78.7550   39.8840 N.3   124  PHE124     -0.1241
     58  CA       153.3510   79.9110   39.7480 C.3   124  PHE124      0.1605
     59  C        153.4220   80.8050   40.9810 C.2   124  PHE124      0.2264
     60  O        153.3540   82.0300   40.8690 O.2   124  PHE124     -0.2867
     61  CB       151.9060   79.4700   39.5110 C.3   124  PHE124      0.0534
     62  CG       151.5900   79.1410   38.0860 C.ar  124  PHE124     -0.0203
     63  CD1      152.3400   78.2030   37.3890 C.ar  124  PHE124     -0.0042
     64  CD2      150.5200   79.7380   37.4470 C.ar  124  PHE124     -0.0042
     65  CE1      152.0320   77.8740   36.0710 C.ar  124  PHE124     -0.0003
     66  CE2      150.2080   79.4030   36.1240 C.ar  124  PHE124     -0.0003
     67  CZ       150.9800   78.4710   35.4420 C.ar  124  PHE124     -0.0000
     68  N        148.9080   80.1660   46.3260 N.3   176  PHE176     -0.1241
     69  CA       149.4180   78.9950   45.6150 C.3   176  PHE176      0.1605
     70  C        150.5490   78.3020   46.3680 C.2   176  PHE176      0.2264
     71  O        150.7960   77.1110   46.1450 O.2   176  PHE176     -0.2867
     72  CB       149.9010   79.3840   44.2260 C.3   176  PHE176      0.0534
     73  CG       148.8120   79.4340   43.2020 C.ar  176  PHE176     -0.0203
     74  CD1      148.1910   78.2680   42.7730 C.ar  176  PHE176     -0.0042
     75  CD2      148.3990   80.6380   42.6730 C.ar  176  PHE176     -0.0042
     76  CE1      147.1680   78.3050   41.8210 C.ar  176  PHE176     -0.0003
     77  CE2      147.3740   80.6880   41.7040 C.ar  176  PHE176     -0.0003
     78  CZ       146.7740   79.5290   41.2810 C.ar  176  PHE176     -0.0000
     79  N        145.7310   64.1800   44.9970 N.3   188  PHE188     -0.1241
     80  CA       144.5150   64.4120   44.2230 C.3   188  PHE188      0.1605
     81  C        143.7040   63.1270   44.1130 C.2   188  PHE188      0.2264
     82  O        142.9670   62.9300   43.1450 O.2   188  PHE188     -0.2867
     83  CB       144.8440   64.9510   42.8270 C.3   188  PHE188      0.0534
     84  CG       145.6990   66.1910   42.8420 C.ar  188  PHE188     -0.0203
     85  CD1      145.1210   67.4460   42.9210 C.ar  188  PHE188     -0.0042
     86  CD2      147.0840   66.0990   42.8020 C.ar  188  PHE188     -0.0042
     87  CE1      145.9100   68.5780   42.9590 C.ar  188  PHE188     -0.0003
     88  CE2      147.8720   67.2290   42.8300 C.ar  188  PHE188     -0.0003
     89  CZ       147.2930   68.4620   42.9120 C.ar  188  PHE188     -0.0000
     90  N        138.5540   62.0920   40.6170 N.3   193  PHE193     -0.1241
     91  CA       139.8110   62.7350   40.2250 C.3   193  PHE193      0.1605
     92  C        140.9680   61.7620   40.0680 C.2   193  PHE193      0.2264
     93  O        141.9260   62.0880   39.3580 O.2   193  PHE193     -0.2867
     94  CB       140.2310   63.8180   41.2410 C.3   193  PHE193      0.0534
     95  CG       139.3820   65.0510   41.1880 C.ar  193  PHE193     -0.0203
     96  CD1      138.1740   65.1040   41.8690 C.ar  193  PHE193     -0.0042
     97  CD2      139.7690   66.1430   40.4430 C.ar  193  PHE193     -0.0042
     98  CE1      137.3770   66.2210   41.8050 C.ar  193  PHE193     -0.0003
     99  CE2      138.9750   67.2660   40.3800 C.ar  193  PHE193     -0.0003
    100  CZ       137.7760   67.3020   41.0630 C.ar  193  PHE193     -0.0000
    101  N        142.4180   60.8010   36.5330 N.3   196  PHE196     -0.1227
    102  CA       143.2680   61.6890   35.7350 C.3   196  PHE196      0.1736
    103  C        144.7050   61.1770   35.6590 C.2   196  PHE196      0.2595
    104  O        145.3420   61.2800   34.6050 O.2   196  PHE196     -0.2718
    105  CB       143.2410   63.1200   36.2830 C.3   196  PHE196      0.0547
    106  CG       142.0090   63.8920   35.9030 C.ar  196  PHE196     -0.0202
    107  CD1      141.7610   64.2280   34.5760 C.ar  196  PHE196     -0.0042
    108  CD2      141.0940   64.2920   36.8750 C.ar  196  PHE196     -0.0042
    109  CE1      140.6270   64.9410   34.2290 C.ar  196  PHE196     -0.0003
    110  CE2      139.9520   65.0120   36.5260 C.ar  196  PHE196     -0.0003
    111  CZ       139.7180   65.3300   35.2080 C.ar  196  PHE196     -0.0000
    112  N        145.2360   60.6080   36.7520 N.am  197  GLU197     -0.1979
    113  CA       146.5960   60.0710   36.6880 C.3   197  GLU197      0.1602
    114  C        146.7220   58.9720   35.6370 C.2   197  GLU197      0.2287
    115  O        147.8420   58.6900   35.1840 O.2   197  GLU197     -0.2864
    116  CB       147.0490   59.5250   38.0550 C.3   197  GLU197      0.0415
    117  CG       146.9410   60.5250   39.2200 C.3   197  GLU197      0.1163
    118  CD       148.2360   61.3010   39.5110 C.2   197  GLU197      0.3649
    119  OE1      148.3710   61.8100   40.6430 O.co2 197  GLU197     -0.2457
    120  OE2      149.1060   61.4120   38.6210 O.co2 197  GLU197     -0.2457
    121  N        143.8640   64.8100   31.2470 N.3   203  VAL203     -0.1245
    122  CA       144.4840   66.0260   31.7910 C.3   203  VAL203      0.1561
    123  C        144.5780   67.0970   30.7150 C.2   203  VAL203      0.2260
    124  O        144.1940   68.2490   30.9240 O.2   203  VAL203     -0.2867
    125  CB       145.8630   65.7070   32.3840 C.3   203  VAL203      0.0252
    126  CG1      146.5680   66.9920   32.8550 C.3   203  VAL203      0.0019
    127  CG2      145.6870   64.7560   33.5920 C.3   203  VAL203      0.0019
    128  N        141.2080   68.7800   29.9300 N.3   206  VAL206     -0.1231
    129  CA       140.7500   69.6930   30.9610 C.3   206  VAL206      0.1692
    130  C        141.5540   70.9880   30.9330 C.2   206  VAL206      0.2592
    131  O        140.9920   72.0880   31.0760 O.2   206  VAL206     -0.2718
    132  CB       140.8130   68.9880   32.3220 C.3   206  VAL206      0.0266
    133  CG1      140.6130   69.9430   33.4510 C.3   206  VAL206      0.0020
    134  CG2      139.7480   67.9590   32.3660 C.3   206  VAL206      0.0020
    135  N        142.8740   70.8920   30.7200 N.am  207  SER207     -0.1952
    136  CA       143.6850   72.1050   30.6310 C.3   207  SER207      0.1924
    137  C        143.1900   73.0160   29.5090 C.2   207  SER207      0.2314
    138  O        143.0740   74.2390   29.6900 O.2   207  SER207     -0.2863
    139  CB       145.1590   71.7700   30.4140 C.3   207  SER207      0.2116
    140  OG       145.7330   71.1690   31.5730 O.3   207  SER207     -0.2180
    141  N        139.5780   74.5580   30.4770 N.3   210  ILE210     -0.1231
    142  CA       139.6570   75.6240   31.4620 C.3   210  ILE210      0.1692
    143  C        140.3870   76.8380   30.8790 C.2   210  ILE210      0.2591
    144  O        139.9960   77.9800   31.1120 O.2   210  ILE210     -0.2718
    145  CB       140.3350   75.1230   32.7440 C.3   210  ILE210      0.0266
    146  CG1      139.5030   74.0230   33.3910 C.3   210  ILE210      0.0019
    147  CG2      140.5770   76.2890   33.7200 C.3   210  ILE210      0.0020
    148  CD1      138.1810   74.4690   34.0190 C.3   210  ILE210      0.0001
    149  N        141.4380   76.6140   30.0990 N.am  211  LEU211     -0.1980
    150  CA       142.1040   77.7450   29.4580 C.3   211  LEU211      0.1596
    151  C        141.1220   78.5380   28.5910 C.2   211  LEU211      0.2287
    152  O        141.1590   79.7770   28.5630 O.2   211  LEU211     -0.2864
    153  CB       143.2960   77.2550   28.6400 C.3   211  LEU211      0.0297
    154  CG       144.1670   78.3570   28.0510 C.3   211  LEU211      0.0022
    155  CD1      144.9720   79.0000   29.1550 C.3   211  LEU211      0.0001
    156  CD2      145.0680   77.7770   26.9940 C.3   211  LEU211      0.0001
    157  N        139.2660   80.7890   30.7740 N.3   214  HIS214     -0.1241
    158  CA       140.1500   81.9070   31.1080 C.3   214  HIS214      0.1621
    159  C        140.1820   82.9230   29.9710 C.2   214  HIS214      0.2264
    160  O        140.0740   84.1280   30.1950 O.2   214  HIS214     -0.2867
    161  CB       141.5560   81.3790   31.3990 C.3   214  HIS214      0.0745
    162  CG       141.7360   80.7830   32.7630 C.ar  214  HIS214      0.0817
    163  ND1      141.0440   81.2180   33.8730 N.ar  214  HIS214     -0.2268
    164  CD2      142.5510   79.7880   33.1970 C.ar  214  HIS214      0.1154
    165  CE1      141.4260   80.5200   34.9320 C.ar  214  HIS214      0.1986
    166  NE2      142.3470   79.6520   34.5510 N.ar  214  HIS214     -0.2212
@<TRIPOS>BOND
     1     1     2    1
     2     6     5    1
     3     6     7    1
     4     5     2    1
     5     2     3    1
     6   156   154    1
     7     3     4    2
     8     7     8    1
     9   154   153    1
    10   154   155    1
    11     8     9    2
    12   152   151    2
    13   151   150    1
    14   153   150    1
    15     9    10    1
    16     9    11    1
    17   150   149    1
    18   137   138    2
    19   137   136    1
    20   128   129    1
    21   159   160    2
    22   159   158    1
    23   149   143   am
    24   139   136    1
    25   139   140    1
    26   141   142    1
    27   136   135    1
    28   123   124    2
    29   123   122    1
    30   135   130   am
    31   157   158    1
    32   143   144    2
    33   143   142    1
    34   130   129    1
    35   130   131    2
    36   129   132    1
    37   158   161    1
    38   121   122    1
    39   161   162    1
    40   142   145    1
    41   122   125    1
    42   132   134    1
    43   132   133    1
    44   125   126    1
    45   125   127    1
    46   145   146    1
    47   145   147    1
    48   162   164   ar
    49   162   163   ar
    50    18    19    1
    51    18    17    1
    52   164   166   ar
    53   146   148    1
    54   163   165   ar
    55   109   107   ar
    56   109   111   ar
    57    17    16    1
    58   166   165   ar
    59   107   106   ar
    60   104   103    2
    61    45    43   am
    62   115   114    2
    63   111   110   ar
    64    67    65   ar
    65    67    66   ar
    66   114   113    1
    67   103   102    1
    68   103   112   am
    69   102   105    1
    70   102   101    1
    71    16    13    1
    72    43    44    2
    73    43    42    1
    74   106   105    1
    75   106   108   ar
    76    65    63   ar
    77    66    64   ar
    78   110   108   ar
    79   113   112    1
    80   113   116    1
    81    42    41    1
    82    13    12    1
    83    13    14    1
    84    28    25    1
    85    63    62   ar
    86    64    62   ar
    87    41    38    1
    88   116   117    1
    89    62    61    1
    90    15    14    2
    91    14    20   am
    92    25    26    1
    93    25    24    1
    94    35    34    1
    95    27    26    2
    96   120   118   ar
    97    26    29   am
    98    38    37    1
    99    38    39    1
   100    29    30    1
   101    20    21    1
   102   117   118    1
   103    93    92    2
   104    30    33    1
   105    30    31    1
   106    33    34    1
   107    36    34    1
   108    61    58    1
   109   118   119   ar
   110    40    39    2
   111    58    57    1
   112    58    59    1
   113    39    46   am
   114    92    91    1
   115    91    90    1
   116    91    94    1
   117    99    97   ar
   118    99   100   ar
   119    21    22    1
   120    97    95   ar
   121    31    32    2
   122    60    59    2
   123    46    47    1
   124    22    23    2
   125   100    98   ar
   126    95    94    1
   127    95    96   ar
   128    78    77   ar
   129    78    76   ar
   130    54    52   ar
   131    54    56   ar
   132    52    51   ar
   133    77    75   ar
   134    98    96   ar
   135    76    74   ar
   136    47    48    1
   137    47    50    1
   138    56    55   ar
   139    48    49    2
   140    75    73   ar
   141    51    50    1
   142    51    53   ar
   143    74    73   ar
   144    86    88   ar
   145    86    84   ar
   146    83    84    1
   147    83    80    1
   148    88    89   ar
   149    84    85   ar
   150    89    87   ar
   151    85    87   ar
   152    55    53   ar
   153    82    81    2
   154    73    72    1
   155    81    80    1
   156    80    79    1
   157    72    69    1
   158    69    68    1
   159    69    70    1
   160    71    70    2
