@<TRIPOS>MOLECULE
tmp/5v8kA00.pdb
 141 134 0 0 0
SMALL
GASTEIGER

@<TRIPOS>ATOM
      1  N        158.7420   65.9470   27.4810 N.3    22  LEU22      -0.1245
      2  CA       159.4300   67.0370   28.1670 C.3    22  LEU22       0.1561
      3  C        160.2520   67.8610   27.1940 C.2    22  LEU22       0.2260
      4  O        160.2580   69.0920   27.2680 O.2    22  LEU22      -0.2867
      5  CB       160.3250   66.4950   29.2850 C.3    22  LEU22       0.0270
      6  CG       160.8350   67.6100   30.2050 C.3    22  LEU22       0.0019
      7  CD1      159.6980   68.2090   31.0640 C.3    22  LEU22       0.0001
      8  CD2      161.9430   67.0930   31.0750 C.3    22  LEU22       0.0001
      9  N        158.0410   70.1500   25.3640 N.3    25  HIS25      -0.1226
     10  CA       157.6630   71.2830   26.1970 C.3    25  HIS25       0.1752
     11  C        158.7820   72.3160   26.2740 C.2    25  HIS25       0.2595
     12  O        158.5290   73.5180   26.1870 O.2    25  HIS25      -0.2718
     13  CB       157.2980   70.8020   27.5940 C.3    25  HIS25       0.0759
     14  CG       155.9970   70.0770   27.6700 C.ar   25  HIS25       0.0818
     15  ND1      155.4810   69.6230   28.8640 N.ar   25  HIS25      -0.2268
     16  CD2      155.1030   69.7220   26.7120 C.ar   25  HIS25       0.1154
     17  CE1      154.3290   69.0170   28.6410 C.ar   25  HIS25       0.1986
     18  NE2      154.0910   69.0480   27.3450 N.ar   25  HIS25      -0.2212
     19  N        160.0200   71.8630   26.4720 N.am   26  ILE26      -0.1980
     20  CA       161.1660   72.7690   26.4590 C.3    26  ILE26       0.1595
     21  C        161.2190   73.5330   25.1410 C.2    26  ILE26       0.2287
     22  O        161.3390   74.7640   25.1280 O.2    26  ILE26      -0.2864
     23  CB       162.4670   71.9790   26.7150 C.3    26  ILE26       0.0276
     24  CG1      162.4000   71.2870   28.0800 C.3    26  ILE26       0.0022
     25  CG2      163.7250   72.8960   26.5980 C.3    26  ILE26       0.0022
     26  CD1      163.6670   70.5250   28.4730 C.3    26  ILE26       0.0001
     27  N        158.7900   76.2720   24.9580 N.3    29  LEU29      -0.1245
     28  CA       159.2640   77.4690   25.6510 C.3    29  LEU29       0.1561
     29  C        160.2490   78.2600   24.7840 C.2    29  LEU29       0.2260
     30  O        160.1740   79.4940   24.7130 O.2    29  LEU29      -0.2867
     31  CB       159.9080   77.0870   26.9840 C.3    29  LEU29       0.0270
     32  CG       158.9370   76.4590   27.9870 C.3    29  LEU29       0.0019
     33  CD1      159.6640   75.9690   29.2020 C.3    29  LEU29       0.0001
     34  CD2      157.8270   77.3990   28.3680 C.3    29  LEU29       0.0001
     35  N        158.2760   80.3630   22.4590 N.3    32  VAL32      -0.1245
     36  CA       157.6960   81.5250   23.1060 C.3    32  VAL32       0.1561
     37  C        158.7390   82.6280   23.1930 C.2    32  VAL32       0.2260
     38  O        158.5390   83.7470   22.7100 O.2    32  VAL32      -0.2867
     39  CB       157.1680   81.1460   24.4990 C.3    32  VAL32       0.0252
     40  CG1      156.6420   82.3940   25.2700 C.3    32  VAL32       0.0019
     41  CG2      156.0780   80.0380   24.3920 C.3    32  VAL32       0.0019
     42  N        167.1490   77.1170   25.3000 N.3    93  LEU93      -0.1245
     43  CA       166.0380   76.1790   25.4470 C.3    93  LEU93       0.1561
     44  C        165.9770   75.2080   24.2800 C.2    93  LEU93       0.2260
     45  O        165.7730   74.0030   24.4790 O.2    93  LEU93      -0.2867
     46  CB       164.7210   76.9430   25.5510 C.3    93  LEU93       0.0270
     47  CG       164.5730   77.7600   26.8260 C.3    93  LEU93       0.0019
     48  CD1      163.5280   78.8250   26.6350 C.3    93  LEU93       0.0001
     49  CD2      164.2000   76.8350   27.9510 C.3    93  LEU93       0.0001
     50  N        164.7100   60.0840   35.7980 N.3   107  PHE107     -0.1227
     51  CA       163.9450   60.7390   36.8500 C.3   107  PHE107      0.1736
     52  C        162.4710   60.8980   36.4690 C.2   107  PHE107      0.2595
     53  O        161.5870   60.7430   37.3210 O.2   107  PHE107     -0.2718
     54  CB       164.5890   62.0860   37.1560 C.3   107  PHE107      0.0547
     55  CG       163.8110   62.9190   38.1140 C.ar  107  PHE107     -0.0202
     56  CD1      163.9010   62.6970   39.4790 C.ar  107  PHE107     -0.0042
     57  CD2      162.9860   63.9210   37.6510 C.ar  107  PHE107     -0.0042
     58  CE1      163.1820   63.4690   40.3600 C.ar  107  PHE107     -0.0003
     59  CE2      162.2600   64.6900   38.5260 C.ar  107  PHE107     -0.0003
     60  CZ       162.3550   64.4680   39.8820 C.ar  107  PHE107     -0.0000
     61  N        162.1820   61.2060   35.1960 N.am  108  LEU108     -0.1980
     62  CA       160.7950   61.4040   34.7680 C.3   108  LEU108      0.1596
     63  C        159.9530   60.1470   34.9530 C.2   108  LEU108      0.2287
     64  O        158.7270   60.2330   35.1110 O.2   108  LEU108     -0.2864
     65  CB       160.7450   61.8250   33.3020 C.3   108  LEU108      0.0297
     66  CG       161.3980   63.1590   32.9700 C.3   108  LEU108      0.0022
     67  CD1      161.4850   63.2950   31.4630 C.3   108  LEU108      0.0001
     68  CD2      160.6200   64.3060   33.5840 C.3   108  LEU108      0.0001
     69  N        157.9660   60.5490   38.0200 N.3   111  VAL111     -0.1245
     70  CA       157.0970   61.7080   38.1830 C.3   111  VAL111      0.1561
     71  C        155.6760   61.3230   37.7840 C.2   111  VAL111      0.2260
     72  O        155.4560   60.7080   36.7330 O.2   111  VAL111     -0.2867
     73  CB       157.5950   62.8970   37.3400 C.3   111  VAL111      0.0252
     74  CG1      156.7010   64.1180   37.5410 C.3   111  VAL111      0.0019
     75  CG2      159.0200   63.2300   37.6860 C.3   111  VAL111      0.0019
     76  N        152.1090   65.0450   40.9720 N.3   115  LYS115     -0.1231
     77  CA       153.3350   65.6920   41.4480 C.3   115  LYS115      0.1693
     78  C        153.6790   66.9100   40.6050 C.2   115  LYS115      0.2591
     79  O        154.0170   67.9750   41.1350 O.2   115  LYS115     -0.2718
     80  CB       154.5160   64.7180   41.4150 C.3   115  LYS115      0.0285
     81  CG       154.5620   63.6710   42.5120 C.3   115  LYS115      0.0035
     82  CD       154.2290   64.2640   43.8760 C.3   115  LYS115      0.0206
     83  CE       154.5660   63.3100   45.0070 C.3   115  LYS115      0.1093
     84  NZ       153.7480   63.6570   46.1940 N.3   115  LYS115     -0.1314
     85  N        153.6730   66.7440   39.2830 N.am  116  ALA116     -0.1980
     86  CA       153.9110   67.8750   38.3970 C.3   116  ALA116      0.1597
     87  C        152.9700   69.0290   38.7150 C.2   116  ALA116      0.2287
     88  O        153.3500   70.1960   38.6090 O.2   116  ALA116     -0.2864
     89  CB       153.7380   67.4470   36.9410 C.3   116  ALA116      0.0319
     90  N        154.2250   70.9040   41.6920 N.3   119  ALA119     -0.1231
     91  CA       155.3650   71.7270   41.3010 C.3   119  ALA119      0.1694
     92  C        154.9100   72.9660   40.5510 C.2   119  ALA119      0.2591
     93  O        155.4810   74.0490   40.7190 O.2   119  ALA119     -0.2718
     94  CB       156.3340   70.9130   40.4390 C.3   119  ALA119      0.0304
     95  N        153.8940   72.8260   39.7060 N.am  120  GLN120     -0.1979
     96  CA       153.3810   73.9880   38.9780 C.3   120  GLN120      0.1601
     97  C        152.7570   75.0150   39.9180 C.2   120  GLN120      0.2287
     98  O        152.9280   76.2170   39.7190 O.2   120  GLN120     -0.2864
     99  CB       152.3830   73.5290   37.9110 C.3   120  GLN120      0.0394
    100  CG       153.0600   72.8200   36.7590 C.3   120  GLN120      0.0908
    101  CD       153.8810   73.7790   35.9020 C.2   120  GLN120      0.2608
    102  OE1      155.0160   74.1570   36.2550 O.2   120  GLN120     -0.2717
    103  NE2      153.3100   74.1690   34.7540 N.am  120  GLN120     -0.0878
    104  N        155.8340   76.8600   41.3220 N.3   123  PHE123     -0.1227
    105  CA       156.4230   77.7100   40.2970 C.3   123  PHE123      0.1736
    106  C        155.5530   78.9460   40.0430 C.2   123  PHE123      0.2595
    107  O        156.0580   80.0740   39.9760 O.2   123  PHE123     -0.2718
    108  CB       156.6180   76.9260   39.0000 C.3   123  PHE123      0.0547
    109  CG       157.2750   77.7340   37.9090 C.ar  123  PHE123     -0.0202
    110  CD1      158.5880   78.1710   38.0440 C.ar  123  PHE123     -0.0042
    111  CD2      156.5910   78.0560   36.7590 C.ar  123  PHE123     -0.0042
    112  CE1      159.2000   78.9210   37.0470 C.ar  123  PHE123     -0.0003
    113  CE2      157.2070   78.8160   35.7510 C.ar  123  PHE123     -0.0003
    114  CZ       158.5050   79.2360   35.9040 C.ar  123  PHE123     -0.0000
    115  N        154.2350   78.7550   39.8840 N.am  124  PHE124     -0.1976
    116  CA       153.3510   79.9110   39.7480 C.3   124  PHE124      0.1639
    117  C        153.4220   80.8050   40.9810 C.2   124  PHE124      0.2290
    118  O        153.3540   82.0300   40.8690 O.2   124  PHE124     -0.2864
    119  CB       151.9060   79.4700   39.5110 C.3   124  PHE124      0.0560
    120  CG       151.5900   79.1410   38.0860 C.ar  124  PHE124     -0.0200
    121  CD1      152.3400   78.2030   37.3890 C.ar  124  PHE124     -0.0042
    122  CD2      150.5200   79.7380   37.4470 C.ar  124  PHE124     -0.0042
    123  CE1      152.0320   77.8740   36.0710 C.ar  124  PHE124     -0.0003
    124  CE2      150.2080   79.4030   36.1240 C.ar  124  PHE124     -0.0003
    125  CZ       150.9800   78.4710   35.4420 C.ar  124  PHE124     -0.0000
    126  N        156.0260   81.3010   42.8150 N.3   126  LEU126     -0.1231
    127  CA       157.2550   82.0670   42.6760 C.3   126  LEU126      0.1693
    128  C        157.0490   83.2330   41.7220 C.2   126  LEU126      0.2591
    129  O        157.3300   84.3830   42.0690 O.2   126  LEU126     -0.2718
    130  CB       158.3900   81.1650   42.1960 C.3   126  LEU126      0.0284
    131  CG       159.7170   81.8600   41.9130 C.3   126  LEU126      0.0019
    132  CD1      160.3500   82.3050   43.2190 C.3   126  LEU126      0.0001
    133  CD2      160.6170   80.9340   41.1320 C.3   126  LEU126      0.0001
    134  N        156.5330   82.9560   40.5200 N.am  127  ILE127     -0.1980
    135  CA       156.3410   84.0160   39.5310 C.3   127  ILE127      0.1595
    136  C        155.4550   85.1220   40.0890 C.2   127  ILE127      0.2287
    137  O        155.7510   86.3120   39.9360 O.2   127  ILE127     -0.2864
    138  CB       155.7660   83.4530   38.2180 C.3   127  ILE127      0.0276
    139  CG1      156.8700   82.9290   37.3110 C.3   127  ILE127      0.0022
    140  CG2      155.1020   84.5440   37.4150 C.3   127  ILE127      0.0022
    141  CD1      157.7050   81.8610   37.8840 C.3   127  ILE127      0.0001
@<TRIPOS>BOND
     1    35    36    1
     2    38    37    2
     3    36    37    1
     4    36    39    1
     5    44    45    2
     6    44    43    1
     7    41    39    1
     8    39    40    1
     9    30    29    2
    10    29    28    1
    11    27    28    1
    12    22    21    2
    13    21    20    1
    14    42    43    1
    15     9    10    1
    16    43    46    1
    17    46    47    1
    18    28    31    1
    19    12    11    2
    20    10    11    1
    21    10    13    1
    22    11    19   am
    23    20    19    1
    24    20    23    1
    25    25    23    1
    26    48    47    1
    27    16    18   ar
    28    16    14   ar
    29    23    24    1
    30    47    49    1
    31    31    32    1
    32     3     4    2
    33     3     2    1
    34    18    17   ar
    35     1     2    1
    36    13    14    1
    37    14    15   ar
    38    32    34    1
    39    32    33    1
    40    24    26    1
    41     2     5    1
    42    17    15   ar
    43     5     6    1
    44     6     7    1
    45     6     8    1
    46    67    66    1
    47    66    65    1
    48    66    68    1
    49    65    62    1
    50   103   101   am
    51    62    63    1
    52    62    61    1
    53    63    64    2
    54    61    52   am
    55   125   123   ar
    56   125   124   ar
    57   113   114   ar
    58   113   111   ar
    59    50    51    1
    60   101   102    2
    61   101   100    1
    62   114   112   ar
    63   123   121   ar
    64   124   122   ar
    65    52    51    1
    66    52    53    2
    67    72    71    2
    68   100    99    1
    69   111   109   ar
    70    51    54    1
    71    89    86    1
    72   112   110   ar
    73    54    55    1
    74   139   141    1
    75   139   138    1
    76    73    74    1
    77    73    75    1
    78    73    70    1
    79   121   120   ar
    80   140   138    1
    81   122   120   ar
    82    57    55   ar
    83    57    59   ar
    84    71    70    1
    85   109   110   ar
    86   109   108    1
    87    99    96    1
    88    69    70    1
    89   120   119    1
    90    55    56   ar
    91   138   135    1
    92    86    87    1
    93    86    85    1
    94    59    60   ar
    95    88    87    2
    96    96    95    1
    97    96    97    1
    98   108   105    1
    99    85    78   am
   100    56    58   ar
   101   119   116    1
   102   135   136    1
   103   135   134    1
   104    95    92   am
   105    98    97    2
   106   116   115    1
   107   116   117    1
   108    60    58   ar
   109   115   106   am
   110   137   136    2
   111   107   106    2
   112   106   105    1
   113   105   104    1
   114    94    91    1
   115   134   128   am
   116    92    93    2
   117    92    91    1
   118    78    79    2
   119    78    77    1
   120   118   117    2
   121    76    77    1
   122   133   131    1
   123    91    90    1
   124    80    77    1
   125    80    81    1
   126   128   129    2
   127   128   127    1
   128   131   130    1
   129   131   132    1
   130   130   127    1
   131    81    82    1
   132   127   126    1
   133    82    83    1
   134    83    84    1
