@<TRIPOS>MOLECULE
tmp/5v8kA24.pdb
 118 114 0 0 0
SMALL
GASTEIGER

@<TRIPOS>ATOM
      1  N        140.3940   84.8420   -1.9750 N.3   530  PHE530     -0.1241
      2  CA       140.8330   83.8190   -2.9250 C.3   530  PHE530      0.1605
      3  C        141.0510   82.4660   -2.2430 C.2   530  PHE530      0.2264
      4  O        140.5250   81.4440   -2.6860 O.2   530  PHE530     -0.2867
      5  CB       142.1130   84.2420   -3.6270 C.3   530  PHE530      0.0534
      6  CG       142.5350   83.2770   -4.7130 C.ar  530  PHE530     -0.0203
      7  CD1      141.9160   83.2890   -5.9460 C.ar  530  PHE530     -0.0042
      8  CD2      143.5070   82.3170   -4.4690 C.ar  530  PHE530     -0.0042
      9  CE1      142.2750   82.3830   -6.9330 C.ar  530  PHE530     -0.0003
     10  CE2      143.8710   81.4050   -5.4490 C.ar  530  PHE530     -0.0003
     11  CZ       143.2520   81.4490   -6.6910 C.ar  530  PHE530     -0.0000
     12  N        137.7960   80.8540   -1.0790 N.3   533  ALA533     -0.1231
     13  CA       137.0930   80.2700   -2.2040 C.3   533  ALA533      0.1694
     14  C        137.6790   78.9160   -2.5780 C.2   533  ALA533      0.2592
     15  O        136.9480   77.9460   -2.8330 O.2   533  ALA533     -0.2718
     16  CB       137.1560   81.2300   -3.3870 C.3   533  ALA533      0.0304
     17  N        138.9930   78.8280   -2.5990 N.am  534  PHE534     -0.1976
     18  CA       139.6430   77.6010   -3.0170 C.3   534  PHE534      0.1639
     19  C        139.3420   76.4490   -2.0660 C.2   534  PHE534      0.2290
     20  O        139.2850   75.2870   -2.5100 O.2   534  PHE534     -0.2864
     21  CB       141.1480   77.8660   -3.1800 C.3   534  PHE534      0.0560
     22  CG       141.8510   76.8060   -3.9620 C.ar  534  PHE534     -0.0200
     23  CD1      141.9280   76.8650   -5.3440 C.ar  534  PHE534     -0.0042
     24  CD2      142.4170   75.7280   -3.3190 C.ar  534  PHE534     -0.0042
     25  CE1      142.5530   75.8220   -6.0720 C.ar  534  PHE534     -0.0003
     26  CE2      143.0390   74.7230   -4.0360 C.ar  534  PHE534     -0.0003
     27  CZ       143.0930   74.7900   -5.4160 C.ar  534  PHE534     -0.0000
     28  N        136.6290   75.5720   -1.0320 N.3   536  PHE536     -0.1227
     29  CA       135.4400   74.8710   -1.5090 C.3   536  PHE536      0.1736
     30  C        135.8290   73.6410   -2.3080 C.2   536  PHE536      0.2596
     31  O        135.1300   72.6240   -2.2720 O.2   536  PHE536     -0.2718
     32  CB       134.5520   75.7490   -2.4120 C.3   536  PHE536      0.0547
     33  CG       133.9800   76.9980   -1.7770 C.ar  536  PHE536     -0.0202
     34  CD1      134.2940   77.3780   -0.5070 C.ar  536  PHE536     -0.0042
     35  CD2      133.1160   77.8150   -2.5240 C.ar  536  PHE536     -0.0042
     36  CE1      133.7760   78.5570    0.0330 C.ar  536  PHE536     -0.0003
     37  CE2      132.5690   78.9820   -1.9950 C.ar  536  PHE536     -0.0003
     38  CZ       132.9130   79.3640   -0.7160 C.ar  536  PHE536     -0.0000
     39  N        136.8930   73.7540   -3.1120 N.am  537  SER537     -0.1952
     40  CA       137.3540   72.6590   -3.9540 C.3   537  SER537      0.1924
     41  C        137.8100   71.4620   -3.1130 C.2   537  SER537      0.2314
     42  O        137.7640   70.3270   -3.5890 O.2   537  SER537     -0.2863
     43  CB       138.4810   73.1480   -4.8990 C.3   537  SER537      0.2116
     44  OG       139.7710   73.2670   -4.2940 O.3   537  SER537     -0.2180
     45  N        133.8010   70.5980   -0.8140 N.3   540  PHE540     -0.1241
     46  CA       132.6690   70.0650   -1.5420 C.3   540  PHE540      0.1605
     47  C        132.8250   68.5670   -1.7920 C.2   540  PHE540      0.2264
     48  O        133.9300   68.0000   -1.7490 O.2   540  PHE540     -0.2867
     49  CB       132.5020   70.7550   -2.8980 C.3   540  PHE540      0.0534
     50  CG       131.8200   72.1100   -2.8440 C.ar  540  PHE540     -0.0203
     51  CD1      131.8680   72.8880   -1.7150 C.ar  540  PHE540     -0.0042
     52  CD2      131.1610   72.5900   -3.9500 C.ar  540  PHE540     -0.0042
     53  CE1      131.2820   74.1310   -1.6840 C.ar  540  PHE540     -0.0003
     54  CE2      130.5850   73.8330   -3.9580 C.ar  540  PHE540     -0.0003
     55  CZ       130.6180   74.6140   -2.8270 C.ar  540  PHE540     -0.0000
     56  N        133.4740   66.5060   -4.0430 N.3   542  TYR542     -0.1241
     57  CA       134.0510   66.4890   -5.3800 C.3   542  TYR542      0.1605
     58  C        135.4750   65.9260   -5.3950 C.2   542  TYR542      0.2264
     59  O        136.2400   66.1920   -6.3290 O.2   542  TYR542     -0.2867
     60  CB       134.0150   67.8990   -5.9780 C.3   542  TYR542      0.0534
     61  CG       132.8140   68.1160   -6.8800 C.ar  542  TYR542     -0.0201
     62  CD1      132.8190   67.6780   -8.1860 C.ar  542  TYR542     -0.0009
     63  CD2      131.6790   68.7630   -6.4140 C.ar  542  TYR542     -0.0009
     64  CE1      131.7280   67.8260   -9.0020 C.ar  542  TYR542      0.0417
     65  CE2      130.5590   68.9280   -7.2210 C.ar  542  TYR542      0.0417
     66  CZ       130.5900   68.4750   -8.5200 C.ar  542  TYR542      0.1957
     67  OH       129.4880   68.6450   -9.3310 O.3   542  TYR542     -0.2866
     68  N        136.3800   63.6650   -8.5250 N.3   545  SER545     -0.1202
     69  CA       136.6110   64.4900   -9.7050 C.3   545  SER545      0.2020
     70  C        138.0620   64.9590   -9.7660 C.2   545  SER545      0.2618
     71  O        138.7150   64.8780  -10.8120 O.2   545  SER545     -0.2717
     72  CB       135.6760   65.6930   -9.6860 C.3   545  SER545      0.2103
     73  OG       135.8730   66.4530  -10.8490 O.3   545  SER545     -0.2182
     74  N        138.5620   65.4880   -8.6450 N.am  546  ARG546     -0.1979
     75  CA       139.9040   66.0440   -8.5860 C.3   546  ARG546      0.1597
     76  C        140.9890   64.9760   -8.7370 C.2   546  ARG546      0.2287
     77  O        142.0090   65.2090   -9.3880 O.2   546  ARG546     -0.2864
     78  CB       140.0580   66.7950   -7.2640 C.3   546  ARG546      0.0334
     79  CG       139.2310   68.0840   -7.2280 C.3   546  ARG546      0.0492
     80  CD       138.9940   68.5930   -5.8120 C.3   546  ARG546      0.2205
     81  NE       140.1280   68.4290   -4.9040 N.pl3 546  ARG546     -0.0865
     82  CZ       140.0530   67.8780   -3.6980 C.cat 546  ARG546      0.5346
     83  NH1      141.1480   67.7380   -2.9660 N.pl3 546  ARG546      0.1354
     84  NH2      138.9080   67.4310   -3.2110 N.pl3 546  ARG546      0.1354
     85  N        141.0920   64.1960  -12.4130 N.3   549  GLY549     -0.1210
     86  CA       141.6630   65.2700  -13.2020 C.3   549  GLY549      0.1956
     87  C        143.1470   65.4460  -12.9280 C.2   549  GLY549      0.2611
     88  O        143.9040   65.8740  -13.8030 O.2   549  GLY549     -0.2717
     89  N        143.5720   65.1370  -11.7040 N.am  550  ALA550     -0.1979
     90  CA       144.9690   65.2750  -11.3160 C.3   550  ALA550      0.1597
     91  C        145.8770   64.3930  -12.1720 C.2   550  ALA550      0.2287
     92  O        147.0290   64.7500  -12.4110 O.2   550  ALA550     -0.2864
     93  CB       145.1410   64.8880   -9.8560 C.3   550  ALA550      0.0319
     94  N        146.8800   66.3760  -15.2850 N.3   553  LEU553     -0.1245
     95  CA       147.8790   67.3990  -15.0000 C.3   553  LEU553      0.1561
     96  C        149.2720   66.7710  -14.7760 C.2   553  LEU553      0.2260
     97  O        150.2820   67.2460  -15.3160 O.2   553  LEU553     -0.2867
     98  CB       147.4370   68.2170  -13.7870 C.3   553  LEU553      0.0270
     99  CG       146.2460   69.1560  -14.0570 C.3   553  LEU553      0.0019
    100  CD1      145.5740   69.5440  -12.7970 C.3   553  LEU553      0.0001
    101  CD2      146.7110   70.3760  -14.7530 C.3   553  LEU553      0.0001
    102  N        150.4960   66.9750   -8.4650 N.3   569  TYR569     -0.1241
    103  CA       149.2710   66.2710   -8.8080 C.3   569  TYR569      0.1605
    104  C        149.4660   64.7640   -8.8680 C.2   569  TYR569      0.2264
    105  O        148.7730   64.0720   -9.6190 O.2   569  TYR569     -0.2867
    106  CB       148.7070   66.8010  -10.1270 C.3   569  TYR569      0.0534
    107  CG       148.2530   68.2080   -9.9400 C.ar  569  TYR569     -0.0201
    108  CD1      147.1160   68.4720   -9.2260 C.ar  569  TYR569     -0.0009
    109  CD2      148.9810   69.2720  -10.4190 C.ar  569  TYR569     -0.0009
    110  CE1      146.7100   69.7650   -8.9900 C.ar  569  TYR569      0.0417
    111  CE2      148.5690   70.5810  -10.1960 C.ar  569  TYR569      0.0417
    112  CZ       147.4450   70.8140   -9.4850 C.ar  569  TYR569      0.1957
    113  OH       146.9850   72.1050   -9.2670 O.3   569  TYR569     -0.2866
    114  N        145.0430   63.7540   -5.7230 N.3   572  ALA572     -0.1245
    115  CA       144.3610   64.8180   -5.0090 C.3   572  ALA572      0.1562
    116  C        144.4900   64.5640   -3.5140 C.2   572  ALA572      0.2260
    117  O        144.6600   63.4280   -3.0560 O.2   572  ALA572     -0.2867
    118  CB       142.8910   64.9000   -5.4320 C.3   572  ALA572      0.0290
@<TRIPOS>BOND
     1    97    96    2
     2    94    95    1
     3    95    96    1
     4    95    98    1
     5   101    99    1
     6    99    98    1
     7    99   100    1
     8    88    87    2
     9    86    87    1
    10    86    85    1
    11    87    89   am
    12    92    91    2
    13    91    90    1
    14    89    90    1
    15    90    93    1
    16    73    72    1
    17    71    70    2
    18   109   111   ar
    19   109   107   ar
    20   111   112   ar
    21   106   107    1
    22   106   103    1
    23   107   108   ar
    24    70    69    1
    25    70    74   am
    26    69    72    1
    27    69    68    1
    28   105   104    2
    29   112   113    1
    30   112   110   ar
    31    77    76    2
    32    67    66    1
    33   108   110   ar
    34    64    66   ar
    35    64    62   ar
    36   104   103    1
    37   103   102    1
    38    76    75    1
    39    74    75    1
    40    75    78    1
    41    66    65   ar
    42    62    61   ar
    43    78    79    1
    44    79    80    1
    45    65    63   ar
    46     9    11   ar
    47     9     7   ar
    48    61    63   ar
    49    61    60    1
    50    11    10   ar
    51    59    58    2
    52    25    27   ar
    53    25    23   ar
    54    60    57    1
    55     7     6   ar
    56    80    81    1
    57   114   115    1
    58    10     8   ar
    59   118   115    1
    60    27    26   ar
    61    58    57    1
    62    57    56    1
    63    23    22   ar
    64   115   116    1
    65    81    82    2
    66    43    44    1
    67    43    40    1
    68     6     8   ar
    69     6     5    1
    70    26    24   ar
    71    22    24   ar
    72    22    21    1
    73    54    52   ar
    74    54    55   ar
    75    40    41    1
    76    40    39    1
    77    52    50   ar
    78    82    84    1
    79    82    83    1
    80     5     2    1
    81    42    41    2
    82   116   117    2
    83    16    13    1
    84    21    18    1
    85    39    30   am
    86    18    17    1
    87    18    19    1
    88     2     3    1
    89     2     1    1
    90    49    50    1
    91    49    46    1
    92    50    51   ar
    93    15    14    2
    94    55    53   ar
    95     4     3    2
    96    17    14   am
    97    14    13    1
    98    35    37   ar
    99    35    33   ar
   100    20    19    2
   101    32    33    1
   102    32    29    1
   103    30    31    2
   104    30    29    1
   105    13    12    1
   106    37    38   ar
   107    47    48    2
   108    47    46    1
   109    33    34   ar
   110    51    53   ar
   111    46    45    1
   112    29    28    1
   113    38    36   ar
   114    34    36   ar
