@<TRIPOS>MOLECULE
tmp/5v8kA26.pdb
 121 118 0 0 0
SMALL
GASTEIGER

@<TRIPOS>ATOM
      1  N        149.3450   60.5260   12.9590 N.3    10  PHE10      -0.1241
      2  CA       150.1840   61.1380   13.9710 C.3    10  PHE10       0.1605
      3  C        150.9840   60.1190   14.7970 C.2    10  PHE10       0.2264
      4  O        151.7460   60.5220   15.6700 O.2    10  PHE10      -0.2867
      5  CB       149.3160   61.9830   14.9000 C.3    10  PHE10       0.0534
      6  CG       148.6590   63.1660   14.2250 C.ar   10  PHE10      -0.0203
      7  CD1      149.3390   64.3630   14.0870 C.ar   10  PHE10      -0.0042
      8  CD2      147.3570   63.0860   13.7480 C.ar   10  PHE10      -0.0042
      9  CE1      148.7290   65.4550   13.4840 C.ar   10  PHE10      -0.0003
     10  CE2      146.7560   64.1680   13.1500 C.ar   10  PHE10      -0.0003
     11  CZ       147.4490   65.3490   13.0120 C.ar   10  PHE10      -0.0000
     12  N        158.9000   74.1450   23.1090 N.3    28  HIS28      -0.1241
     13  CA       157.8120   75.1010   23.0280 C.3    28  HIS28       0.1621
     14  C        158.1440   76.3830   23.7930 C.2    28  HIS28       0.2264
     15  O        157.8200   77.4770   23.3340 O.2    28  HIS28      -0.2867
     16  CB       156.5180   74.4960   23.5370 C.3    28  HIS28       0.0745
     17  CG       155.4490   75.5120   23.7050 C.ar   28  HIS28       0.0817
     18  ND1      155.0880   76.0150   24.9330 N.ar   28  HIS28      -0.2268
     19  CD2      154.7140   76.1790   22.7920 C.ar   28  HIS28       0.1154
     20  CE1      154.1430   76.9180   24.7720 C.ar   28  HIS28       0.1986
     21  NE2      153.9140   77.0480   23.4820 N.ar   28  HIS28      -0.2212
     22  N        160.0960   78.4280   21.5960 N.3    31  ASN31      -0.1225
     23  CA       159.2780   79.1330   20.6170 C.3    31  ASN31       0.1785
     24  C        158.7060   80.4170   21.2040 C.2    31  ASN31       0.2597
     25  O        158.6360   81.4490   20.5280 O.2    31  ASN31      -0.2718
     26  CB       158.1400   78.2320   20.1420 C.3    31  ASN31       0.1169
     27  CG       158.5960   77.1560   19.1870 C.2    31  ASN31       0.2627
     28  OD1      159.7860   76.9420   18.9520 O.2    31  ASN31      -0.2716
     29  ND2      157.6210   76.4770   18.6050 N.am   31  ASN31      -0.0877
     30  N        158.2760   80.3630   22.4590 N.am   32  VAL32      -0.1980
     31  CA       157.6960   81.5250   23.1060 C.3    32  VAL32       0.1595
     32  C        158.7390   82.6280   23.1930 C.2    32  VAL32       0.2287
     33  O        158.5390   83.7470   22.7100 O.2    32  VAL32      -0.2864
     34  CB       157.1680   81.1460   24.4990 C.3    32  VAL32       0.0276
     35  CG1      156.6420   82.3940   25.2700 C.3    32  VAL32       0.0022
     36  CG2      156.0780   80.0380   24.3920 C.3    32  VAL32       0.0022
     37  N        159.5790   84.1270   19.6560 N.3    35  MET35      -0.1230
     38  CA       158.6110   85.0400   19.0640 C.3    35  MET35       0.1702
     39  C        158.7600   86.4360   19.6410 C.2    35  MET35       0.2592
     40  O        158.6690   87.4200   18.9070 O.2    35  MET35      -0.2718
     41  CB       157.1930   84.5290   19.2880 C.3    35  MET35       0.0401
     42  CG       156.0890   85.4500   18.7250 C.3    35  MET35       0.0596
     43  SD       154.5480   84.5430   18.7260 S.3    35  MET35      -0.1393
     44  CE       153.2940   85.8720   18.8130 C.3    35  MET35       0.0692
     45  N        158.9590   86.5320   20.9570 N.am   36  VAL36      -0.1980
     46  CA       159.1930   87.8200   21.6030 C.3    36  VAL36       0.1595
     47  C        160.4170   88.5070   21.0050 C.2    36  VAL36       0.2287
     48  O        160.3850   89.7050   20.7130 O.2    36  VAL36      -0.2864
     49  CB       159.3410   87.6370   23.1260 C.3    36  VAL36       0.0276
     50  CG1      159.7440   88.9140   23.7910 C.3    36  VAL36       0.0022
     51  CG2      158.0250   87.2280   23.7130 C.3    36  VAL36       0.0022
     52  N        153.2100   94.2350   21.4530 N.3    61  PHE61      -0.1241
     53  CA       154.3870   93.9490   22.2700 C.3    61  PHE61       0.1605
     54  C        155.1260   95.2340   22.6410 C.2    61  PHE61       0.2264
     55  O        155.7040   95.3350   23.7350 O.2    61  PHE61      -0.2867
     56  CB       155.3060   92.9820   21.5260 C.3    61  PHE61       0.0534
     57  CG       154.8260   91.5870   21.5540 C.ar   61  PHE61      -0.0203
     58  CD1      153.9700   91.1340   20.5790 C.ar   61  PHE61      -0.0042
     59  CD2      155.1800   90.7370   22.5700 C.ar   61  PHE61      -0.0042
     60  CE1      153.5010   89.8520   20.5960 C.ar   61  PHE61      -0.0003
     61  CE2      154.6890   89.4200   22.6110 C.ar   61  PHE61      -0.0003
     62  CZ       153.8570   88.9890   21.6390 C.ar   61  PHE61      -0.0000
     63  N        141.4380   76.6140   30.0990 N.3   211  LEU211     -0.1245
     64  CA       142.1040   77.7450   29.4580 C.3   211  LEU211      0.1561
     65  C        141.1220   78.5380   28.5910 C.2   211  LEU211      0.2260
     66  O        141.1590   79.7770   28.5630 O.2   211  LEU211     -0.2867
     67  CB       143.2960   77.2550   28.6400 C.3   211  LEU211      0.0270
     68  CG       144.1670   78.3570   28.0510 C.3   211  LEU211      0.0019
     69  CD1      144.9720   79.0000   29.1550 C.3   211  LEU211      0.0001
     70  CD2      145.0680   77.7770   26.9940 C.3   211  LEU211      0.0001
     71  N        140.3160   82.4470   28.7330 N.3   215  PHE215     -0.1241
     72  CA       140.3000   83.3500   27.5870 C.3   215  PHE215      0.1605
     73  C        139.0530   84.2210   27.5780 C.2   215  PHE215      0.2264
     74  O        139.1250   85.4340   27.3270 O.2   215  PHE215     -0.2867
     75  CB       140.3630   82.5680   26.2710 C.3   215  PHE215      0.0534
     76  CG       141.7260   82.2400   25.7910 C.ar  215  PHE215     -0.0203
     77  CD1      142.5240   83.2270   25.2170 C.ar  215  PHE215     -0.0042
     78  CD2      142.1930   80.9410   25.8210 C.ar  215  PHE215     -0.0042
     79  CE1      143.7620   82.9290   24.7220 C.ar  215  PHE215     -0.0003
     80  CE2      143.4390   80.6290   25.3300 C.ar  215  PHE215     -0.0003
     81  CZ       144.2320   81.6120   24.7830 C.ar  215  PHE215     -0.0000
     82  N        139.0680   78.3040   19.9440 N.3   273  MET273     -0.1230
     83  CA       139.8900   77.2040   19.4090 C.3   273  MET273      0.1702
     84  C        140.2630   76.1890   20.5450 C.2   273  MET273      0.2592
     85  O        140.2530   74.9880   20.3600 O.2   273  MET273     -0.2718
     86  CB       141.1640   77.6520   18.6130 C.3   273  MET273      0.0401
     87  CG       140.9380   78.3090   17.2670 C.3   273  MET273      0.0596
     88  SD       142.3170   79.3050   16.7330 S.3   273  MET273     -0.1393
     89  CE       143.5820   78.1140   16.4120 C.3   273  MET273      0.0692
     90  N        140.6120   76.6790   21.7150 N.am  274  PHE274     -0.1976
     91  CA       140.9510   75.7780   22.8200 C.3   274  PHE274      0.1639
     92  C        139.7060   75.1000   23.3940 C.2   274  PHE274      0.2290
     93  O        139.7870   73.9650   23.8640 O.2   274  PHE274     -0.2864
     94  CB       141.6980   76.5210   23.9270 C.3   274  PHE274      0.0560
     95  CG       143.1860   76.6180   23.7030 C.ar  274  PHE274     -0.0200
     96  CD1      144.0010   75.5580   24.0340 C.ar  274  PHE274     -0.0042
     97  CD2      143.7610   77.7600   23.1550 C.ar  274  PHE274     -0.0042
     98  CE1      145.3690   75.6260   23.8200 C.ar  274  PHE274     -0.0003
     99  CE2      145.1190   77.8200   22.9370 C.ar  274  PHE274     -0.0003
    100  CZ       145.9240   76.7530   23.2780 C.ar  274  PHE274     -0.0000
    101  N        139.5600   66.5380   22.4710 N.3   281  HIS281     -0.1241
    102  CA       140.4340   65.6170   23.1990 C.3   281  HIS281      0.1621
    103  C        139.6970   64.8440   24.2880 C.2   281  HIS281      0.2264
    104  O        140.0000   63.6740   24.5300 O.2   281  HIS281     -0.2867
    105  CB       141.6040   66.3700   23.8070 C.3   281  HIS281      0.0745
    106  CG       142.6960   66.6090   22.8320 C.ar  281  HIS281      0.0817
    107  ND1      143.3840   65.5760   22.2380 N.ar  281  HIS281     -0.2268
    108  CD2      143.1880   67.7510   22.3030 C.ar  281  HIS281      0.1154
    109  CE1      144.2550   66.0710   21.3830 C.ar  281  HIS281      0.1986
    110  NE2      144.1580   67.3910   21.4090 N.ar  281  HIS281     -0.2212
    111  N        140.6590   74.2800    8.3530 N.3   584  PHE584     -0.1241
    112  CA       141.6670   75.1830    8.8970 C.3   584  PHE584      0.1605
    113  C        141.7190   76.4900    8.1090 C.2   584  PHE584      0.2264
    114  O        141.6590   77.5770    8.6880 O.2   584  PHE584     -0.2867
    115  CB       143.0580   74.5220    8.9060 C.3   584  PHE584      0.0534
    116  CG       144.1240   75.4560    9.3330 C.ar  584  PHE584     -0.0203
    117  CD1      144.3140   75.7150   10.6790 C.ar  584  PHE584     -0.0042
    118  CD2      144.8730   76.1450    8.4100 C.ar  584  PHE584     -0.0042
    119  CE1      145.2640   76.5970   11.1050 C.ar  584  PHE584     -0.0003
    120  CE2      145.8400   77.0500    8.8420 C.ar  584  PHE584     -0.0003
    121  CZ       146.0240   77.2630   10.2050 C.ar  584  PHE584     -0.0000
@<TRIPOS>BOND
     1   113   114    2
     2   113   112    1
     3   111   112    1
     4   118   120   ar
     5   118   116   ar
     6   120   121   ar
     7   112   115    1
     8   115   116    1
     9   116   117   ar
    10   121   119   ar
    11   117   119   ar
    12     1     2    1
    13    11    10   ar
    14    11     9   ar
    15    10     8   ar
    16     9     7   ar
    17     8     6   ar
    18     2     3    1
    19     2     5    1
    20     7     6   ar
    21     6     5    1
    22     3     4    2
    23    89    88    1
    24    88    87    1
    25    87    86    1
    26    29    27   am
    27    86    83    1
    28    42    43    1
    29    42    41    1
    30    43    44    1
    31    40    39    2
    32    28    27    2
    33    38    41    1
    34    38    39    1
    35    38    37    1
    36    27    26    1
    37    83    82    1
    38    83    84    1
    39    39    45   am
    40    26    23    1
    41    85    84    2
    42    25    24    2
    43    84    90   am
    44    58    60   ar
    45    58    57   ar
    46    60    62   ar
    47    23    24    1
    48    23    22    1
    49    48    47    2
    50    45    46    1
    51    47    46    1
    52    24    30   am
    53   109   110   ar
    54   109   107   ar
    55   110   108   ar
    56    52    53    1
    57    56    57    1
    58    56    53    1
    59    57    59   ar
    60    46    49    1
    61    62    61   ar
    62    90    91    1
    63   107   106   ar
    64    53    54    1
    65   108   106   ar
    66    30    31    1
    67   101   102    1
    68    59    61   ar
    69    54    55    2
    70    33    32    2
    71    19    21   ar
    72    19    17   ar
    73    91    92    1
    74    91    94    1
    75   106   105    1
    76    99    97   ar
    77    99   100   ar
    78    13    12    1
    79    13    16    1
    80    13    14    1
    81    31    32    1
    82    31    34    1
    83    49    51    1
    84    49    50    1
    85    97    95   ar
    86   102   105    1
    87   102   103    1
    88   100    98   ar
    89    15    14    2
    90    92    93    2
    91    21    20   ar
    92    16    17    1
    93    95    94    1
    94    95    96   ar
    95    17    18   ar
    96    98    96   ar
    97   103   104    2
    98    36    34    1
    99    34    35    1
   100    79    81   ar
   101    79    77   ar
   102    20    18   ar
   103    81    80   ar
   104    77    76   ar
   105    80    78   ar
   106    76    78   ar
   107    76    75    1
   108    75    72    1
   109    70    68    1
   110    74    73    2
   111    73    72    1
   112    72    71    1
   113    68    67    1
   114    68    69    1
   115    66    65    2
   116    65    64    1
   117    67    64    1
   118    64    63    1
