@<TRIPOS>MOLECULE
tmp/5v8kA15.pdb
 202 199 0 0 0
SMALL
GASTEIGER

@<TRIPOS>ATOM
      1  N        160.0960   78.4280   21.5960 N.3    31  ASN31      -0.1240
      2  CA       159.2780   79.1330   20.6170 C.3    31  ASN31       0.1653
      3  C        158.7060   80.4170   21.2040 C.2    31  ASN31       0.2266
      4  O        158.6360   81.4490   20.5280 O.2    31  ASN31      -0.2867
      5  CB       158.1400   78.2320   20.1420 C.3    31  ASN31       0.1155
      6  CG       158.5960   77.1560   19.1870 C.2    31  ASN31       0.2627
      7  OD1      159.7860   76.9420   18.9520 O.2    31  ASN31      -0.2716
      8  ND2      157.6210   76.4770   18.6050 N.am   31  ASN31      -0.0877
      9  N        161.3650   82.9570   21.4940 N.3    34  ALA34      -0.1231
     10  CA       161.8490   83.3700   20.1780 C.3    34  ALA34       0.1694
     11  C        160.8870   84.3470   19.4980 C.2    34  ALA34       0.2591
     12  O        161.3200   85.2870   18.8100 O.2    34  ALA34      -0.2718
     13  CB       162.0520   82.1440   19.2900 C.3    34  ALA34       0.0304
     14  N        159.5790   84.1270   19.6560 N.am   35  MET35      -0.1979
     15  CA       158.6110   85.0400   19.0640 C.3    35  MET35       0.1605
     16  C        158.7600   86.4360   19.6410 C.2    35  MET35       0.2287
     17  O        158.6690   87.4200   18.9070 O.2    35  MET35      -0.2864
     18  CB       157.1930   84.5290   19.2880 C.3    35  MET35       0.0413
     19  CG       156.0890   85.4500   18.7250 C.3    35  MET35       0.0598
     20  SD       154.5480   84.5430   18.7260 S.3    35  MET35      -0.1393
     21  CE       153.2940   85.8720   18.8130 C.3    35  MET35       0.0692
     22  N        161.8480   87.9890   18.0540 N.3    38  PHE38      -0.1227
     23  CA       161.6520   88.3180   16.6470 C.3    38  PHE38       0.1736
     24  C        160.8100   89.5870   16.4930 C.2    38  PHE38       0.2595
     25  O        161.1680   90.5060   15.7400 O.2    38  PHE38      -0.2718
     26  CB       160.9900   87.1420   15.9280 C.3    38  PHE38       0.0547
     27  CG       160.5610   87.4510   14.5270 C.ar   38  PHE38      -0.0202
     28  CD1      161.4880   87.5180   13.5190 C.ar   38  PHE38      -0.0042
     29  CD2      159.2430   87.6850   14.2270 C.ar   38  PHE38      -0.0042
     30  CE1      161.1200   87.7930   12.2420 C.ar   38  PHE38      -0.0003
     31  CE2      158.8570   87.9750   12.9210 C.ar   38  PHE38      -0.0003
     32  CZ       159.8050   88.0360   11.9350 C.ar   38  PHE38      -0.0000
     33  N        159.6960   89.6640   17.2310 N.am   39  ILE39      -0.1980
     34  CA       158.6850   90.6790   16.9610 C.3    39  ILE39       0.1595
     35  C        159.0380   92.0400   17.5510 C.2    39  ILE39       0.2287
     36  O        158.4510   93.0470   17.1440 O.2    39  ILE39      -0.2864
     37  CB       157.3050   90.1440   17.4310 C.3    39  ILE39       0.0276
     38  CG1      156.1980   90.9120   16.7700 C.3    39  ILE39       0.0022
     39  CG2      157.1030   90.2040   18.9450 C.3    39  ILE39       0.0022
     40  CD1      156.1590   90.7460   15.2040 C.3    39  ILE39       0.0001
     41  N        159.3340   93.2110   11.4020 N.3    43  HIS43      -0.1241
     42  CA       157.9050   93.4540   11.1780 C.3    43  HIS43       0.1621
     43  C        157.3810   94.6050   12.0340 C.2    43  HIS43       0.2264
     44  O        156.3100   94.5070   12.6340 O.2    43  HIS43      -0.2867
     45  CB       157.0760   92.1950   11.4660 C.3    43  HIS43       0.0745
     46  CG       157.3500   91.0650   10.5390 C.ar   43  HIS43       0.0817
     47  ND1      156.4690   90.0260   10.3630 N.ar   43  HIS43      -0.2268
     48  CD2      158.4160   90.7960    9.7470 C.ar   43  HIS43       0.1154
     49  CE1      156.9580   89.1780    9.4810 C.ar   43  HIS43       0.1986
     50  NE2      158.1490   89.6110    9.1110 N.ar   43  HIS43      -0.2212
     51  N        158.0840   99.6420    7.4440 N.3    46  TRP46      -0.1241
     52  CA       159.1130   99.7010    6.4120 C.3    46  TRP46       0.1605
     53  C        160.2980  100.5480    6.8610 C.2    46  TRP46       0.2264
     54  O        161.4230  100.3050    6.4290 O.2    46  TRP46      -0.2867
     55  CB       158.5540  100.2840    5.1030 C.3    46  TRP46       0.0550
     56  CG       157.4640   99.4920    4.4680 C.ar   46  TRP46       0.0003
     57  CD1      156.1950   99.9140    4.2090 C.ar   46  TRP46       0.0946
     58  CD2      157.5500   98.1520    3.9920 C.ar   46  TRP46       0.0152
     59  NE1      155.4490   98.8860    3.6240 N.ar   46  TRP46      -0.2442
     60  CE2      156.2680   97.8020    3.4720 C.ar   46  TRP46       0.0810
     61  CE3      158.5820   97.2010    3.9520 C.ar   46  TRP46       0.0012
     62  CZ2      156.0000   96.5590    2.9320 C.ar   46  TRP46       0.0191
     63  CZ3      158.3140   95.9670    3.4070 C.ar   46  TRP46       0.0001
     64  CH2      157.0100   95.6470    2.9160 C.ar   46  TRP46       0.0015
     65  N        152.8330   97.8000   12.6310 N.3    55  TRP55      -0.1227
     66  CA       152.2640   96.5680   12.1220 C.3    55  TRP55       0.1737
     67  C        151.8700   95.6760   13.2770 C.2    55  TRP55       0.2595
     68  O        152.3700   95.7980   14.3880 O.2    55  TRP55      -0.2718
     69  CB       153.2430   95.8540   11.2040 C.3    55  TRP55       0.0564
     70  CG       153.5020   96.5890    9.9170 C.ar   55  TRP55       0.0003
     71  CD1      152.7580   97.5550    9.3730 C.ar   55  TRP55       0.0946
     72  CD2      154.6090   96.3950    9.0310 C.ar   55  TRP55       0.0152
     73  NE1      153.3290   98.0120    8.1810 N.ar   55  TRP55      -0.2442
     74  CE2      154.4530   97.2870    7.9480 C.ar   55  TRP55       0.0810
     75  CE3      155.7230   95.5620    9.0520 C.ar   55  TRP55       0.0012
     76  CZ2      155.3530   97.3630    6.9160 C.ar   55  TRP55       0.0191
     77  CZ3      156.6410   95.6470    8.0040 C.ar   55  TRP55       0.0001
     78  CH2      156.4560   96.5460    6.9670 C.ar   55  TRP55       0.0015
     79  N        150.8930   94.8420   13.0170 N.am   56  ALA56      -0.1966
     80  CA       150.3920   93.9110   13.9960 C.3    56  ALA56       0.1713
     81  C        151.3160   92.7240   13.9870 C.2    56  ALA56       0.2455
     82  O        151.7880   92.3510   12.9120 O.2    56  ALA56      -0.2730
     83  CB       148.9450   93.5050   13.7060 C.3    56  ALA56       0.0333
     84  N        151.2020   91.9340   15.0380 N.am   57  PRO57      -0.2772
     85  CA       151.5140   91.7980   16.4520 C.3    57  PRO57       0.1083
     86  C        152.5310   92.7820   17.0530 C.3    57  PRO57       0.2017
     87  O        152.4070   92.9530   18.2670 O.3    57  PRO57      -0.2186
     88  CB       151.9880   90.3250   16.5690 C.3    57  PRO57       0.0243
     89  CG       152.0890   89.8220   15.2590 C.3    57  PRO57       0.0233
     90  CD       151.9930   90.9150   14.3270 C.3    57  PRO57       0.0935
     91  N        166.1090   75.7130   23.0490 N.3    94  TRP94      -0.1241
     92  CA       166.1230   74.8040   21.9050 C.3    94  TRP94       0.1605
     93  C        167.3550   73.9020   21.9310 C.2    94  TRP94       0.2264
     94  O        167.3060   72.7600   21.4540 O.2    94  TRP94      -0.2867
     95  CB       166.1080   75.5790   20.5950 C.3    94  TRP94       0.0550
     96  CG       164.8130   76.1890   20.1700 C.ar   94  TRP94       0.0003
     97  CD1      163.5390   75.7320   20.4150 C.ar   94  TRP94       0.0946
     98  CD2      164.6720   77.3740   19.3970 C.ar   94  TRP94       0.0152
     99  NE1      162.6200   76.5590   19.8270 N.ar   94  TRP94      -0.2442
    100  CE2      163.2880   77.5850   19.2020 C.ar   94  TRP94       0.0810
    101  CE3      165.5820   78.2770   18.8360 C.ar   94  TRP94       0.0012
    102  CZ2      162.8020   78.6770   18.4820 C.ar   94  TRP94       0.0191
    103  CZ3      165.0950   79.3540   18.1190 C.ar   94  TRP94       0.0001
    104  CH2      163.7320   79.5450   17.9450 C.ar   94  TRP94       0.0015
    105  N        147.8600  102.2810    6.0280 N.3   517  TYR517     -0.1241
    106  CA       148.9230  101.2870    5.7740 C.3   517  TYR517      0.1605
    107  C        149.1780  101.1560    4.2820 C.2   517  TYR517      0.2264
    108  O        149.4010  100.0550    3.7700 O.2   517  TYR517     -0.2867
    109  CB       148.5910   99.8990    6.3470 C.3   517  TYR517      0.0534
    110  CG       148.0570   99.8620    7.7570 C.ar  517  TYR517     -0.0201
    111  CD1      148.9100  100.0310    8.8440 C.ar  517  TYR517     -0.0009
    112  CD2      146.7130   99.6270    8.0080 C.ar  517  TYR517     -0.0009
    113  CE1      148.4350   99.9910   10.1310 C.ar  517  TYR517      0.0417
    114  CE2      146.2290   99.5750    9.2780 C.ar  517  TYR517      0.0417
    115  CZ       147.0880   99.7760   10.3500 C.ar  517  TYR517      0.1957
    116  OH       146.6000   99.7080   11.6380 O.3   517  TYR517     -0.2866
    117  N        147.2630   98.3170    2.4570 N.3   520  HIS520     -0.1226
    118  CA       147.6190   96.9130    2.5090 C.3   520  HIS520      0.1752
    119  C        146.4680   96.0050    2.9300 C.2   520  HIS520      0.2595
    120  O        146.3920   94.8620    2.4670 O.2   520  HIS520     -0.2718
    121  CB       148.8110   96.6910    3.4370 C.3   520  HIS520      0.0759
    122  CG       149.3600   95.3240    3.2900 C.ar  520  HIS520      0.0818
    123  ND1      149.9010   94.8890    2.1040 N.ar  520  HIS520     -0.2268
    124  CD2      149.2900   94.2450    4.0950 C.ar  520  HIS520      0.1154
    125  CE1      150.2060   93.6130    2.2070 C.ar  520  HIS520      0.1986
    126  NE2      149.8230   93.1970    3.3970 N.ar  520  HIS520     -0.2212
    127  N        145.5640   96.4670    3.7950 N.am  521  MET521     -0.1979
    128  CA       144.5020   95.5710    4.2200 C.3   521  MET521      0.1605
    129  C        143.5550   95.2190    3.0740 C.2   521  MET521      0.2287
    130  O        142.9290   94.1690    3.1470 O.2   521  MET521     -0.2864
    131  CB       143.7400   96.1180    5.4140 C.3   521  MET521      0.0413
    132  CG       144.5600   96.1900    6.7060 C.3   521  MET521      0.0598
    133  SD       145.0970   94.5560    7.3370 S.3   521  MET521     -0.1393
    134  CE       146.6860   94.9990    7.0490 C.3   521  MET521      0.0692
    135  N        144.8290   94.3140    0.0670 N.3   523  GLN523     -0.1231
    136  CA       145.5750   93.1220   -0.3550 C.3   523  GLN523      0.1698
    137  C        145.2750   91.9310    0.5470 C.2   523  GLN523      0.2592
    138  O        145.0220   90.8290    0.0650 O.2   523  GLN523     -0.2718
    139  CB       147.0750   93.4210   -0.3940 C.3   523  GLN523      0.0381
    140  CG       147.9420   92.1500   -0.4920 C.3   523  GLN523      0.0905
    141  CD       149.2550   92.3600   -1.1500 C.2   523  GLN523      0.2608
    142  OE1      149.3960   93.2100   -2.0160 O.2   523  GLN523     -0.2717
    143  NE2      150.2300   91.5200   -0.7980 N.am  523  GLN523     -0.0878
    144  N        145.2280   92.1490    1.8560 N.am  524  ALA524     -0.1980
    145  CA       144.9250   91.0700    2.7720 C.3   524  ALA524      0.1597
    146  C        143.5480   90.4870    2.4970 C.2   524  ALA524      0.2287
    147  O        143.3800   89.2630    2.4580 O.2   524  ALA524     -0.2864
    148  CB       144.9980   91.5640    4.2010 C.3   524  ALA524      0.0319
    149  N        143.5290   88.5370   -0.9350 N.3   527  GLY527     -0.1210
    150  CA       144.2210   87.2510   -0.8930 C.3   527  GLY527      0.1956
    151  C        143.4760   86.2390   -0.0340 C.2   527  GLY527      0.2611
    152  O        143.3310   85.0730   -0.4000 O.2   527  GLY527     -0.2717
    153  N        142.9660   86.6820    1.1030 N.am  528  ALA528     -0.1979
    154  CA       142.2130   85.7920    1.9630 C.3   528  ALA528      0.1597
    155  C        140.9360   85.2790    1.2900 C.2   528  ALA528      0.2287
    156  O        140.5380   84.1200    1.4900 O.2   528  ALA528     -0.2864
    157  CB       141.8800   86.5280    3.2530 C.3   528  ALA528      0.0319
    158  N        141.8610   82.4350   -1.1810 N.3   531  ILE531     -0.1245
    159  CA       142.1430   81.1650   -0.5110 C.3   531  ILE531      0.1561
    160  C        140.8590   80.5530    0.0410 C.2   531  ILE531      0.2260
    161  O        140.6320   79.3330   -0.0640 O.2   531  ILE531     -0.2867
    162  CB       143.2180   81.3590    0.5740 C.3   531  ILE531      0.0252
    163  CG1      144.5480   81.7870   -0.0500 C.3   531  ILE531      0.0019
    164  CG2      143.4820   80.0560    1.3480 C.3   531  ILE531      0.0019
    165  CD1      145.6240   82.1010    0.9670 C.3   531  ILE531      0.0001
    166  N        141.0580   82.0710    7.1130 N.3   589  MET589     -0.1245
    167  CA       140.8950   83.1640    6.1530 C.3   589  MET589      0.1570
    168  C        139.7280   84.0810    6.5310 C.2   589  MET589      0.2261
    169  O        139.7870   85.2960    6.2930 O.2   589  MET589     -0.2867
    170  CB       140.7210   82.6230    4.7380 C.3   589  MET589      0.0387
    171  CG       141.9640   81.9890    4.1250 C.3   589  MET589      0.0595
    172  SD       143.4090   83.0520    4.0690 S.3   589  MET589     -0.1393
    173  CE       144.2400   82.3770    5.4490 C.3   589  MET589      0.0692
    174  N        141.2990   86.2790    9.0620 N.3   592  VAL592     -0.1245
    175  CA       142.1680   87.2910    8.4400 C.3   592  VAL592      0.1561
    176  C        141.3440   88.5030    8.0210 C.2   592  VAL592      0.2260
    177  O        141.7600   89.6580    8.1890 O.2   592  VAL592     -0.2867
    178  CB       142.9120   86.7170    7.2220 C.3   592  VAL592      0.0252
    179  CG1      143.4500   87.8420    6.3330 C.3   592  VAL592      0.0019
    180  CG2      144.0250   85.7730    7.6540 C.3   592  VAL592      0.0019
    181  N        140.4750   90.4120   10.9680 N.3   595  TRP595     -0.1241
    182  CA       141.6790   91.1110   11.3880 C.3   595  TRP595      0.1605
    183  C        141.8700   92.4210   10.6100 C.2   595  TRP595      0.2264
    184  O        142.1960   93.4500   11.1940 O.2   595  TRP595     -0.2867
    185  CB       142.8760   90.1920   11.2440 C.3   595  TRP595      0.0550
    186  CG       144.0170   90.8130   11.9520 C.ar  595  TRP595      0.0003
    187  CD1      145.0130   91.5630   11.4050 C.ar  595  TRP595      0.0946
    188  CD2      144.2260   90.8170   13.3640 C.ar  595  TRP595      0.0152
    189  NE1      145.8490   92.0180   12.3940 N.ar  595  TRP595     -0.2442
    190  CE2      145.3980   91.5660   13.6080 C.ar  595  TRP595      0.0810
    191  CE3      143.5510   90.2480   14.4410 C.ar  595  TRP595      0.0012
    192  CZ2      145.8750   91.7910   14.8780 C.ar  595  TRP595      0.0191
    193  CZ3      144.0280   90.4620   15.7070 C.ar  595  TRP595      0.0001
    194  CH2      145.1890   91.2230   15.9220 C.ar  595  TRP595      0.0015
    195  N        142.2290   96.2980   12.1160 N.3   599  MET599     -0.1245
    196  CA       143.3860   97.1450   11.8400 C.3   599  MET599      0.1570
    197  C        143.0210   98.5820   11.5080 C.2   599  MET599      0.2261
    198  O        143.8970   99.4640   11.5930 O.2   599  MET599     -0.2867
    199  CB       144.1950   96.5560   10.6930 C.3   599  MET599      0.0387
    200  CG       144.9930   95.3310   11.0970 C.3   599  MET599      0.0595
    201  SD       146.1800   95.5310   12.4730 S.3   599  MET599     -0.1393
    202  CE       147.5540   96.3080   11.6030 C.3   599  MET599      0.0692
@<TRIPOS>BOND
     1   142   141    2
     2   158   159    1
     3   141   143   am
     4   141   140    1
     5   149   150    1
     6   150   151    1
     7   159   160    1
     8   159   162    1
     9   140   139    1
    10   152   151    2
    11   139   136    1
    12   136   135    1
    13   136   137    1
    14   161   160    2
    15   163   162    1
    16   163   165    1
    17   151   153   am
    18   138   137    2
    19   137   144   am
    20   162   164    1
    21   153   154    1
    22   155   156    2
    23   155   154    1
    24   144   145    1
    25   154   157    1
    26   123   125   ar
    27   123   122   ar
    28   125   126   ar
    29   117   118    1
    30   147   146    2
    31   120   119    2
    32   146   145    1
    33   118   119    1
    34   118   121    1
    35   145   148    1
    36    64    62   ar
    37    64    63   ar
    38   119   127   am
    39    62    60   ar
    40   129   130    2
    41   129   128    1
    42   122   121    1
    43   122   124   ar
    44   126   124   ar
    45    63    61   ar
    46    60    59   ar
    47    60    58   ar
    48    59    57   ar
    49   108   107    2
    50   127   128    1
    51    61    58   ar
    52    58    56   ar
    53   172   171    1
    54   172   173    1
    55   171   170    1
    56    57    56   ar
    57   128   131    1
    58   107   106    1
    59    56    55    1
    60   170   167    1
    61    55    52    1
    62   131   132    1
    63   106   105    1
    64   106   109    1
    65   167   168    1
    66   167   166    1
    67   169   168    2
    68   179   178    1
    69   109   110    1
    70    52    53    1
    71    52    51    1
    72    54    53    2
    73   132   133    1
    74    76    78   ar
    75    76    74   ar
    76    78    77   ar
    77   134   133    1
    78   178   180    1
    79   178   175    1
    80   110   112   ar
    81   110   111   ar
    82    74    73   ar
    83    74    72   ar
    84    77    75   ar
    85   112   114   ar
    86   176   177    2
    87   176   175    1
    88    73    71   ar
    89   175   174    1
    90   111   113   ar
    91    72    75   ar
    92    72    70   ar
    93    50    49   ar
    94    50    48   ar
    95   114   115   ar
    96    71    70   ar
    97    49    47   ar
    98    48    46   ar
    99    70    69    1
   100   113   115   ar
   101   115   116    1
   102    47    46   ar
   103    46    45    1
   104   183   184    2
   105   183   182    1
   106   199   200    1
   107   199   196    1
   108   181   182    1
   109   200   201    1
   110    42    41    1
   111    42    45    1
   112    42    43    1
   113    69    66    1
   114   185   182    1
   115   185   186    1
   116   187   186   ar
   117   187   189   ar
   118   197   198    2
   119   197   196    1
   120   202   201    1
   121   196   195    1
   122    32    30   ar
   123    32    31   ar
   124   186   188   ar
   125    43    44    2
   126    66    65    1
   127    66    67    1
   128    30    28   ar
   129   189   190   ar
   130    82    81    2
   131    31    29   ar
   132    79    67   am
   133    79    80    1
   134    67    68    2
   135   188   190   ar
   136   188   191   ar
   137    28    27   ar
   138   190   192   ar
   139    83    80    1
   140    81    80    1
   141    81    84   am
   142    29    27   ar
   143    90    84    1
   144    90    89    1
   145   191   193   ar
   146    27    26    1
   147   192   194   ar
   148    84    85    1
   149    40    38    1
   150    89    88    1
   151   193   194   ar
   152    25    24    2
   153    26    23    1
   154    85    88    1
   155    85    86    1
   156    24    23    1
   157    24    33   am
   158    23    22    1
   159    38    37    1
   160    34    33    1
   161    34    37    1
   162    34    35    1
   163    86    87    1
   164    36    35    2
   165    37    39    1
   166   104   103   ar
   167   104   102   ar
   168   103   101   ar
   169   102   100   ar
   170     8     6   am
   171    19    20    1
   172    19    18    1
   173    20    21    1
   174    12    11    2
   175   101    98   ar
   176    17    16    2
   177     7     6    2
   178    15    18    1
   179    15    16    1
   180    15    14    1
   181     6     5    1
   182   100    98   ar
   183   100    99   ar
   184    13    10    1
   185    98    96   ar
   186    11    14   am
   187    11    10    1
   188    99    97   ar
   189     5     2    1
   190    96    97   ar
   191    96    95    1
   192    10     9    1
   193     4     3    2
   194    95    92    1
   195     2     3    1
   196     2     1    1
   197    94    93    2
   198    92    93    1
   199    92    91    1
