@<TRIPOS>MOLECULE
tmp/5v8kA17.pdb
 174 169 0 0 0
SMALL
GASTEIGER

@<TRIPOS>ATOM
      1  N        159.5790   84.1270   19.6560 N.3    35  MET35      -0.1245
      2  CA       158.6110   85.0400   19.0640 C.3    35  MET35       0.1570
      3  C        158.7600   86.4360   19.6410 C.2    35  MET35       0.2261
      4  O        158.6690   87.4200   18.9070 O.2    35  MET35      -0.2867
      5  CB       157.1930   84.5290   19.2880 C.3    35  MET35       0.0387
      6  CG       156.0890   85.4500   18.7250 C.3    35  MET35       0.0595
      7  SD       154.5480   84.5430   18.7260 S.3    35  MET35      -0.1393
      8  CE       153.2940   85.8720   18.8130 C.3    35  MET35       0.0692
      9  N        150.8930   94.8420   13.0170 N.3    56  ALA56      -0.1231
     10  CA       150.3920   93.9110   13.9960 C.3    56  ALA56       0.1679
     11  C        151.3160   92.7240   13.9870 C.2    56  ALA56       0.2431
     12  O        151.7880   92.3510   12.9120 O.2    56  ALA56      -0.2733
     13  CB       148.9450   93.5050   13.7060 C.3    56  ALA56       0.0304
     14  N        151.2020   91.9340   15.0380 N.am   57  PRO57      -0.2774
     15  CA       151.5140   91.7980   16.4520 C.3    57  PRO57       0.1083
     16  C        152.5310   92.7820   17.0530 C.3    57  PRO57       0.2017
     17  O        152.4070   92.9530   18.2670 O.3    57  PRO57      -0.2186
     18  CB       151.9880   90.3250   16.5690 C.3    57  PRO57       0.0243
     19  CG       152.0890   89.8220   15.2590 C.3    57  PRO57       0.0233
     20  CD       151.9930   90.9150   14.3270 C.3    57  PRO57       0.0935
     21  N        151.4000   95.3920   19.7300 N.3    60  MET60      -0.1230
     22  CA       150.9390   94.9780   21.0530 C.3    60  MET60       0.1702
     23  C        152.1200   94.7630   21.9870 C.2    60  MET60       0.2592
     24  O        152.0480   95.0730   23.1790 O.2    60  MET60      -0.2718
     25  CB       150.0710   93.7030   20.9750 C.3    60  MET60       0.0401
     26  CG       148.6570   93.9750   20.5310 C.3    60  MET60       0.0596
     27  SD       147.6620   92.4970   20.5790 S.3    60  MET60      -0.1393
     28  CE       148.1650   91.7040   19.0330 C.3    60  MET60       0.0692
     29  N        153.2100   94.2350   21.4530 N.am   61  PHE61      -0.1976
     30  CA       154.3870   93.9490   22.2700 C.3    61  PHE61       0.1639
     31  C        155.1260   95.2340   22.6410 C.2    61  PHE61       0.2290
     32  O        155.7040   95.3350   23.7350 O.2    61  PHE61      -0.2864
     33  CB       155.3060   92.9820   21.5260 C.3    61  PHE61       0.0560
     34  CG       154.8260   91.5870   21.5540 C.ar   61  PHE61      -0.0200
     35  CD1      153.9700   91.1340   20.5790 C.ar   61  PHE61      -0.0042
     36  CD2      155.1800   90.7370   22.5700 C.ar   61  PHE61      -0.0042
     37  CE1      153.5010   89.8520   20.5960 C.ar   61  PHE61      -0.0003
     38  CE2      154.6890   89.4200   22.6110 C.ar   61  PHE61      -0.0003
     39  CZ       153.8570   88.9890   21.6390 C.ar   61  PHE61      -0.0000
     40  N        140.3160   82.4470   28.7330 N.3   215  PHE215     -0.1241
     41  CA       140.3000   83.3500   27.5870 C.3   215  PHE215      0.1605
     42  C        139.0530   84.2210   27.5780 C.2   215  PHE215      0.2264
     43  O        139.1250   85.4340   27.3270 O.2   215  PHE215     -0.2867
     44  CB       140.3630   82.5680   26.2710 C.3   215  PHE215      0.0534
     45  CG       141.7260   82.2400   25.7910 C.ar  215  PHE215     -0.0203
     46  CD1      142.5240   83.2270   25.2170 C.ar  215  PHE215     -0.0042
     47  CD2      142.1930   80.9410   25.8210 C.ar  215  PHE215     -0.0042
     48  CE1      143.7620   82.9290   24.7220 C.ar  215  PHE215     -0.0003
     49  CE2      143.4390   80.6290   25.3300 C.ar  215  PHE215     -0.0003
     50  CZ       144.2320   81.6120   24.7830 C.ar  215  PHE215     -0.0000
     51  N        142.3460   94.5680   18.9350 N.3   262  GLN262     -0.1231
     52  CA       143.1590   93.5280   18.2990 C.3   262  GLN262      0.1698
     53  C        143.4990   92.4250   19.2950 C.2   262  GLN262      0.2592
     54  O        143.3880   91.2320   18.9780 O.2   262  GLN262     -0.2718
     55  CB       144.4350   94.1150   17.7070 C.3   262  GLN262      0.0381
     56  CG       144.2100   94.8880   16.4250 C.3   262  GLN262      0.0905
     57  CD       145.4050   95.7770   16.0290 C.2   262  GLN262      0.2608
     58  OE1      146.5580   95.4440   16.2820 O.2   262  GLN262     -0.2717
     59  NE2      145.1210   96.8810   15.3780 N.am  262  GLN262     -0.0878
     60  N        143.8590   92.7980   20.5180 N.am  263  ALA263     -0.1980
     61  CA       144.1340   91.8010   21.5420 C.3   263  ALA263      0.1597
     62  C        142.8880   90.9940   21.8720 C.2   263  ALA263      0.2287
     63  O        142.9580   89.7820   22.1150 O.2   263  ALA263     -0.2864
     64  CB       144.6480   92.4690   22.7980 C.3   263  ALA263      0.0319
     65  N        140.2890   90.3540   19.8820 N.3   265  LEU265     -0.1231
     66  CA       139.9750   89.4320   18.8150 C.3   265  LEU265      0.1693
     67  C        140.8930   88.2290   18.8680 C.2   265  LEU265      0.2593
     68  O        140.4300   87.0970   18.7170 O.2   265  LEU265     -0.2718
     69  CB       140.0310   90.1310   17.4650 C.3   265  LEU265      0.0284
     70  CG       139.6770   89.2540   16.2560 C.3   265  LEU265      0.0019
     71  CD1      138.2330   88.6250   16.3560 C.3   265  LEU265      0.0001
     72  CD2      139.8170   90.0510   15.0060 C.3   265  LEU265      0.0001
     73  N        142.1880   88.4480   19.1490 N.am  266  GLY266     -0.1942
     74  CA       143.0950   87.3280   19.3230 C.3   266  GLY266      0.2014
     75  C        142.6750   86.3770   20.4230 C.2   266  GLY266      0.2638
     76  O        142.7300   85.1590   20.2470 O.2   266  GLY266     -0.2714
     77  N        142.2320   86.9080   21.5610 N.am  267  HIS267     -0.1973
     78  CA       141.8840   86.0420   22.6880 C.3   267  HIS267      0.1656
     79  C        140.5090   85.3920   22.5220 C.2   267  HIS267      0.2291
     80  O        140.2970   84.2820   23.0110 O.2   267  HIS267     -0.2864
     81  CB       141.9530   86.8190   23.9930 C.3   267  HIS267      0.0771
     82  CG       143.3580   87.1090   24.4170 C.ar  267  HIS267      0.0820
     83  ND1      144.1070   88.1190   23.8580 N.ar  267  HIS267     -0.2267
     84  CD2      144.1800   86.4670   25.2820 C.ar  267  HIS267      0.1154
     85  CE1      145.3210   88.1110   24.3870 C.ar  267  HIS267      0.1986
     86  NE2      145.3940   87.1060   25.2350 N.ar  267  HIS267     -0.2212
     87  N        139.2990   84.4540   19.5580 N.3   269  VAL269     -0.1231
     88  CA       139.5150   83.4190   18.5710 C.3   269  VAL269      0.1692
     89  C        140.2810   82.2060   19.1960 C.2   269  VAL269      0.2591
     90  O        139.9110   81.0600   19.0680 O.2   269  VAL269     -0.2718
     91  CB       140.2610   83.8720   17.2840 C.3   269  VAL269      0.0266
     92  CG1      140.5950   82.6990   16.3960 C.3   269  VAL269      0.0020
     93  CG2      139.5220   84.9730   16.5410 C.3   269  VAL269      0.0020
     94  N        141.3330   82.4980   19.9400 N.am  270  MET270     -0.1979
     95  CA       142.1500   81.4330   20.5320 C.3   270  MET270      0.1605
     96  C        141.3270   80.6860   21.5920 C.2   270  MET270      0.2287
     97  O        141.4900   79.5200   21.8170 O.2   270  MET270     -0.2864
     98  CB       143.4930   81.9060   21.1720 C.3   270  MET270      0.0413
     99  CG       144.5190   82.4420   20.2100 C.3   270  MET270      0.0598
    100  SD       145.2340   81.1150   19.2680 S.3   270  MET270     -0.1393
    101  CE       146.8910   81.6700   19.0470 C.3   270  MET270      0.0692
    102  N        141.8610   82.4350   -1.1810 N.3   531  ILE531     -0.1245
    103  CA       142.1430   81.1650   -0.5110 C.3   531  ILE531      0.1561
    104  C        140.8590   80.5530    0.0410 C.2   531  ILE531      0.2260
    105  O        140.6320   79.3330   -0.0640 O.2   531  ILE531     -0.2867
    106  CB       143.2180   81.3590    0.5740 C.3   531  ILE531      0.0252
    107  CG1      144.5480   81.7870   -0.0500 C.3   531  ILE531      0.0019
    108  CG2      143.4820   80.0560    1.3480 C.3   531  ILE531      0.0019
    109  CD1      145.6240   82.1010    0.9670 C.3   531  ILE531      0.0001
    110  N        140.6590   74.2800    8.3530 N.3   584  PHE584     -0.1227
    111  CA       141.6670   75.1830    8.8970 C.3   584  PHE584      0.1736
    112  C        141.7190   76.4900    8.1090 C.2   584  PHE584      0.2595
    113  O        141.6590   77.5770    8.6880 O.2   584  PHE584     -0.2718
    114  CB       143.0580   74.5220    8.9060 C.3   584  PHE584      0.0547
    115  CG       144.1240   75.4560    9.3330 C.ar  584  PHE584     -0.0202
    116  CD1      144.3140   75.7150   10.6790 C.ar  584  PHE584     -0.0042
    117  CD2      144.8730   76.1450    8.4100 C.ar  584  PHE584     -0.0042
    118  CE1      145.2640   76.5970   11.1050 C.ar  584  PHE584     -0.0003
    119  CE2      145.8400   77.0500    8.8420 C.ar  584  PHE584     -0.0003
    120  CZ       146.0240   77.2630   10.2050 C.ar  584  PHE584     -0.0000
    121  N        141.8350   76.4020    6.7840 N.am  585  LEU585     -0.1980
    122  CA       141.9550   77.5940    5.9600 C.3   585  LEU585      0.1596
    123  C        140.6500   78.3820    5.8170 C.2   585  LEU585      0.2287
    124  O        140.6960   79.6060    5.6540 O.2   585  LEU585     -0.2864
    125  CB       142.4810   77.2150    4.5810 C.3   585  LEU585      0.0297
    126  CG       143.9360   76.7890    4.5020 C.3   585  LEU585      0.0022
    127  CD1      144.2380   76.3720    3.0720 C.3   585  LEU585      0.0001
    128  CD2      144.9020   77.9130    4.9420 C.3   585  LEU585      0.0001
    129  N        140.5120   80.2440    9.2100 N.3   588  LYS588     -0.1231
    130  CA       141.5470   81.2560    9.3800 C.3   588  LYS588      0.1693
    131  C        141.4400   82.3730    8.3530 C.2   588  LYS588      0.2591
    132  O        141.7590   83.5200    8.6610 O.2   588  LYS588     -0.2718
    133  CB       142.9370   80.6220    9.3320 C.3   588  LYS588      0.0285
    134  CG       143.3130   79.9310   10.6460 C.3   588  LYS588      0.0035
    135  CD       143.2940   80.9410   11.8270 C.3   588  LYS588      0.0206
    136  CE       143.7420   80.3720   13.1630 C.3   588  LYS588      0.1093
    137  NZ       143.8010   81.5420   14.1550 N.3   588  LYS588     -0.1314
    138  N        141.0580   82.0710    7.1130 N.am  589  MET589     -0.1979
    139  CA       140.8950   83.1640    6.1530 C.3   589  MET589      0.1605
    140  C        139.7280   84.0810    6.5310 C.2   589  MET589      0.2287
    141  O        139.7870   85.2960    6.2930 O.2   589  MET589     -0.2864
    142  CB       140.7210   82.6230    4.7380 C.3   589  MET589      0.0413
    143  CG       141.9640   81.9890    4.1250 C.3   589  MET589      0.0598
    144  SD       143.4090   83.0520    4.0690 S.3   589  MET589     -0.1393
    145  CE       144.2400   82.3770    5.4490 C.3   589  MET589      0.0692
    146  N        139.0330   84.6990    9.6720 N.3   591  ILE591     -0.1231
    147  CA       139.6560   85.4760   10.7370 C.3   591  ILE591      0.1692
    148  C        140.5890   86.5630   10.1650 C.2   591  ILE591      0.2591
    149  O        140.6650   87.6700   10.7100 O.2   591  ILE591     -0.2718
    150  CB       140.3920   84.5370   11.7190 C.3   591  ILE591      0.0266
    151  CG1      139.4400   83.5560   12.4060 C.3   591  ILE591      0.0019
    152  CG2      141.0980   85.3510   12.8040 C.3   591  ILE591      0.0020
    153  CD1      138.1580   84.1360   12.9060 C.3   591  ILE591      0.0001
    154  N        141.2990   86.2790    9.0620 N.am  592  VAL592     -0.1980
    155  CA       142.1680   87.2910    8.4400 C.3   592  VAL592      0.1595
    156  C        141.3440   88.5030    8.0210 C.2   592  VAL592      0.2287
    157  O        141.7600   89.6580    8.1890 O.2   592  VAL592     -0.2864
    158  CB       142.9120   86.7170    7.2220 C.3   592  VAL592      0.0276
    159  CG1      143.4500   87.8420    6.3330 C.3   592  VAL592      0.0022
    160  CG2      144.0250   85.7730    7.6540 C.3   592  VAL592      0.0022
    161  N        140.4750   90.4120   10.9680 N.3   595  TRP595     -0.1241
    162  CA       141.6790   91.1110   11.3880 C.3   595  TRP595      0.1605
    163  C        141.8700   92.4210   10.6100 C.2   595  TRP595      0.2264
    164  O        142.1960   93.4500   11.1940 O.2   595  TRP595     -0.2867
    165  CB       142.8760   90.1920   11.2440 C.3   595  TRP595      0.0550
    166  CG       144.0170   90.8130   11.9520 C.ar  595  TRP595      0.0003
    167  CD1      145.0130   91.5630   11.4050 C.ar  595  TRP595      0.0946
    168  CD2      144.2260   90.8170   13.3640 C.ar  595  TRP595      0.0152
    169  NE1      145.8490   92.0180   12.3940 N.ar  595  TRP595     -0.2442
    170  CE2      145.3980   91.5660   13.6080 C.ar  595  TRP595      0.0810
    171  CE3      143.5510   90.2480   14.4410 C.ar  595  TRP595      0.0012
    172  CZ2      145.8750   91.7910   14.8780 C.ar  595  TRP595      0.0191
    173  CZ3      144.0280   90.4620   15.7070 C.ar  595  TRP595      0.0001
    174  CH2      145.1890   91.2230   15.9220 C.ar  595  TRP595      0.0015
@<TRIPOS>BOND
     1   102   103    1
     2   103   104    1
     3   103   106    1
     4   105   104    2
     5   107   106    1
     6   107   109    1
     7   106   108    1
     8   127   126    1
     9   144   143    1
    10   144   145    1
    11   143   142    1
    12   126   125    1
    13   126   128    1
    14   125   122    1
    15   142   139    1
    16   124   123    2
    17   123   122    1
    18   122   121    1
    19   139   140    1
    20   139   138    1
    21   141   140    2
    22   159   158    1
    23   121   112   am
    24   138   131   am
    25   158   160    1
    26   158   155    1
    27   156   157    2
    28   156   155    1
    29   112   113    2
    30   112   111    1
    31   131   132    2
    32   131   130    1
    33   110   111    1
    34   117   119   ar
    35   117   115   ar
    36   155   154    1
    37   119   120   ar
    38   111   114    1
    39   114   115    1
    40   154   148   am
    41   129   130    1
    42   133   130    1
    43   133   134    1
    44   115   116   ar
    45   146   147    1
    46   148   149    2
    47   148   147    1
    48   120   118   ar
    49   163   164    2
    50   163   162    1
    51   134   135    1
    52   116   118   ar
    53   147   150    1
    54   161   162    1
    55   165   162    1
    56   165   166    1
    57   167   166   ar
    58   167   169   ar
    59   150   151    1
    60   150   152    1
    61   135   136    1
    62   166   168   ar
    63   169   170   ar
    64   151   153    1
    65    12    11    2
    66     9    10    1
    67   136   137    1
    68   168   170   ar
    69   168   171   ar
    70   170   172   ar
    71    13    10    1
    72    11    10    1
    73    11    14   am
    74    20    14    1
    75    20    19    1
    76   171   173   ar
    77   172   174   ar
    78    72    70    1
    79    14    15    1
    80    19    18    1
    81    59    57   am
    82   173   174   ar
    83    57    58    2
    84    57    56    1
    85    70    71    1
    86    70    69    1
    87    92    91    1
    88    56    55    1
    89    15    18    1
    90    15    16    1
    91    93    91    1
    92    16    17    1
    93    91    88    1
    94    69    66    1
    95    55    52    1
    96    52    51    1
    97    52    53    1
    98    88    89    1
    99    88    87    1
   100    68    67    2
   101     6     7    1
   102     6     5    1
   103     7     8    1
   104    66    67    1
   105    66    65    1
   106    67    73   am
   107     4     3    2
   108    54    53    2
   109    28    27    1
   110   101   100    1
   111     2     5    1
   112     2     3    1
   113     2     1    1
   114    90    89    2
   115    73    74    1
   116    89    94   am
   117   100    99    1
   118    53    60   am
   119    74    75    1
   120    21    22    1
   121    94    95    1
   122    99    98    1
   123    76    75    2
   124    75    77   am
   125    60    61    1
   126    26    27    1
   127    26    25    1
   128    95    98    1
   129    95    96    1
   130    35    37   ar
   131    35    34   ar
   132    37    39   ar
   133    25    22    1
   134    22    23    1
   135    29    23   am
   136    29    30    1
   137    33    34    1
   138    33    30    1
   139    61    62    1
   140    61    64    1
   141    34    36   ar
   142    77    78    1
   143    96    97    2
   144    39    38   ar
   145    62    63    2
   146    23    24    2
   147    30    31    1
   148    79    78    1
   149    79    80    2
   150    36    38   ar
   151    31    32    2
   152    78    81    1
   153    83    85   ar
   154    83    82   ar
   155    81    82    1
   156    85    86   ar
   157    82    84   ar
   158    48    50   ar
   159    48    46   ar
   160    50    49   ar
   161    46    45   ar
   162    86    84   ar
   163    49    47   ar
   164    45    47   ar
   165    45    44    1
   166    44    41    1
   167    43    42    2
   168    42    41    1
   169    41    40    1
