@<TRIPOS>MOLECULE
tmp/5v8kA27.pdb
 93 89 0 0 0
SMALL
GASTEIGER

@<TRIPOS>ATOM
      1  N        161.3650   82.9570   21.4940 N.3    34  ALA34      -0.1245
      2  CA       161.8490   83.3700   20.1780 C.3    34  ALA34       0.1562
      3  C        160.8870   84.3470   19.4980 C.2    34  ALA34       0.2260
      4  O        161.3200   85.2870   18.8100 O.2    34  ALA34      -0.2867
      5  CB       162.0520   82.1440   19.2900 C.3    34  ALA34       0.0290
      6  N        161.5210   87.7660   20.8280 N.3    37  SER37      -0.1202
      7  CA       162.7370   88.3820   20.3030 C.3    37  SER37       0.2020
      8  C        162.5530   88.8050   18.8540 C.2    37  SER37       0.2618
      9  O        162.9960   89.8890   18.4670 O.2    37  SER37      -0.2717
     10  CB       163.9410   87.4400   20.4280 C.3    37  SER37       0.2103
     11  OG       163.9730   86.4670   19.3920 O.3    37  SER37      -0.2182
     12  N        161.8480   87.9890   18.0540 N.am   38  PHE38      -0.1975
     13  CA       161.6520   88.3180   16.6470 C.3    38  PHE38       0.1639
     14  C        160.8100   89.5870   16.4930 C.2    38  PHE38       0.2290
     15  O        161.1680   90.5060   15.7400 O.2    38  PHE38      -0.2864
     16  CB       160.9900   87.1420   15.9280 C.3    38  PHE38       0.0560
     17  CG       160.5610   87.4510   14.5270 C.ar   38  PHE38      -0.0200
     18  CD1      161.4880   87.5180   13.5190 C.ar   38  PHE38      -0.0042
     19  CD2      159.2430   87.6850   14.2270 C.ar   38  PHE38      -0.0042
     20  CE1      161.1200   87.7930   12.2420 C.ar   38  PHE38      -0.0003
     21  CE2      158.8570   87.9750   12.9210 C.ar   38  PHE38      -0.0003
     22  CZ       159.8050   88.0360   11.9350 C.ar   38  PHE38      -0.0000
     23  N        161.9510   93.2760   16.8740 N.3    41  VAL41      -0.1231
     24  CA       163.0190   93.6860   15.9720 C.3    41  VAL41       0.1692
     25  C        162.5510   93.7640   14.5250 C.2    41  VAL41       0.2592
     26  O        162.9380   94.6800   13.8000 O.2    41  VAL41      -0.2718
     27  CB       164.2280   92.7320   16.0940 C.3    41  VAL41       0.0266
     28  CG1      165.2740   93.0280   15.0180 C.3    41  VAL41       0.0020
     29  CG2      164.8550   92.8830   17.4600 C.3    41  VAL41       0.0020
     30  N        161.7630   92.7940   14.0730 N.am   42  HIS42      -0.1976
     31  CA       161.3230   92.6960   12.6920 C.3    42  HIS42       0.1656
     32  C        159.8120   92.9260   12.6050 C.2    42  HIS42       0.2291
     33  O        159.0960   92.8580   13.6000 O.2    42  HIS42      -0.2864
     34  CB       161.6810   91.3250   12.1220 C.3    42  HIS42       0.0771
     35  CG       163.1370   91.0540   12.1000 C.ar   42  HIS42       0.0820
     36  ND1      163.9830   91.6290   11.1790 N.ar   42  HIS42      -0.2267
     37  CD2      163.9090   90.2820   12.8930 C.ar   42  HIS42       0.1154
     38  CE1      165.2170   91.2240   11.4070 C.ar   42  HIS42       0.1986
     39  NE2      165.2000   90.4150   12.4460 N.ar   42  HIS42      -0.2212
     40  N        162.9020   99.9140   18.1260 N.3    75  LEU75      -0.1245
     41  CA       164.3010   99.5090   18.1240 C.3    75  LEU75       0.1561
     42  C        165.1240  100.2880   19.1480 C.2    75  LEU75       0.2260
     43  O        166.3110  100.5240   18.9440 O.2    75  LEU75      -0.2867
     44  CB       164.9070   99.6500   16.7160 C.3    75  LEU75       0.0270
     45  CG       164.2080   98.8300   15.6130 C.3    75  LEU75       0.0019
     46  CD1      164.8690   99.1160   14.2660 C.3    75  LEU75       0.0001
     47  CD2      164.2730   97.3300   15.9080 C.3    75  LEU75       0.0001
     48  N        165.8950   96.4120   22.2110 N.3    80  LEU80      -0.1245
     49  CA       166.9200   95.4980   21.7090 C.3    80  LEU80       0.1561
     50  C        167.4870   94.6410   22.8320 C.2    80  LEU80       0.2260
     51  O        167.6930   93.4430   22.6550 O.2    80  LEU80      -0.2867
     52  CB       168.0330   96.2730   21.0010 C.3    80  LEU80       0.0270
     53  CG       167.6550   96.9910   19.7040 C.3    80  LEU80       0.0019
     54  CD1      168.8740   97.7150   19.1730 C.3    80  LEU80       0.0001
     55  CD2      167.1700   96.0280   18.6740 C.3    80  LEU80       0.0001
     56  N        164.9530   92.0520   23.4220 N.3    83  ALA83      -0.1231
     57  CA       164.8320   91.0920   22.3330 C.3    83  ALA83       0.1694
     58  C        166.0170   90.1340   22.3060 C.2    83  ALA83       0.2591
     59  O        165.8390   88.9330   22.0780 O.2    83  ALA83      -0.2718
     60  CB       164.7010   91.8240   21.0040 C.3    83  ALA83       0.0304
     61  N        167.2280   90.6390   22.5650 N.am   84  ARG84      -0.1980
     62  CA       168.4300   89.8150   22.4860 C.3    84  ARG84       0.1597
     63  C        168.5280   88.8470   23.6500 C.2    84  ARG84       0.2287
     64  O        169.0160   87.7270   23.4870 O.2    84  ARG84      -0.2864
     65  CB       169.6600   90.7060   22.4440 C.3    84  ARG84       0.0334
     66  CG       169.8110   91.4360   21.1570 C.3    84  ARG84       0.0492
     67  CD       170.8210   92.5920   21.2880 C.3    84  ARG84       0.2205
     68  NE       170.7840   93.3330   20.0440 N.pl3  84  ARG84      -0.0865
     69  CZ       171.4270   94.4630   19.8140 C.cat  84  ARG84       0.5346
     70  NH1      172.1610   94.9990   20.7610 N.pl3  84  ARG84       0.1354
     71  NH2      171.3070   95.0520   18.6380 N.pl3  84  ARG84       0.1354
     72  N        166.1880   86.0140   22.7900 N.3    87  LEU87      -0.1245
     73  CA       166.7970   85.1610   21.7820 C.3    87  LEU87       0.1561
     74  C        167.8060   84.2190   22.4230 C.2    87  LEU87       0.2260
     75  O        167.8260   83.0200   22.1260 O.2    87  LEU87      -0.2867
     76  CB       167.4720   86.0010   20.7040 C.3    87  LEU87       0.0270
     77  CG       168.1400   85.1840   19.5990 C.3    87  LEU87       0.0019
     78  CD1      167.1410   84.3660   18.8110 C.3    87  LEU87       0.0001
     79  CD2      168.8550   86.1020   18.6680 C.3    87  LEU87       0.0001
     80  N        166.1090   75.7130   23.0490 N.3    94  TRP94      -0.1241
     81  CA       166.1230   74.8040   21.9050 C.3    94  TRP94       0.1605
     82  C        167.3550   73.9020   21.9310 C.2    94  TRP94       0.2264
     83  O        167.3060   72.7600   21.4540 O.2    94  TRP94      -0.2867
     84  CB       166.1080   75.5790   20.5950 C.3    94  TRP94       0.0550
     85  CG       164.8130   76.1890   20.1700 C.ar   94  TRP94       0.0003
     86  CD1      163.5390   75.7320   20.4150 C.ar   94  TRP94       0.0946
     87  CD2      164.6720   77.3740   19.3970 C.ar   94  TRP94       0.0152
     88  NE1      162.6200   76.5590   19.8270 N.ar   94  TRP94      -0.2442
     89  CE2      163.2880   77.5850   19.2020 C.ar   94  TRP94       0.0810
     90  CE3      165.5820   78.2770   18.8360 C.ar   94  TRP94       0.0012
     91  CZ2      162.8020   78.6770   18.4820 C.ar   94  TRP94       0.0191
     92  CZ3      165.0950   79.3540   18.1190 C.ar   94  TRP94       0.0001
     93  CH2      163.7320   79.5450   17.9450 C.ar   94  TRP94       0.0015
@<TRIPOS>BOND
     1    36    38   ar
     2    36    35   ar
     3    38    39   ar
     4    22    20   ar
     5    22    21   ar
     6    35    34    1
     7    35    37   ar
     8    34    31    1
     9    20    18   ar
    10    39    37   ar
    11    32    31    1
    12    32    33    2
    13    31    30    1
    14    21    19   ar
    15    18    17   ar
    16    26    25    2
    17    30    25   am
    18    19    17   ar
    19    46    45    1
    20    25    24    1
    21    17    16    1
    22    28    27    1
    23    45    47    1
    24    45    44    1
    25    15    14    2
    26    16    13    1
    27    24    27    1
    28    24    23    1
    29    27    29    1
    30    14    13    1
    31    13    12    1
    32    44    41    1
    33    93    92   ar
    34    93    91   ar
    35    12     8   am
    36    92    90   ar
    37    41    40    1
    38    41    42    1
    39     9     8    2
    40    91    89   ar
    41    71    69    1
    42    79    77    1
    43    55    53    1
    44     4     3    2
    45    78    77    1
    46    90    87   ar
    47     8     7    1
    48    43    42    2
    49    54    53    1
    50    89    87   ar
    51    89    88   ar
    52     5     2    1
    53    11    10    1
    54    87    85   ar
    55     3     2    1
    56    77    76    1
    57    53    52    1
    58    69    68    2
    59    69    70    1
    60    88    86   ar
    61    68    67    1
    62    85    86   ar
    63    85    84    1
    64     2     1    1
    65     7    10    1
    66     7     6    1
    67    84    81    1
    68    76    73    1
    69    52    49    1
    70    60    57    1
    71    66    67    1
    72    66    65    1
    73    83    82    2
    74    49    48    1
    75    49    50    1
    76    73    74    1
    77    73    72    1
    78    81    82    1
    79    81    80    1
    80    59    58    2
    81    75    74    2
    82    58    57    1
    83    58    61   am
    84    57    56    1
    85    65    62    1
    86    62    61    1
    87    62    63    1
    88    51    50    2
    89    64    63    2
