@<TRIPOS>MOLECULE
tmp/5v8kA23.pdb
 91 92 0 0 0
SMALL
GASTEIGER

@<TRIPOS>ATOM
      1  N        144.8290   94.3140    0.0670 N.3   523  GLN523     -0.1245
      2  CA       145.5750   93.1220   -0.3550 C.3   523  GLN523      0.1566
      3  C        145.2750   91.9310    0.5470 C.2   523  GLN523      0.2260
      4  O        145.0220   90.8290    0.0650 O.2   523  GLN523     -0.2867
      5  CB       147.0750   93.4210   -0.3940 C.3   523  GLN523      0.0367
      6  CG       147.9420   92.1500   -0.4920 C.3   523  GLN523      0.0905
      7  CD       149.2550   92.3600   -1.1500 C.2   523  GLN523      0.2608
      8  OE1      149.3960   93.2100   -2.0160 O.2   523  GLN523     -0.2717
      9  NE2      150.2300   91.5200   -0.7980 N.am  523  GLN523     -0.0878
     10  N        141.7170   90.6410   -0.3040 N.3   526  LEU526     -0.1231
     11  CA       141.6500   89.9600   -1.5860 C.3   526  LEU526      0.1693
     12  C        142.3410   88.6100   -1.5380 C.2   526  LEU526      0.2592
     13  O        141.8160   87.6270   -2.0650 O.2   526  LEU526     -0.2718
     14  CB       142.2730   90.8130   -2.6840 C.3   526  LEU526      0.0284
     15  CG       141.4800   92.0460   -3.1070 C.3   526  LEU526      0.0019
     16  CD1      142.3530   92.9020   -4.0040 C.3   526  LEU526      0.0001
     17  CD2      140.2800   91.6420   -3.8430 C.3   526  LEU526      0.0001
     18  N        143.5290   88.5370   -0.9350 N.am  527  GLY527     -0.1957
     19  CA       144.2210   87.2510   -0.8930 C.3   527  GLY527      0.1869
     20  C        143.4760   86.2390   -0.0340 C.2   527  GLY527      0.2309
     21  O        143.3310   85.0730   -0.4000 O.2   527  GLY527     -0.2863
     22  N        140.2490   86.1430    0.5400 N.3   529  HIS529     -0.1226
     23  CA       139.0400   85.7260   -0.1490 C.3   529  HIS529      0.1752
     24  C        139.3560   84.6380   -1.1720 C.2   529  HIS529      0.2596
     25  O        138.6030   83.6670   -1.3090 O.2   529  HIS529     -0.2718
     26  CB       138.3440   86.9160   -0.8400 C.3   529  HIS529      0.0759
     27  CG       137.5670   87.7910    0.0760 C.ar  529  HIS529      0.0818
     28  ND1      138.1160   88.3840    1.1920 N.ar  529  HIS529     -0.2268
     29  CD2      136.2750   88.1950    0.0360 C.ar  529  HIS529      0.1154
     30  CE1      137.1930   89.1070    1.8020 C.ar  529  HIS529      0.1986
     31  NE2      136.0750   89.0060    1.1180 N.ar  529  HIS529     -0.2212
     32  N        140.3940   84.8420   -1.9750 N.am  530  PHE530     -0.1962
     33  CA       140.8330   83.8190   -2.9250 C.3   530  PHE530      0.1771
     34  C        141.0510   82.4660   -2.2430 C.2   530  PHE530      0.2619
     35  O        140.5250   81.4440   -2.6860 O.2   530  PHE530     -0.2715
     36  CB       142.1130   84.2420   -3.6270 C.3   530  PHE530      0.0574
     37  CG       142.5350   83.2770   -4.7130 C.ar  530  PHE530     -0.0200
     38  CD1      141.9160   83.2890   -5.9460 C.ar  530  PHE530     -0.0042
     39  CD2      143.5070   82.3170   -4.4690 C.ar  530  PHE530     -0.0042
     40  CE1      142.2750   82.3830   -6.9330 C.ar  530  PHE530     -0.0003
     41  CE2      143.8710   81.4050   -5.4490 C.ar  530  PHE530     -0.0003
     42  CZ       143.2520   81.4490   -6.6910 C.ar  530  PHE530     -0.0000
     43  N        141.8610   82.4350   -1.1810 N.am  531  ILE531     -0.1963
     44  CA       142.1430   81.1650   -0.5110 C.3   531  ILE531      0.1727
     45  C        140.8590   80.5530    0.0410 C.2   531  ILE531      0.2616
     46  O        140.6320   79.3330   -0.0640 O.2   531  ILE531     -0.2715
     47  CB       143.2180   81.3590    0.5740 C.3   531  ILE531      0.0290
     48  CG1      144.5480   81.7870   -0.0500 C.3   531  ILE531      0.0022
     49  CG2      143.4820   80.0560    1.3480 C.3   531  ILE531      0.0023
     50  CD1      145.6240   82.1010    0.9670 C.3   531  ILE531      0.0001
     51  N        139.9900   81.3880    0.6200 N.am  532  TRP532     -0.1960
     52  CA       138.7240   80.8990    1.1650 C.3   532  TRP532      0.1771
     53  C        137.9050   80.2130    0.0800 C.2   532  TRP532      0.2619
     54  O        137.3890   79.1120    0.2690 O.2   532  TRP532     -0.2715
     55  CB       137.9640   82.0710    1.7660 C.3   532  TRP532      0.0590
     56  CG       136.6810   81.7890    2.4240 C.ar  532  TRP532      0.0006
     57  CD1      136.5080   81.3500    3.6860 C.ar  532  TRP532      0.0946
     58  CD2      135.3760   81.9620    1.8730 C.ar  532  TRP532      0.0152
     59  NE1      135.1730   81.2230    3.9710 N.ar  532  TRP532     -0.2442
     60  CE2      134.4530   81.5930    2.8670 C.ar  532  TRP532      0.0810
     61  CE3      134.8980   82.4200    0.6520 C.ar  532  TRP532      0.0012
     62  CZ2      133.0820   81.6940    2.6840 C.ar  532  TRP532      0.0191
     63  CZ3      133.5130   82.5320    0.4700 C.ar  532  TRP532      0.0001
     64  CH2      132.6320   82.1580    1.4680 C.ar  532  TRP532      0.0015
     65  N        137.7960   80.8540   -1.0790 N.am  533  ALA533     -0.1977
     66  CA       137.0930   80.2700   -2.2040 C.3   533  ALA533      0.1597
     67  C        137.6790   78.9160   -2.5780 C.2   533  ALA533      0.2287
     68  O        136.9480   77.9460   -2.8330 O.2   533  ALA533     -0.2864
     69  CB       137.1560   81.2300   -3.3870 C.3   533  ALA533      0.0319
     70  N        136.6290   75.5720   -1.0320 N.3   536  PHE536     -0.1241
     71  CA       135.4400   74.8710   -1.5090 C.3   536  PHE536      0.1605
     72  C        135.8290   73.6410   -2.3080 C.2   536  PHE536      0.2264
     73  O        135.1300   72.6240   -2.2720 O.2   536  PHE536     -0.2867
     74  CB       134.5520   75.7490   -2.4120 C.3   536  PHE536      0.0534
     75  CG       133.9800   76.9980   -1.7770 C.ar  536  PHE536     -0.0203
     76  CD1      134.2940   77.3780   -0.5070 C.ar  536  PHE536     -0.0042
     77  CD2      133.1160   77.8150   -2.5240 C.ar  536  PHE536     -0.0042
     78  CE1      133.7760   78.5570    0.0330 C.ar  536  PHE536     -0.0003
     79  CE2      132.5690   78.9820   -1.9950 C.ar  536  PHE536     -0.0003
     80  CZ       132.9130   79.3640   -0.7160 C.ar  536  PHE536     -0.0000
     81  N        133.8010   70.5980   -0.8140 N.3   540  PHE540     -0.1241
     82  CA       132.6690   70.0650   -1.5420 C.3   540  PHE540      0.1605
     83  C        132.8250   68.5670   -1.7920 C.2   540  PHE540      0.2264
     84  O        133.9300   68.0000   -1.7490 O.2   540  PHE540     -0.2867
     85  CB       132.5020   70.7550   -2.8980 C.3   540  PHE540      0.0534
     86  CG       131.8200   72.1100   -2.8440 C.ar  540  PHE540     -0.0203
     87  CD1      131.8680   72.8880   -1.7150 C.ar  540  PHE540     -0.0042
     88  CD2      131.1610   72.5900   -3.9500 C.ar  540  PHE540     -0.0042
     89  CE1      131.2820   74.1310   -1.6840 C.ar  540  PHE540     -0.0003
     90  CE2      130.5850   73.8330   -3.9580 C.ar  540  PHE540     -0.0003
     91  CZ       130.6180   74.6140   -2.8270 C.ar  540  PHE540     -0.0000
@<TRIPOS>BOND
     1    40    42   ar
     2    40    38   ar
     3    42    41   ar
     4    38    37   ar
     5    41    39   ar
     6    37    39   ar
     7    37    36    1
     8    16    15    1
     9    90    88   ar
    10    90    91   ar
    11    88    86   ar
    12    17    15    1
    13    36    33    1
    14    69    66    1
    15    15    14    1
    16    33    34    1
    17    33    32    1
    18    85    86    1
    19    85    82    1
    20    86    87   ar
    21    68    67    2
    22    91    89   ar
    23    35    34    2
    24    14    11    1
    25    67    66    1
    26    77    79   ar
    27    77    75   ar
    28    74    75    1
    29    74    71    1
    30    72    73    2
    31    72    71    1
    32    34    43   am
    33    66    65    1
    34    13    12    2
    35     8     7    2
    36    79    80   ar
    37    32    24   am
    38    83    84    2
    39    83    82    1
    40    75    76   ar
    41    87    89   ar
    42    11    12    1
    43    11    10    1
    44    82    81    1
    45    12    18   am
    46    71    70    1
    47    25    24    2
    48    43    44    1
    49    24    23    1
    50     7     9   am
    51     7     6    1
    52    65    53   am
    53    18    19    1
    54    19    20    1
    55    26    23    1
    56    26    27    1
    57    80    78   ar
    58    44    45    1
    59    44    47    1
    60    76    78   ar
    61     6     5    1
    62    21    20    2
    63     5     2    1
    64     2     1    1
    65     2     3    1
    66    23    22    1
    67    46    45    2
    68    48    47    1
    69    48    50    1
    70    29    27   ar
    71    29    31   ar
    72    45    51   am
    73     4     3    2
    74    27    28   ar
    75    53    54    2
    76    53    52    1
    77    63    61   ar
    78    63    64   ar
    79    47    49    1
    80    51    52    1
    81    61    58   ar
    82    31    30   ar
    83    52    55    1
    84    28    30   ar
    85    64    62   ar
    86    55    56    1
    87    58    56   ar
    88    58    60   ar
    89    56    57   ar
    90    62    60   ar
    91    60    59   ar
    92    57    59   ar
