@<TRIPOS>MOLECULE
tmp/5v8oA00.pdb
 129 123 0 0 0
SMALL
GASTEIGER

@<TRIPOS>ATOM
      1  N         36.8630   -7.7140  -21.5270 N.3    66  MET66      -0.1245
      2  CA        36.2870   -6.4890  -22.0730 C.3    66  MET66       0.1570
      3  C         35.0480   -6.8540  -22.8400 C.2    66  MET66       0.2261
      4  O         35.0680   -7.7830  -23.6530 O.2    66  MET66      -0.2867
      5  CB        37.2730   -5.7950  -23.0100 C.3    66  MET66       0.0387
      6  CG        38.1230   -4.7510  -22.3320 C.3    66  MET66       0.0595
      7  SD        37.6260   -3.0680  -22.8130 S.3    66  MET66      -0.1393
      8  CE        39.1990   -2.4410  -23.4380 C.3    66  MET66       0.0692
      9  N         41.7100   13.0480  -23.4250 N.3    84  ALA84      -0.1231
     10  CA        41.3460   11.6410  -23.2760 C.3    84  ALA84       0.1694
     11  C         39.9450   11.4030  -22.8050 C.2    84  ALA84       0.2592
     12  O         39.4490   10.2920  -22.9900 O.2    84  ALA84      -0.2718
     13  CB        42.3000   10.9940  -22.2940 C.3    84  ALA84       0.0304
     14  N         39.3260   12.4000  -22.1410 N.am   85  TYR85      -0.1976
     15  CA        37.9870   12.2890  -21.5780 C.3    85  TYR85       0.1639
     16  C         37.0200   13.0290  -22.4510 C.2    85  TYR85       0.2290
     17  O         37.3260   14.1150  -22.9470 O.2    85  TYR85      -0.2864
     18  CB        37.9490   12.7790  -20.1230 C.3    85  TYR85       0.0560
     19  CG        38.8390   11.9430  -19.2260 C.ar   85  TYR85      -0.0198
     20  CD1       40.1950   12.2160  -19.1070 C.ar   85  TYR85      -0.0009
     21  CD2       38.3370   10.8380  -18.5480 C.ar   85  TYR85      -0.0009
     22  CE1       41.0170   11.4430  -18.2930 C.ar   85  TYR85       0.0417
     23  CE2       39.1460   10.0700  -17.7180 C.ar   85  TYR85       0.0417
     24  CZ        40.4950   10.3510  -17.6200 C.ar   85  TYR85       0.1957
     25  OH        41.3030    9.5900  -16.8030 O.3    85  TYR85      -0.2866
     26  N         36.5960    7.5700  -21.2650 N.3   205  ARG205     -0.1231
     27  CA        37.9850    7.6510  -21.6800 C.3   205  ARG205      0.1694
     28  C         38.2430    6.7790  -22.8990 C.2   205  ARG205      0.2592
     29  O         37.6630    5.7050  -23.0250 O.2   205  ARG205     -0.2718
     30  CB        38.8910    7.2430  -20.5170 C.3   205  ARG205      0.0321
     31  CG        40.3730    7.6070  -20.6750 C.3   205  ARG205      0.0489
     32  CD        41.1390    7.0610  -19.4830 C.3   205  ARG205      0.2205
     33  NE        41.1830    5.6020  -19.6060 N.pl3 205  ARG205     -0.0865
     34  CZ        41.3010    4.7180  -18.6190 C.cat 205  ARG205      0.5346
     35  NH1       41.2960    3.4150  -18.8840 N.pl3 205  ARG205      0.1354
     36  NH2       41.4360    5.1240  -17.3600 N.pl3 205  ARG205      0.1354
     37  N         39.1400    7.2270  -23.7700 N.am  206  LEU206     -0.1966
     38  CA        39.5100    6.4820  -24.9590 C.3   206  LEU206      0.1728
     39  C         40.2850    5.2270  -24.6060 C.2   206  LEU206      0.2617
     40  O         41.0800    5.2510  -23.6640 O.2   206  LEU206     -0.2715
     41  CB        40.3680    7.3390  -25.8740 C.3   206  LEU206      0.0311
     42  CG        39.6850    8.5200  -26.5080 C.3   206  LEU206      0.0022
     43  CD1       40.7240    9.5030  -27.0320 C.3   206  LEU206      0.0001
     44  CD2       38.7790    8.0700  -27.6360 C.3   206  LEU206      0.0001
     45  N         40.0610    4.1360  -25.3690 N.am  207  SER207     -0.1936
     46  CA        40.7710    2.8700  -25.1880 C.3   207  SER207      0.2055
     47  C         41.2290    2.3170  -26.5420 C.2   207  SER207      0.2643
     48  O         40.4700    2.3480  -27.5080 O.2   207  SER207     -0.2714
     49  CB        39.9050    1.8710  -24.4290 C.3   207  SER207      0.2130
     50  OG        40.5220    0.5980  -24.2830 O.3   207  SER207     -0.2179
     51  N         42.5030    1.8700  -26.6110 N.am  208  PHE208     -0.1959
     52  CA        43.1310    1.2730  -27.8040 C.3   208  PHE208      0.1771
     53  C         43.8320   -0.0370  -27.4320 C.2   208  PHE208      0.2620
     54  O         44.9060   -0.3490  -27.9410 O.2   208  PHE208     -0.2715
     55  CB        44.1160    2.2520  -28.4490 C.3   208  PHE208      0.0574
     56  CG        43.5060    3.5940  -28.7940 C.ar  208  PHE208     -0.0200
     57  CD1       42.7200    3.7450  -29.9240 C.ar  208  PHE208     -0.0042
     58  CD2       43.7070    4.6960  -27.9830 C.ar  208  PHE208     -0.0042
     59  CE1       42.1710    4.9690  -30.2430 C.ar  208  PHE208     -0.0003
     60  CE2       43.1580    5.9240  -28.3130 C.ar  208  PHE208     -0.0003
     61  CZ        42.3970    6.0530  -29.4420 C.ar  208  PHE208     -0.0000
     62  N         43.1890   -0.8040  -26.5410 N.am  209  SER209     -0.1950
     63  CA        43.6270   -2.1050  -26.0530 C.3   209  SER209      0.1924
     64  C         43.8800   -3.0780  -27.2000 C.2   209  SER209      0.2314
     65  O         44.8170   -3.8670  -27.1450 O.2   209  SER209     -0.2863
     66  CB        42.5350   -2.6850  -25.1610 C.3   209  SER209      0.2116
     67  OG        41.3220   -2.8210  -25.8930 O.3   209  SER209     -0.2180
     68  N         47.1450   -2.1530  -29.0580 N.3   212  GLU212     -0.1245
     69  CA        48.2720   -2.5370  -28.2020 C.3   212  GLU212      0.1567
     70  C         48.5820   -4.0340  -28.3390 C.2   212  GLU212      0.2260
     71  O         49.7460   -4.4250  -28.3300 O.2   212  GLU212     -0.2867
     72  CB        47.9550   -2.2150  -26.7450 C.3   212  GLU212      0.0388
     73  CG        47.9750   -0.7330  -26.4430 C.3   212  GLU212      0.1160
     74  CD        47.2750   -0.2980  -25.1720 C.2   212  GLU212      0.3649
     75  OE1       46.8660   -1.1740  -24.3760 O.co2 212  GLU212     -0.2457
     76  OE2       47.1360    0.9310  -24.9730 O.co2 212  GLU212     -0.2457
     77  N         50.2770    1.1350  -12.3940 N.3   263  SER263     -0.1217
     78  CA        49.6950   -0.0350  -13.0340 C.3   263  SER263      0.1889
     79  C         50.5760   -0.5380  -14.1450 C.2   263  SER263      0.2288
     80  O         51.4660    0.1740  -14.6170 O.2   263  SER263     -0.2866
     81  CB        48.3060    0.2990  -13.5800 C.3   263  SER263      0.2089
     82  OG        48.3180    0.8520  -14.8890 O.3   263  SER263     -0.2183
     83  N         49.7520   -0.6240  -17.0680 N.3   265  TYR265     -0.1241
     84  CA        49.5850    0.2970  -18.1970 C.3   265  TYR265      0.1605
     85  C         50.7110    1.3220  -18.2830 C.2   265  TYR265      0.2264
     86  O         51.1200    1.6770  -19.3880 O.2   265  TYR265     -0.2867
     87  CB        48.2350    1.0300  -18.1600 C.3   265  TYR265      0.0534
     88  CG        47.9160    1.6390  -19.4980 C.ar  265  TYR265     -0.0201
     89  CD1       47.6660    0.8400  -20.5970 C.ar  265  TYR265     -0.0009
     90  CD2       47.9650    3.0200  -19.6910 C.ar  265  TYR265     -0.0009
     91  CE1       47.4490    1.3870  -21.8520 C.ar  265  TYR265      0.0417
     92  CE2       47.7040    3.5890  -20.9420 C.ar  265  TYR265      0.0417
     93  CZ        47.4440    2.7670  -22.0240 C.ar  265  TYR265      0.1957
     94  OH        47.2270    3.3190  -23.2740 O.3   265  TYR265     -0.2866
     95  N         50.7440    9.2920  -22.8870 N.3   311  ASN311     -0.1240
     96  CA        49.9390    8.2100  -23.4590 C.3   311  ASN311      0.1653
     97  C         50.4380    7.9780  -24.8980 C.2   311  ASN311      0.2266
     98  O         50.6360    8.9390  -25.6480 O.2   311  ASN311     -0.2867
     99  CB        48.4430    8.5940  -23.4500 C.3   311  ASN311      0.1155
    100  CG        47.5410    7.5190  -23.9550 C.2   311  ASN311      0.2627
    101  OD1       47.4010    7.3280  -25.1550 O.2   311  ASN311     -0.2716
    102  ND2       46.9070    6.7960  -23.0650 N.am  311  ASN311     -0.0877
    103  N         47.6360    9.3210  -27.2360 N.3   314  ILE314     -0.1245
    104  CA        47.2490   10.7160  -26.9570 C.3   314  ILE314      0.1561
    105  C         48.4860   11.4400  -26.3740 C.2   314  ILE314      0.2260
    106  O         48.7040   11.4410  -25.1550 O.2   314  ILE314     -0.2867
    107  CB        46.0330   10.7310  -26.0000 C.3   314  ILE314      0.0252
    108  CG1       44.8810    9.8660  -26.5750 C.3   314  ILE314      0.0019
    109  CG2       45.5600   12.1500  -25.7580 C.3   314  ILE314      0.0019
    110  CD1       44.1510    9.0600  -25.5670 C.3   314  ILE314      0.0001
    111  N         48.1960   13.7710  -23.2740 N.3   317  PHE317     -0.1241
    112  CA        47.7670   13.1980  -21.9940 C.3   317  PHE317      0.1605
    113  C         48.9740   12.6150  -21.2490 C.2   317  PHE317      0.2264
    114  O         49.5880   11.6840  -21.7380 O.2   317  PHE317     -0.2867
    115  CB        46.6710   12.1240  -22.1700 C.3   317  PHE317      0.0534
    116  CG        45.9840   11.8450  -20.8640 C.ar  317  PHE317     -0.0203
    117  CD1       46.4960   10.9080  -19.9850 C.ar  317  PHE317     -0.0042
    118  CD2       44.9550   12.6570  -20.4250 C.ar  317  PHE317     -0.0042
    119  CE1       45.9550   10.7440  -18.7150 C.ar  317  PHE317     -0.0003
    120  CE2       44.4060   12.4920  -19.1620 C.ar  317  PHE317     -0.0003
    121  CZ        44.9000   11.5180  -18.3170 C.ar  317  PHE317     -0.0000
    122  N         50.2240   10.5380  -18.1550 N.3   319  LEU319     -0.1245
    123  CA        49.8240    9.5540  -17.1490 C.3   319  LEU319      0.1561
    124  C         50.4950    9.7850  -15.7940 C.2   319  LEU319      0.2260
    125  O         49.9780    9.3180  -14.7840 O.2   319  LEU319     -0.2867
    126  CB        50.1450    8.1120  -17.6270 C.3   319  LEU319      0.0270
    127  CG        49.7510    7.6680  -19.0350 C.3   319  LEU319      0.0019
    128  CD1       50.1900    6.2430  -19.2740 C.3   319  LEU319      0.0001
    129  CD2       48.2920    7.7300  -19.2350 C.3   319  LEU319      0.0001
@<TRIPOS>BOND
     1    59    57   ar
     2    59    61   ar
     3    57    56   ar
     4    61    60   ar
     5    68    69    1
     6    56    55    1
     7    56    58   ar
     8    55    52    1
     9    70    71    2
    10    70    69    1
    11    60    58   ar
    12    69    72    1
    13    54    53    2
    14    52    53    1
    15    52    51    1
    16    44    42    1
    17    48    47    2
    18    53    62   am
    19   103   104    1
    20    64    65    2
    21    64    63    1
    22    43    42    1
    23   104   105    1
    24   104   107    1
    25    72    73    1
    26    51    47   am
    27   108   107    1
    28   108   110    1
    29    47    46    1
    30    62    63    1
    31    42    41    1
    32    73    74    1
    33   105   106    2
    34    63    66    1
    35   107   109    1
    36    67    66    1
    37    41    38    1
    38    98    97    2
    39    45    46    1
    40    45    39   am
    41    46    49    1
    42    74    76   ar
    43    74    75   ar
    44   101   100    2
    45    38    39    1
    46    38    37    1
    47    97    96    1
    48    39    40    2
    49    49    50    1
    50   100    99    1
    51   100   102   am
    52    37    28   am
    53     4     3    2
    54    96    99    1
    55    96    95    1
    56     8     7    1
    57     9    10    1
    58    10    11    1
    59    10    13    1
    60    94    93    1
    61   111   112    1
    62    29    28    2
    63     5     6    1
    64     5     2    1
    65    12    11    2
    66    17    16    2
    67    28    27    1
    68     3     2    1
    69     7     6    1
    70    11    14   am
    71    16    15    1
    72   115   112    1
    73   115   116    1
    74    14    15    1
    75     2     1    1
    76    93    91   ar
    77    93    92   ar
    78   112   113    1
    79    91    89   ar
    80   114   113    2
    81    27    26    1
    82    27    30    1
    83    15    18    1
    84    92    90   ar
    85   116   118   ar
    86   116   117   ar
    87    31    30    1
    88    31    32    1
    89    89    88   ar
    90   118   120   ar
    91    18    19    1
    92   117   119   ar
    93    90    88   ar
    94    33    32    1
    95    33    34    2
    96    88    87    1
    97    86    85    2
    98   128   127    1
    99   129   127    1
   100    19    20   ar
   101    19    21   ar
   102   120   121   ar
   103    20    22   ar
   104   127   126    1
   105    35    34    1
   106   119   121   ar
   107    34    36    1
   108    21    23   ar
   109    22    24   ar
   110    85    84    1
   111    84    87    1
   112    84    83    1
   113   122   123    1
   114    23    24   ar
   115   126   123    1
   116    24    25    1
   117   123   124    1
   118   124   125    2
   119    82    81    1
   120    80    79    2
   121    79    78    1
   122    81    78    1
   123    78    77    1
