@<TRIPOS>MOLECULE
tmp/5v8pB00.pdb
 145 143 0 0 0
SMALL
GASTEIGER

@<TRIPOS>ATOM
      1  N        -36.6900    6.9000   -9.0220 N.3    70  VAL70      -0.1245
      2  CA       -35.2810    7.2620   -9.1560 C.3    70  VAL70       0.1561
      3  C        -34.7780    6.9730  -10.5730 C.2    70  VAL70       0.2260
      4  O        -34.7860    5.8380  -11.0480 O.2    70  VAL70      -0.2867
      5  CB       -34.4090    6.5450   -8.1020 C.3    70  VAL70       0.0252
      6  CG1      -34.5360    5.0360   -8.2260 C.3    70  VAL70       0.0019
      7  CG2      -32.9450    6.9740   -8.2390 C.3    70  VAL70       0.0019
      8  N        -30.0230    4.3140  -15.8600 N.3   161  ILE161     -0.1231
      9  CA       -29.9480    3.3600  -14.7700 C.3   161  ILE161      0.1692
     10  C        -31.1090    2.3840  -14.8080 C.2   161  ILE161      0.2592
     11  O        -31.3320    1.6490  -13.8450 O.2   161  ILE161     -0.2718
     12  CB       -29.8520    4.0830  -13.4210 C.3   161  ILE161      0.0266
     13  CG1      -31.0860    4.9440  -13.1830 C.3   161  ILE161      0.0019
     14  CG2      -28.5940    4.9330  -13.3880 C.3   161  ILE161      0.0020
     15  CD1      -31.1270    5.5740  -11.7970 C.3   161  ILE161      0.0001
     16  N        -31.8430    2.3420  -15.9140 N.am  162  GLN162     -0.1966
     17  CA       -32.9300    1.3820  -16.0820 C.3   162  GLN162      0.1733
     18  C        -32.3760    0.1680  -16.8320 C.2   162  GLN162      0.2616
     19  O        -32.1170    0.2190  -18.0350 O.2   162  GLN162     -0.2715
     20  CB       -34.1040    2.0420  -16.7920 C.3   162  GLN162      0.0408
     21  CG       -35.4070    1.2990  -16.6290 C.3   162  GLN162      0.0908
     22  CD       -35.5950    0.2390  -17.6730 C.2   162  GLN162      0.2608
     23  OE1      -35.0750    0.3510  -18.7860 O.2   162  GLN162     -0.2717
     24  NE2      -36.3550   -0.8000  -17.3330 N.am  162  GLN162     -0.0878
     25  N        -32.1480   -0.9070  -16.0930 N.am  163  PHE163     -0.1960
     26  CA       -31.6480   -2.1680  -16.6280 C.3   163  PHE163      0.1771
     27  C        -32.7970   -3.1610  -16.7490 C.2   163  PHE163      0.2619
     28  O        -33.7000   -3.1870  -15.9070 O.2   163  PHE163     -0.2715
     29  CB       -30.5690   -2.7520  -15.7130 C.3   163  PHE163      0.0574
     30  CG       -29.3920   -1.8510  -15.5060 C.ar  163  PHE163     -0.0200
     31  CD1      -29.1710   -0.7580  -16.3350 C.ar  163  PHE163     -0.0042
     32  CD2      -28.5180   -2.0790  -14.4680 C.ar  163  PHE163     -0.0042
     33  CE1      -28.0930    0.0830  -16.1340 C.ar  163  PHE163     -0.0003
     34  CE2      -27.4350   -1.2520  -14.2610 C.ar  163  PHE163     -0.0003
     35  CZ       -27.2180   -0.1710  -15.0920 C.ar  163  PHE163     -0.0000
     36  N        -32.7650   -3.9850  -17.7910 N.am  164  GLU164     -0.1977
     37  CA       -33.8400   -4.9550  -17.9350 C.3   164  GLU164      0.1602
     38  C        -33.4410   -5.9620  -18.9970 C.2   164  GLU164      0.2287
     39  O        -32.5490   -5.7150  -19.8130 O.2   164  GLU164     -0.2864
     40  CB       -35.1730   -4.2880  -18.3260 C.3   164  GLU164      0.0415
     41  CG       -35.4360   -4.2280  -19.8250 C.3   164  GLU164      0.1163
     42  CD       -36.6320   -3.3420  -20.2010 C.2   164  GLU164      0.3649
     43  OE1      -37.0600   -2.4910  -19.3940 O.co2 164  GLU164     -0.2457
     44  OE2      -37.2030   -3.5560  -21.2870 O.co2 164  GLU164     -0.2457
     45  N        -25.7670    0.9740   -7.9420 N.3   194  PHE194     -0.1241
     46  CA       -26.7510    1.4600   -6.9920 C.3   194  PHE194      0.1605
     47  C        -26.2940    1.1750   -5.5710 C.2   194  PHE194      0.2264
     48  O        -25.6500    0.1550   -5.3030 O.2   194  PHE194     -0.2867
     49  CB       -28.0830    0.7770   -7.2240 C.3   194  PHE194      0.0534
     50  CG       -28.4790    0.7490   -8.6410 C.ar  194  PHE194     -0.0203
     51  CD1      -28.9370    1.8990   -9.2660 C.ar  194  PHE194     -0.0042
     52  CD2      -28.3740   -0.4260   -9.3650 C.ar  194  PHE194     -0.0042
     53  CE1      -29.2900    1.8850  -10.5910 C.ar  194  PHE194     -0.0003
     54  CE2      -28.7390   -0.4610  -10.7100 C.ar  194  PHE194     -0.0003
     55  CZ       -29.1990    0.7060  -11.3250 C.ar  194  PHE194     -0.0000
     56  N        -27.9570  -10.9370  -12.3650 N.3   223  HIS223     -0.1226
     57  CA       -29.3980  -10.7910  -12.2460 C.3   223  HIS223      0.1752
     58  C        -30.0400  -10.7690  -13.6210 C.2   223  HIS223      0.2595
     59  O        -30.9250  -11.5750  -13.9280 O.2   223  HIS223     -0.2718
     60  CB       -29.7130   -9.4990  -11.4970 C.3   223  HIS223      0.0759
     61  CG       -31.1700   -9.2630  -11.2790 C.ar  223  HIS223      0.0818
     62  ND1      -31.8460   -9.7510  -10.1850 N.ar  223  HIS223     -0.2268
     63  CD2      -32.0940   -8.6370  -12.0440 C.ar  223  HIS223      0.1154
     64  CE1      -33.1160   -9.3910  -10.2610 C.ar  223  HIS223      0.1986
     65  NE2      -33.2960   -8.7300  -11.3880 N.ar  223  HIS223     -0.2212
     66  N        -29.6130   -9.8200  -14.4590 N.am  224  GLU224     -0.1979
     67  CA       -30.1980   -9.7130  -15.7880 C.3   224  GLU224      0.1602
     68  C        -30.0010  -10.9900  -16.5780 C.2   224  GLU224      0.2287
     69  O        -30.8930  -11.3720  -17.3490 O.2   224  GLU224     -0.2864
     70  CB       -29.6050   -8.5400  -16.5610 C.3   224  GLU224      0.0415
     71  CG       -29.8240   -7.1800  -15.9230 C.3   224  GLU224      0.1163
     72  CD       -31.2790   -6.8670  -15.6780 C.2   224  GLU224      0.3649
     73  OE1      -32.1250   -7.5360  -16.2990 O.co2 224  GLU224     -0.2457
     74  OE2      -31.5610   -5.9160  -14.9000 O.co2 224  GLU224     -0.2457
     75  N        -32.6820  -13.6290  -15.7860 N.3   227  HIS227     -0.1241
     76  CA       -33.8210  -13.3570  -16.6630 C.3   227  HIS227      0.1621
     77  C        -33.5850  -13.9330  -18.0510 C.2   227  HIS227      0.2264
     78  O        -34.4410  -14.6310  -18.6020 O.2   227  HIS227     -0.2867
     79  CB       -34.0950  -11.8510  -16.8030 C.3   227  HIS227      0.0745
     80  CG       -34.6920  -11.1890  -15.5970 C.ar  227  HIS227      0.0817
     81  ND1      -35.9140  -11.5530  -15.0750 N.ar  227  HIS227     -0.2268
     82  CD2      -34.3080  -10.0870  -14.9090 C.ar  227  HIS227      0.1154
     83  CE1      -36.2160  -10.7560  -14.0650 C.ar  227  HIS227      0.1986
     84  NE2      -35.2620   -9.8520  -13.9490 N.ar  227  HIS227     -0.2212
     85  N        -39.5230  -11.1890  -11.0020 N.3   249  GLU249     -0.1245
     86  CA       -38.4300  -10.4900  -10.3300 C.3   249  GLU249      0.1567
     87  C        -38.1040  -11.1200   -8.9750 C.2   249  GLU249      0.2260
     88  O        -36.9290  -11.3230   -8.6470 O.2   249  GLU249     -0.2867
     89  CB       -38.7900   -9.0040  -10.1680 C.3   249  GLU249      0.0388
     90  CG       -38.8590   -8.2060  -11.4810 C.3   249  GLU249      0.1160
     91  CD       -37.4980   -7.8890  -12.0730 C.2   249  GLU249      0.3649
     92  OE1      -36.4970   -7.8520  -11.3140 O.co2 249  GLU249     -0.2457
     93  OE2      -37.4460   -7.6400  -13.2970 O.co2 249  GLU249     -0.2457
     94  N        -35.4010   -7.6680   -2.7950 N.3   352  TYR352     -0.1241
     95  CA       -35.3300   -7.0220   -4.1050 C.3   352  TYR352      0.1605
     96  C        -35.5930   -5.5230   -4.0260 C.2   352  TYR352      0.2264
     97  O        -35.0060   -4.7480   -4.7940 O.2   352  TYR352     -0.2867
     98  CB       -36.3100   -7.6890   -5.0700 C.3   352  TYR352      0.0534
     99  CG       -36.4910   -6.9760   -6.4040 C.ar  352  TYR352     -0.0201
    100  CD1      -35.5240   -7.0460   -7.4060 C.ar  352  TYR352     -0.0009
    101  CD2      -37.6510   -6.2450   -6.6620 C.ar  352  TYR352     -0.0009
    102  CE1      -35.7060   -6.3860   -8.6270 C.ar  352  TYR352      0.0417
    103  CE2      -37.8400   -5.5940   -7.8710 C.ar  352  TYR352      0.0417
    104  CZ       -36.8700   -5.6630   -8.8490 C.ar  352  TYR352      0.1957
    105  OH       -37.0870   -5.0120  -10.0450 O.3   352  TYR352     -0.2866
    106  N        -33.3540   -1.1260   -2.0180 N.3   355  PHE355     -0.1227
    107  CA       -32.3190   -0.1900   -2.4160 C.3   355  PHE355      0.1736
    108  C        -32.4220    1.1040   -1.6220 C.2   355  PHE355      0.2595
    109  O        -33.4960    1.4930   -1.1540 O.2   355  PHE355     -0.2718
    110  CB       -32.4090    0.1740   -3.9020 C.3   355  PHE355      0.0547
    111  CG       -31.7130   -0.7730   -4.8240 C.ar  355  PHE355     -0.0202
    112  CD1      -30.3340   -0.9000   -4.7710 C.ar  355  PHE355     -0.0042
    113  CD2      -32.4060   -1.4430   -5.8210 C.ar  355  PHE355     -0.0042
    114  CE1      -29.6610   -1.7490   -5.6400 C.ar  355  PHE355     -0.0003
    115  CE2      -31.7380   -2.2850   -6.7030 C.ar  355  PHE355     -0.0003
    116  CZ       -30.3600   -2.4280   -6.6160 C.ar  355  PHE355     -0.0000
    117  N        -31.2870    1.7770   -1.4840 N.am  356  ASP356     -0.1960
    118  CA       -31.3040    3.2200   -1.3480 C.3   356  ASP356      0.1840
    119  C        -31.5350    3.8090   -2.7240 C.2   356  ASP356      0.2622
    120  O        -31.1860    3.2090   -3.7430 O.2   356  ASP356     -0.2715
    121  CB       -29.9790    3.7510   -0.8130 C.3   356  ASP356      0.1450
    122  CG       -29.5960    3.1220    0.4870 C.2   356  ASP356      0.3671
    123  OD1      -30.5100    2.6830    1.2180 O.co2 356  ASP356     -0.2456
    124  OD2      -28.3800    3.0510    0.7600 O.co2 356  ASP356     -0.2456
    125  N        -32.0880    5.0090   -2.7530 N.am  357  LYS357     -0.1963
    126  CA       -32.2060    5.7020   -4.0250 C.3   357  LYS357      0.1728
    127  C        -30.9210    6.4750   -4.3180 C.2   357  LYS357      0.2616
    128  O        -30.9650    7.5550   -4.9110 O.2   357  LYS357     -0.2715
    129  CB       -33.4430    6.6030   -4.0320 C.3   357  LYS357      0.0311
    130  CG       -33.4770    7.6420   -2.9300 C.3   357  LYS357      0.0038
    131  CD       -34.7700    8.4620   -2.9780 C.3   357  LYS357      0.0206
    132  CE       -34.7840    9.5690   -1.9240 C.3   357  LYS357      0.1093
    133  NZ       -36.0500   10.3510   -1.9460 N.3   357  LYS357     -0.1314
    134  N        -29.7730    5.9320   -3.9150 N.am  358  ALA358     -0.1963
    135  CA       -28.4790    6.5100   -4.2490 C.3   358  ALA358      0.1728
    136  C        -27.9100    5.8280   -5.4850 C.2   358  ALA358      0.2616
    137  O        -28.0130    4.6080   -5.6350 O.2   358  ALA358     -0.2715
    138  CB       -27.4950    6.3740   -3.0910 C.3   358  ALA358      0.0334
    139  N        -27.2890    6.6190   -6.3580 N.am  359  VAL359     -0.1977
    140  CA       -26.7430    6.1160   -7.6100 C.3   359  VAL359      0.1596
    141  C        -25.3180    6.6290   -7.7500 C.2   359  VAL359      0.2287
    142  O        -25.0210    7.7760   -7.3960 O.2   359  VAL359     -0.2864
    143  CB       -27.5830    6.5450   -8.8320 C.3   359  VAL359      0.0276
    144  CG1      -27.0810    5.8230  -10.0800 C.3   359  VAL359      0.0022
    145  CG2      -29.0770    6.2990   -8.5860 C.3   359  VAL359      0.0022
@<TRIPOS>BOND
     1    44    42   ar
     2    42    41    1
     3    42    43   ar
     4    41    40    1
     5    39    38    2
     6    38    37    1
     7    23    22    2
     8    78    77    2
     9    40    37    1
    10    77    76    1
    11    19    18    2
    12    37    36    1
    13    36    27   am
    14    22    24   am
    15    22    21    1
    16    69    68    2
    17    18    25   am
    18    18    17    1
    19    79    76    1
    20    79    80    1
    21    20    21    1
    22    20    17    1
    23    27    26    1
    24    27    28    2
    25    76    75    1
    26    26    25    1
    27    26    29    1
    28    68    67    1
    29    70    71    1
    30    70    67    1
    31    31    33   ar
    32    31    30   ar
    33    73    72   ar
    34    33    35   ar
    35    17    16    1
    36    71    72    1
    37    16    10   am
    38     8     9    1
    39    67    66    1
    40    29    30    1
    41    72    74   ar
    42    80    81   ar
    43    80    82   ar
    44    30    32   ar
    45    35    34   ar
    46    81    83   ar
    47    82    84   ar
    48    10     9    1
    49    10    11    2
    50     9    12    1
    51    32    34   ar
    52    66    58   am
    53    83    84   ar
    54    59    58    2
    55    58    57    1
    56    12    14    1
    57    12    13    1
    58    93    91   ar
    59    13    15    1
    60    56    57    1
    61    57    60    1
    62    91    90    1
    63    91    92   ar
    64    63    65   ar
    65    63    61   ar
    66    60    61    1
    67    90    89    1
    68    65    64   ar
    69    55    54   ar
    70    55    53   ar
    71    61    62   ar
    72     4     3    2
    73    85    86    1
    74    54    52   ar
    75    53    51   ar
    76     3     2    1
    77    86    89    1
    78    86    87    1
    79    64    62   ar
    80   144   143    1
    81   105   104    1
    82    52    50   ar
    83    51    50   ar
    84     2     1    1
    85     2     5    1
    86    87    88    2
    87   104   102   ar
    88   104   103   ar
    89   143   145    1
    90   143   140    1
    91    50    49    1
    92   102   100   ar
    93     7     5    1
    94     6     5    1
    95    45    46    1
    96   103   101   ar
    97   141   140    1
    98   141   142    2
    99   140   139    1
   100   100    99   ar
   101    49    46    1
   102    46    47    1
   103   115   116   ar
   104   115   113   ar
   105   101    99   ar
   106   116   114   ar
   107    99    98    1
   108   139   136   am
   109   113   111   ar
   110   114   112   ar
   111   137   136    2
   112    47    48    2
   113   136   135    1
   114    98    95    1
   115   128   127    2
   116   111   112   ar
   117   111   110    1
   118    97    96    2
   119   127   126    1
   120   127   134   am
   121   135   134    1
   122   135   138    1
   123    95    96    1
   124    95    94    1
   125   129   126    1
   126   129   130    1
   127   126   125    1
   128   110   107    1
   129   120   119    2
   130   131   130    1
   131   131   132    1
   132   125   119   am
   133   119   118    1
   134   107   106    1
   135   107   108    1
   136   133   132    1
   137   108   117   am
   138   108   109    2
   139   117   118    1
   140   118   121    1
   141   121   122    1
   142   122   124   ar
   143   122   123   ar
