@<TRIPOS>MOLECULE
tmp/5v8pA00.pdb
 162 159 0 0 0
SMALL
GASTEIGER

@<TRIPOS>ATOM
      1  N          7.8170  -53.0040  -22.8150 N.3    70  VAL70      -0.1245
      2  CA         6.7110  -52.4020  -22.0850 C.3    70  VAL70       0.1561
      3  C          5.4830  -52.1350  -22.9990 C.2    70  VAL70       0.2260
      4  O          5.4120  -51.0940  -23.6400 O.2    70  VAL70      -0.2867
      5  CB         7.1860  -51.1130  -21.3710 C.3    70  VAL70       0.0252
      6  CG1        7.8310  -50.1280  -22.3700 C.3    70  VAL70       0.0019
      7  CG2        6.0380  -50.4420  -20.6110 C.3    70  VAL70       0.0019
      8  N         -1.2860  -49.5670  -25.0400 N.3   161  ILE161     -0.1231
      9  CA        -0.7980  -48.7900  -23.8990 C.3   161  ILE161      0.1692
     10  C          0.0070  -47.5670  -24.3120 C.2   161  ILE161      0.2592
     11  O          0.1820  -46.6570  -23.4970 O.2   161  ILE161     -0.2718
     12  CB         0.0660  -49.6240  -22.9320 C.3   161  ILE161      0.0266
     13  CG1        1.1880  -50.3910  -23.6590 C.3   161  ILE161      0.0019
     14  CG2       -0.7970  -50.5810  -22.1510 C.3   161  ILE161      0.0020
     15  CD1        2.4790  -49.5550  -23.9680 C.3   161  ILE161      0.0001
     16  N          0.5010  -47.5060  -25.5460 N.am  162  GLN162     -0.1966
     17  CA         1.3360  -46.3810  -25.9520 C.3   162  GLN162      0.1733
     18  C          0.4620  -45.1460  -26.1430 C.2   162  GLN162      0.2616
     19  O         -0.3430  -45.0760  -27.0770 O.2   162  GLN162     -0.2715
     20  CB         2.1010  -46.7210  -27.2270 C.3   162  GLN162      0.0408
     21  CG         3.0610  -45.6220  -27.6740 C.3   162  GLN162      0.0908
     22  CD         4.1860  -45.3930  -26.6770 C.2   162  GLN162      0.2608
     23  OE1        4.8320  -46.3490  -26.2200 O.2   162  GLN162     -0.2717
     24  NE2        4.4050  -44.1230  -26.3010 N.am  162  GLN162     -0.0878
     25  N          0.5980  -44.1800  -25.2450 N.am  163  PHE163     -0.1960
     26  CA        -0.0700  -42.8970  -25.3720 C.3   163  PHE163      0.1771
     27  C          0.9510  -41.8270  -25.7400 C.2   163  PHE163      0.2619
     28  O          2.0530  -41.7990  -25.1960 O.2   163  PHE163     -0.2715
     29  CB        -0.7720  -42.5300  -24.0630 C.3   163  PHE163      0.0574
     30  CG        -1.8440  -43.5070  -23.6390 C.ar  163  PHE163     -0.0200
     31  CD1       -2.3400  -44.4700  -24.5180 C.ar  163  PHE163     -0.0042
     32  CD2       -2.3450  -43.4730  -22.3450 C.ar  163  PHE163     -0.0042
     33  CE1       -3.3100  -45.3640  -24.1110 C.ar  163  PHE163     -0.0003
     34  CE2       -3.3070  -44.3580  -21.9340 C.ar  163  PHE163     -0.0003
     35  CZ        -3.7930  -45.3090  -22.8140 C.ar  163  PHE163     -0.0000
     36  N          0.5990  -40.9560  -26.6760 N.am  164  GLU164     -0.1963
     37  CA         1.5400  -39.9340  -27.1080 C.3   164  GLU164      0.1733
     38  C          0.7930  -38.7910  -27.7770 C.2   164  GLU164      0.2616
     39  O         -0.3420  -38.9400  -28.2310 O.2   164  GLU164     -0.2715
     40  CB         2.6000  -40.5060  -28.0550 C.3   164  GLU164      0.0429
     41  CG         2.0670  -40.9700  -29.3920 C.3   164  GLU164      0.1163
     42  CD         3.1330  -41.6420  -30.2610 C.2   164  GLU164      0.3649
     43  OE1        4.2740  -41.8590  -29.7830 O.co2 164  GLU164     -0.2457
     44  OE2        2.8240  -41.9360  -31.4390 O.co2 164  GLU164     -0.2457
     45  N          1.4640  -37.6470  -27.8420 N.am  165  CYS165     -0.1968
     46  CA         0.9540  -36.4470  -28.4920 C.3   165  CYS165      0.1712
     47  C          1.8580  -36.1550  -29.6800 C.2   165  CYS165      0.2296
     48  O          2.9420  -35.5950  -29.5060 O.2   165  CYS165     -0.2864
     49  CB         0.9290  -35.2790  -27.5180 C.3   165  CYS165      0.0983
     50  SG         0.3540  -33.7220  -28.2160 S.3   165  CYS165     -0.0798
     51  N         -2.6010  -47.5210  -15.8420 N.3   194  PHE194     -0.1241
     52  CA        -1.3210  -48.0490  -15.3950 C.3   194  PHE194      0.1605
     53  C         -1.3290  -48.2230  -13.8850 C.2   194  PHE194      0.2264
     54  O         -1.9610  -47.4490  -13.1600 O.2   194  PHE194     -0.2867
     55  CB        -0.1880  -47.0920  -15.7760 C.3   194  PHE194      0.0534
     56  CG        -0.1250  -46.7900  -17.2380 C.ar  194  PHE194     -0.0203
     57  CD1       -0.4810  -47.7460  -18.1840 C.ar  194  PHE194     -0.0042
     58  CD2        0.1820  -45.5090  -17.6620 C.ar  194  PHE194     -0.0042
     59  CE1       -0.4490  -47.4470  -19.5420 C.ar  194  PHE194     -0.0003
     60  CE2        0.2080  -45.1970  -19.0100 C.ar  194  PHE194     -0.0003
     61  CZ        -0.1100  -46.1640  -19.9530 C.ar  194  PHE194     -0.0000
     62  N         -1.7400  -35.1260  -18.8650 N.3   210  HIS210     -0.1226
     63  CA        -0.3430  -35.1970  -19.2800 C.3   210  HIS210      0.1752
     64  C         -0.2080  -34.8980  -20.7650 C.2   210  HIS210      0.2595
     65  O          0.5850  -34.0430  -21.1740 O.2   210  HIS210     -0.2718
     66  CB         0.2130  -36.5880  -18.9810 C.3   210  HIS210      0.0759
     67  CG         1.6640  -36.7490  -19.2940 C.ar  210  HIS210      0.0818
     68  ND1        2.6530  -36.4840  -18.3780 N.ar  210  HIS210     -0.2268
     69  CD2        2.2970  -37.1110  -20.4330 C.ar  210  HIS210      0.1154
     70  CE1        3.8320  -36.7110  -18.9250 C.ar  210  HIS210      0.1986
     71  NE2        3.6440  -37.0840  -20.1750 N.ar  210  HIS210     -0.2212
     72  N         -0.9670  -35.6150  -21.5900 N.am  211  GLU211     -0.1979
     73  CA        -0.8130  -35.4840  -23.0350 C.3   211  GLU211      0.1602
     74  C         -1.2610  -34.1170  -23.5160 C.2   211  GLU211      0.2287
     75  O         -0.7120  -33.5930  -24.4950 O.2   211  GLU211     -0.2864
     76  CB        -1.6140  -36.5640  -23.7640 C.3   211  GLU211      0.0415
     77  CG        -1.2060  -37.9420  -23.4330 C.3   211  GLU211      0.1163
     78  CD         0.2450  -38.2260  -23.7470 C.2   211  GLU211      0.3649
     79  OE1        0.8240  -37.6320  -24.6840 O.co2 211  GLU211     -0.2457
     80  OE2        0.8100  -39.0650  -23.0330 O.co2 211  GLU211     -0.2457
     81  N          1.6340  -31.7430  -23.1910 N.3   214  HIS214     -0.1241
     82  CA         2.4330  -31.7890  -24.4090 C.3   214  HIS214      0.1621
     83  C          1.7410  -31.0150  -25.5260 C.2   214  HIS214      0.2264
     84  O          2.3730  -30.2460  -26.2510 O.2   214  HIS214     -0.2867
     85  CB         2.6920  -33.2220  -24.8570 C.3   214  HIS214      0.0745
     86  CG         3.6240  -33.9850  -23.9770 C.ar  214  HIS214      0.0817
     87  ND1        4.9310  -33.6030  -23.7730 N.ar  214  HIS214     -0.2268
     88  CD2        3.4780  -35.1780  -23.3490 C.ar  214  HIS214      0.1154
     89  CE1        5.5270  -34.4900  -22.9950 C.ar  214  HIS214      0.1986
     90  NE2        4.6720  -35.4600  -22.7340 N.ar  214  HIS214     -0.2212
     91  N          9.5510  -34.6560  -21.2640 N.3   236  GLU236     -0.1245
     92  CA         8.7800  -35.4650  -20.3220 C.3   236  GLU236      0.1567
     93  C          8.9370  -34.9510  -18.8930 C.2   236  GLU236      0.2260
     94  O          7.9590  -34.8850  -18.1400 O.2   236  GLU236     -0.2867
     95  CB         9.1990  -36.9450  -20.4010 C.3   236  GLU236      0.0388
     96  CG         8.9200  -37.6390  -21.7370 C.3   236  GLU236      0.1160
     97  CD         7.4390  -37.6950  -22.0920 C.2   236  GLU236      0.3649
     98  OE1        6.5960  -37.6980  -21.1740 O.co2 236  GLU236     -0.2457
     99  OE2        7.1260  -37.7570  -23.2970 O.co2 236  GLU236     -0.2457
    100  N          2.0550  -41.7430   -9.0960 N.3   335  ARG335     -0.1245
    101  CA         3.4640  -42.0610   -8.9130 C.3   335  ARG335      0.1563
    102  C          4.2350  -40.7610   -8.7110 C.2   335  ARG335      0.2260
    103  O          3.8370  -39.7040   -9.2040 O.2   335  ARG335     -0.2867
    104  CB         3.9890  -42.8440  -10.1100 C.3   335  ARG335      0.0307
    105  CG         4.1280  -42.0180  -11.3610 C.3   335  ARG335      0.0489
    106  CD         4.2260  -42.9150  -12.5740 C.3   335  ARG335      0.2205
    107  NE         4.5760  -42.1590  -13.7690 N.pl3 335  ARG335     -0.0865
    108  CZ         3.7220  -41.4310  -14.4720 C.cat 335  ARG335      0.5346
    109  NH1        2.4560  -41.3130  -14.0940 N.pl3 335  ARG335      0.1354
    110  NH2        4.1530  -40.7960  -15.5450 N.pl3 335  ARG335      0.1354
    111  N          8.5540  -39.5650  -12.7910 N.3   338  TYR338     -0.1241
    112  CA         8.1410  -40.0390  -14.1050 C.3   338  TYR338      0.1605
    113  C          8.4360  -41.5210  -14.3220 C.2   338  TYR338      0.2264
    114  O          7.8660  -42.1240  -15.2360 O.2   338  TYR338     -0.2867
    115  CB         8.8300  -39.2080  -15.1860 C.3   338  TYR338      0.0534
    116  CG         8.4380  -39.5690  -16.6020 C.ar  338  TYR338     -0.0201
    117  CD1        7.2270  -39.1670  -17.1280 C.ar  338  TYR338     -0.0009
    118  CD2        9.2880  -40.3140  -17.4090 C.ar  338  TYR338     -0.0009
    119  CE1        6.8700  -39.4870  -18.4180 C.ar  338  TYR338      0.0417
    120  CE2        8.9380  -40.6410  -18.7030 C.ar  338  TYR338      0.0417
    121  CZ         7.7300  -40.2250  -19.2050 C.ar  338  TYR338      0.1957
    122  OH         7.3610  -40.5420  -20.4970 O.3   338  TYR338     -0.2866
    123  N          6.4440  -46.0060  -12.6650 N.3   341  PHE341     -0.1227
    124  CA         5.3790  -46.8410  -13.2060 C.3   341  PHE341      0.1736
    125  C          5.8260  -48.2960  -13.1550 C.2   341  PHE341      0.2595
    126  O          6.8120  -48.6710  -13.7990 O.2   341  PHE341     -0.2718
    127  CB         5.0240  -46.4120  -14.6360 C.3   341  PHE341      0.0547
    128  CG         6.1930  -46.4470  -15.6050 C.ar  341  PHE341     -0.0202
    129  CD1        7.0440  -45.3530  -15.7280 C.ar  341  PHE341     -0.0042
    130  CD2        6.4260  -47.5570  -16.4090 C.ar  341  PHE341     -0.0042
    131  CE1        8.1140  -45.3740  -16.6110 C.ar  341  PHE341     -0.0003
    132  CE2        7.4980  -47.5800  -17.2980 C.ar  341  PHE341     -0.0003
    133  CZ         8.3380  -46.4860  -17.3980 C.ar  341  PHE341     -0.0000
    134  N          5.1400  -49.1060  -12.3510 N.am  342  ASP342     -0.1960
    135  CA         5.3580  -50.5410  -12.4260 C.3   342  ASP342      0.1840
    136  C          4.5130  -51.1020  -13.5620 C.2   342  ASP342      0.2622
    137  O          3.6060  -50.4430  -14.0720 O.2   342  ASP342     -0.2715
    138  CB         5.0290  -51.2310  -11.1010 C.3   342  ASP342      0.1450
    139  CG         3.5400  -51.2910  -10.8140 C.2   342  ASP342      0.3671
    140  OD1        2.7350  -50.8400  -11.6470 O.co2 342  ASP342     -0.2456
    141  OD2        3.1730  -51.7990   -9.7370 O.co2 342  ASP342     -0.2456
    142  N          4.8100  -52.3330  -13.9640 N.am  343  LYS343     -0.1963
    143  CA         4.1540  -52.8990  -15.1390 C.3   343  LYS343      0.1728
    144  C          2.8950  -53.6610  -14.7380 C.2   343  LYS343      0.2616
    145  O          2.8220  -54.8940  -14.7520 O.2   343  LYS343     -0.2715
    146  CB         5.1080  -53.7890  -15.9160 C.3   343  LYS343      0.0311
    147  CG         4.4700  -54.3560  -17.1770 C.3   343  LYS343      0.0038
    148  CD         3.8190  -53.2180  -17.9890 C.3   343  LYS343      0.0206
    149  CE         3.4970  -53.6310  -19.3860 C.3   343  LYS343      0.1093
    150  NZ         4.7930  -53.7810  -20.0400 N.3   343  LYS343     -0.1314
    151  N          1.8800  -52.8810  -14.3970 N.am  344  ALA344     -0.1963
    152  CA         0.5250  -53.3790  -14.2300 C.3   344  ALA344      0.1728
    153  C         -0.3700  -52.5670  -15.1540 C.2   344  ALA344      0.2616
    154  O         -0.3880  -51.3330  -15.0800 O.2   344  ALA344     -0.2715
    155  CB         0.0750  -53.2680  -12.7740 C.3   344  ALA344      0.0334
    156  N         -1.0720  -53.2540  -16.0500 N.am  345  VAL345     -0.1977
    157  CA        -2.0410  -52.6320  -16.9420 C.3   345  VAL345      0.1596
    158  C         -3.4110  -53.1890  -16.5930 C.2   345  VAL345      0.2287
    159  O         -3.5760  -54.4090  -16.4580 O.2   345  VAL345     -0.2864
    160  CB        -1.7060  -52.8860  -18.4200 C.3   345  VAL345      0.0276
    161  CG1       -2.7200  -52.1850  -19.3230 C.3   345  VAL345      0.0022
    162  CG2       -0.2900  -52.4310  -18.7170 C.3   345  VAL345      0.0022
@<TRIPOS>BOND
     1    44    42   ar
     2    42    43   ar
     3    42    41    1
     4    47    48    2
     5    47    46    1
     6    41    40    1
     7    46    45    1
     8    46    49    1
     9    39    38    2
    10    50    49    1
    11    40    37    1
    12    45    38   am
    13    38    37    1
    14    21    20    1
    15    21    22    1
    16    20    17    1
    17    37    36    1
    18    19    18    2
    19    22    24   am
    20    22    23    2
    21    36    27   am
    22    84    83    2
    23    18    17    1
    24    18    25   am
    25    17    16    1
    26    27    26    1
    27    27    28    2
    28    16    10   am
    29    83    82    1
    30    26    25    1
    31    26    29    1
    32     8     9    1
    33    85    82    1
    34    85    86    1
    35    79    78   ar
    36    31    33   ar
    37    31    30   ar
    38    75    74    2
    39    82    81    1
    40    10     9    1
    41    10    11    2
    42    33    35   ar
    43    29    30    1
    44    86    87   ar
    45    86    88   ar
    46    15    13    1
    47     9    12    1
    48    87    89   ar
    49    76    77    1
    50    76    73    1
    51    78    77    1
    52    78    80   ar
    53    13    12    1
    54     4     3    2
    55    30    32   ar
    56    74    73    1
    57    88    90   ar
    58    99    97   ar
    59    73    72    1
    60     3     2    1
    61    89    90   ar
    62    12    14    1
    63     1     2    1
    64    35    34   ar
    65     6     5    1
    66    32    34   ar
    67    97    96    1
    68    97    98   ar
    69     2     5    1
    70    96    95    1
    71    72    64   am
    72     5     7    1
    73    91    92    1
    74    65    64    2
    75    64    63    1
    76   122   121    1
    77    69    71   ar
    78    69    67   ar
    79    95    92    1
    80    92    93    1
    81    71    70   ar
    82   150   149    1
    83    61    59   ar
    84    61    60   ar
    85    59    57   ar
    86   149   148    1
    87   161   160    1
    88    67    66    1
    89    67    68   ar
    90    63    66    1
    91    63    62    1
    92   121   120   ar
    93   121   119   ar
    94    60    58   ar
    95    70    68   ar
    96    93    94    2
    97   162   160    1
    98   120   118   ar
    99   160   157    1
   100   119   117   ar
   101    57    56   ar
   102   148   147    1
   103    58    56   ar
   104   118   116   ar
   105   133   132   ar
   106   133   131   ar
   107   132   130   ar
   108    56    55    1
   109   147   146    1
   110   117   116   ar
   111   157   158    1
   112   157   156    1
   113   131   129   ar
   114   116   115    1
   115   158   159    2
   116   130   128   ar
   117   156   153   am
   118   146   143    1
   119    51    52    1
   120    55    52    1
   121   129   128   ar
   122   128   127    1
   123   110   108    1
   124    52    53    1
   125   114   113    2
   126   115   112    1
   127   153   154    2
   128   153   152    1
   129   143   144    1
   130   143   142    1
   131   145   144    2
   132   144   151   am
   133   127   124    1
   134   108   109    1
   135   108   107    2
   136   151   152    1
   137   113   112    1
   138   152   155    1
   139   112   111    1
   140   137   136    2
   141   142   136   am
   142    53    54    2
   143   126   125    2
   144   107   106    1
   145   136   135    1
   146   124   125    1
   147   124   123    1
   148   125   134   am
   149   106   105    1
   150   135   134    1
   151   135   138    1
   152   140   139   ar
   153   105   104    1
   154   138   139    1
   155   139   141   ar
   156   104   101    1
   157   103   102    2
   158   100   101    1
   159   101   102    1
