@<TRIPOS>MOLECULE
tmp/5v8qA00.pdb
 181 170 0 0 0
SMALL
GASTEIGER

@<TRIPOS>ATOM
      1  N         31.9220   -0.0180   -3.3190 N.3    31  LEU31      -0.1245
      2  CA        32.0050   -0.2870   -1.8860 C.3    31  LEU31       0.1561
      3  C         33.1280    0.4950   -1.2230 C.2    31  LEU31       0.2260
      4  O         32.9750    0.9340   -0.0790 O.2    31  LEU31      -0.2867
      5  CB        32.1260   -1.7850   -1.5970 C.3    31  LEU31       0.0270
      6  CG        30.7920   -2.5140   -1.4200 C.3    31  LEU31       0.0019
      7  CD1       30.1060   -2.0770   -0.1310 C.3    31  LEU31       0.0001
      8  CD2       29.8810   -2.3070   -2.6250 C.3    31  LEU31       0.0001
      9  N         31.4420    3.7950   -0.6410 N.3    34  LEU34      -0.1231
     10  CA        30.5420    3.6860    0.5120 C.3    34  LEU34       0.1693
     11  C         31.3110    3.6740    1.8280 C.2    34  LEU34       0.2592
     12  O         30.8860    4.2870    2.7970 O.2    34  LEU34      -0.2718
     13  CB        29.6530    2.4470    0.4180 C.3    34  LEU34       0.0284
     14  CG        28.4350    2.5240   -0.5000 C.3    34  LEU34       0.0019
     15  CD1       27.7990    1.1560   -0.5880 C.3    34  LEU34       0.0001
     16  CD2       27.4180    3.5610   -0.0390 C.3    34  LEU34       0.0001
     17  N         32.4410    2.9740    1.8700 N.am   35  ASN35      -0.1974
     18  CA        33.2350    2.9390    3.0980 C.3    35  ASN35       0.1688
     19  C         33.8120    4.3070    3.4520 C.2    35  ASN35       0.2292
     20  O         33.7970    4.7070    4.6220 O.2    35  ASN35      -0.2864
     21  CB        34.3360    1.8870    3.0020 C.3    35  ASN35       0.1181
     22  CG        33.7910    0.4740    3.0620 C.2    35  ASN35       0.2629
     23  OD1       32.6560    0.2610    3.4690 O.2    35  ASN35      -0.2716
     24  ND2       34.6030   -0.4960    2.6660 N.am   35  ASN35      -0.0877
     25  N         32.5190    7.1730    2.5210 N.3    37  LEU37      -0.1231
     26  CA        31.3500    7.9290    2.9590 C.3    37  LEU37       0.1693
     27  C         30.9810    7.6050    4.4050 C.2    37  LEU37       0.2592
     28  O         30.6170    8.5000    5.1830 O.2    37  LEU37      -0.2718
     29  CB        30.1500    7.6580    2.0430 C.3    37  LEU37       0.0284
     30  CG        28.8500    8.3740    2.4230 C.3    37  LEU37       0.0019
     31  CD1       29.0180    9.8880    2.3590 C.3    37  LEU37       0.0001
     32  CD2       27.7120    7.9160    1.5250 C.3    37  LEU37       0.0001
     33  N         31.0570    6.3290    4.7640 N.am   38  GLY38      -0.1957
     34  CA        30.7760    5.9110    6.1330 C.3    38  GLY38       0.1869
     35  C         31.7190    6.5590    7.1480 C.2    38  GLY38       0.2309
     36  O         31.2830    6.9660    8.2270 O.2    38  GLY38      -0.2863
     37  N         30.6930   10.2950    7.2690 N.3    41  GLN41      -0.1245
     38  CA        29.4460   10.4220    8.0230 C.3    41  GLN41       0.1566
     39  C         29.6510   10.1680    9.5210 C.2    41  GLN41       0.2260
     40  O         29.0590   10.8630   10.3590 O.2    41  GLN41      -0.2867
     41  CB        28.3580    9.5010    7.4520 C.3    41  GLN41       0.0367
     42  CG        27.7080   10.0230    6.1740 C.3    41  GLN41       0.0905
     43  CD        26.7590   11.1840    6.4340 C.2    41  GLN41       0.2608
     44  OE1       26.5580   11.6000    7.5840 O.2    41  GLN41      -0.2717
     45  NE2       26.1650   11.7130    5.3710 N.am   41  GLN41      -0.0878
     46  N         25.3580    4.1830   15.0330 N.3    71  TRP71      -0.1227
     47  CA        25.8670    4.8200   13.8140 C.3    71  TRP71       0.1737
     48  C         25.2370    4.3040   12.5190 C.2    71  TRP71       0.2595
     49  O         24.7670    5.0950   11.6990 O.2    71  TRP71      -0.2718
     50  CB        27.3890    4.6780   13.8040 C.3    71  TRP71       0.0564
     51  CG        28.0980    4.8380   12.4990 C.ar   71  TRP71       0.0003
     52  CD1       28.2320    5.9700   11.7490 C.ar   71  TRP71       0.0946
     53  CD2       28.8230    3.8220   11.8290 C.ar   71  TRP71       0.0152
     54  NE1       28.9900    5.7110   10.6330 N.ar   71  TRP71      -0.2442
     55  CE2       29.3650    4.3940   10.6600 C.ar   71  TRP71       0.0810
     56  CE3       29.0540    2.4680   12.0900 C.ar   71  TRP71       0.0012
     57  CZ2       30.1170    3.6630    9.7620 C.ar   71  TRP71       0.0191
     58  CZ3       29.8120    1.7420   11.1920 C.ar   71  TRP71       0.0001
     59  CH2       30.3280    2.3420   10.0410 C.ar   71  TRP71       0.0015
     60  N         25.2050    2.9910   12.3230 N.am   72  MET72      -0.1979
     61  CA        24.6550    2.4540   11.0790 C.3    72  MET72       0.1605
     62  C         23.1740    2.8120   10.9030 C.2    72  MET72       0.2287
     63  O         22.7660    3.2610    9.8280 O.2    72  MET72      -0.2864
     64  CB        24.8580    0.9420   11.0110 C.3    72  MET72       0.0413
     65  CG        24.4530    0.3290    9.6800 C.3    72  MET72       0.0598
     66  SD        25.5920    0.7570    8.3520 S.3    72  MET72      -0.1393
     67  CE        26.9220   -0.3740    8.7780 C.3    72  MET72       0.0692
     68  N         22.7750    6.4750   10.0710 N.3    75  MET75      -0.1230
     69  CA        23.1280    6.7390    8.6760 C.3    75  MET75       0.1702
     70  C         22.0150    6.3030    7.7420 C.2    75  MET75       0.2592
     71  O         21.6780    7.0180    6.7880 O.2    75  MET75      -0.2718
     72  CB        24.4110    6.0230    8.2540 C.3    75  MET75       0.0401
     73  CG        25.7100    6.5980    8.7890 C.3    75  MET75       0.0596
     74  SD        27.1320    6.1000    7.7880 S.3    75  MET75      -0.1393
     75  CE        27.0470    4.3240    7.9960 C.3    75  MET75       0.0692
     76  N         21.4640    5.1160    7.9860 N.am   76  VAL76      -0.1980
     77  CA        20.4430    4.5780    7.0870 C.3    76  VAL76       0.1595
     78  C         19.1850    5.4350    7.1210 C.2    76  VAL76       0.2287
     79  O         18.5850    5.7110    6.0870 O.2    76  VAL76      -0.2864
     80  CB        20.2210    3.0630    7.2670 C.3    76  VAL76       0.0276
     81  CG1       19.3950    2.7560    8.4880 C.3    76  VAL76       0.0022
     82  CG2       19.6000    2.4840    6.0030 C.3    76  VAL76       0.0022
     83  N         19.8350    8.6330    5.3230 N.3    79  MET79      -0.1245
     84  CA        19.9620    8.3870    3.8800 C.3    79  MET79       0.1570
     85  C         18.5800    8.1900    3.2610 C.2    79  MET79       0.2261
     86  O         18.2870    8.7340    2.1920 O.2    79  MET79      -0.2867
     87  CB        20.8940    7.2020    3.6050 C.3    79  MET79       0.0387
     88  CG        21.2130    6.9680    2.1360 C.3    79  MET79       0.0595
     89  SD        19.9740    5.9940    1.2730 S.3    79  MET79      -0.1393
     90  CE        20.1850    4.4000    2.0550 C.3    79  MET79       0.0692
     91  N         17.1110   11.6750    2.8540 N.3    82  ARG82      -0.1245
     92  CA        17.7400   12.3100    1.6760 C.3    82  ARG82       0.1563
     93  C         17.1530   11.7720    0.3790 C.2    82  ARG82       0.2260
     94  O         16.9390   12.5100   -0.5830 O.2    82  ARG82      -0.2867
     95  CB        19.2450   12.0120    1.6360 C.3    82  ARG82       0.0307
     96  CG        20.0570   12.7320    2.6750 C.3    82  ARG82       0.0489
     97  CD        21.5200   12.7830    2.2860 C.3    82  ARG82       0.2205
     98  NE        22.2180   11.5000    2.3410 N.pl3  82  ARG82      -0.0865
     99  CZ        22.6130   10.9050    3.4670 C.cat  82  ARG82       0.5346
    100  NH1       22.3490   11.4460    4.6530 N.pl3  82  ARG82       0.1354
    101  NH2       23.2850    9.7680    3.4100 N.pl3  82  ARG82       0.1354
    102  N         22.8660    8.1590   -1.3230 N.3    94  PHE94      -0.1241
    103  CA        23.8980    8.0480   -0.2960 C.3    94  PHE94       0.1605
    104  C         24.6320    9.3800   -0.1230 C.2    94  PHE94       0.2264
    105  O         24.8970    9.8020    0.9960 O.2    94  PHE94      -0.2867
    106  CB        24.8940    6.9390   -0.6440 C.3    94  PHE94       0.0534
    107  CG        24.3230    5.5530   -0.5390 C.ar   94  PHE94      -0.0203
    108  CD1       24.1980    4.9350    0.6980 C.ar   94  PHE94      -0.0042
    109  CD2       23.9350    4.8540   -1.6670 C.ar   94  PHE94      -0.0042
    110  CE1       23.6880    3.6540    0.8000 C.ar   94  PHE94      -0.0003
    111  CE2       23.4180    3.5730   -1.5630 C.ar   94  PHE94      -0.0003
    112  CZ        23.2990    2.9730   -0.3300 C.ar   94  PHE94      -0.0000
    113  N         24.5040   -5.6740   -3.2130 N.3   110  MET110     -0.1245
    114  CA        23.7100   -5.2910   -2.0540 C.3   110  MET110      0.1570
    115  C         22.2350   -5.1300   -2.4170 C.2   110  MET110      0.2261
    116  O         21.5090   -4.4160   -1.7370 O.2   110  MET110     -0.2867
    117  CB        24.1970   -3.9540   -1.4920 C.3   110  MET110      0.0387
    118  CG        25.5860   -3.9780   -0.8940 C.3   110  MET110      0.0595
    119  SD        26.0440   -2.3860   -0.1970 S.3   110  MET110     -0.1393
    120  CE        24.9050   -2.3060    1.1720 C.3   110  MET110      0.0692
    121  N         16.1910   -0.6560    2.2280 N.3   117  MET117     -0.1245
    122  CA        16.4510    0.7640    2.4570 C.3   117  MET117      0.1570
    123  C         15.5280    1.6590    1.6250 C.2   117  MET117      0.2261
    124  O         15.0390    2.6840    2.0980 O.2   117  MET117     -0.2867
    125  CB        17.9180    1.0920    2.1750 C.3   117  MET117      0.0387
    126  CG        18.8740    0.4080    3.1360 C.3   117  MET117      0.0595
    127  SD        20.5740    1.0080    3.0570 S.3   117  MET117     -0.1393
    128  CE        21.1690    0.0880    1.6530 C.3   117  MET117      0.0692
    129  N         22.7870   -4.4960    7.3070 N.3   203  LEU203     -0.1245
    130  CA        23.9730   -3.7430    6.9220 C.3   203  LEU203      0.1561
    131  C         25.1720   -4.0830    7.8040 C.2   203  LEU203      0.2260
    132  O         26.2980   -4.1850    7.3110 O.2   203  LEU203     -0.2867
    133  CB        23.6890   -2.2500    6.9710 C.3   203  LEU203      0.0270
    134  CG        22.7250   -1.7790    5.8860 C.3   203  LEU203      0.0019
    135  CD1       22.4320   -0.3160    6.1030 C.3   203  LEU203      0.0001
    136  CD2       23.2690   -2.0100    4.4860 C.3   203  LEU203      0.0001
    137  N         26.4510   -7.4130    6.5000 N.3   206  PHE206     -0.1227
    138  CA        27.0960   -7.2700    5.2100 C.3   206  PHE206      0.1736
    139  C         28.4740   -6.6260    5.3500 C.2   206  PHE206      0.2596
    140  O         29.4550   -7.0960    4.7770 O.2   206  PHE206     -0.2718
    141  CB        26.2110   -6.4440    4.2660 C.3   206  PHE206      0.0547
    142  CG        26.8210   -6.2360    2.9090 C.ar  206  PHE206     -0.0202
    143  CD1       27.6850   -5.1770    2.6800 C.ar  206  PHE206     -0.0042
    144  CD2       26.5530   -7.1200    1.8690 C.ar  206  PHE206     -0.0042
    145  CE1       28.2660   -4.9870    1.4390 C.ar  206  PHE206     -0.0003
    146  CE2       27.1350   -6.9330    0.6170 C.ar  206  PHE206     -0.0003
    147  CZ        27.9910   -5.8650    0.4100 C.ar  206  PHE206     -0.0000
    148  N         28.5400   -5.5520    6.1210 N.am  207  THR207     -0.1953
    149  CA        29.7620   -4.7770    6.2790 C.3   207  THR207      0.1897
    150  C         30.8120   -5.6030    7.0290 C.2   207  THR207      0.2313
    151  O         31.9850   -5.5990    6.6790 O.2   207  THR207     -0.2863
    152  CB        29.4760   -3.4570    7.0270 C.3   207  THR207      0.1794
    153  OG1       28.4240   -2.7350    6.3630 O.3   207  THR207     -0.2208
    154  CG2       30.7170   -2.5920    7.0810 C.3   207  THR207      0.0378
    155  N         32.1560   -8.2180    4.6890 N.3   210  LEU210     -0.1245
    156  CA        33.0120   -7.5750    3.7070 C.3   210  LEU210      0.1561
    157  C         34.3820   -7.2000    4.2920 C.2   210  LEU210      0.2260
    158  O         35.4020   -7.3880    3.6310 O.2   210  LEU210     -0.2867
    159  CB        32.3100   -6.3660    3.0960 C.3   210  LEU210      0.0270
    160  CG        33.0470   -5.6910    1.9400 C.3   210  LEU210      0.0019
    161  CD1       33.3940   -6.6610    0.8200 C.3   210  LEU210      0.0001
    162  CD2       32.1750   -4.5660    1.4250 C.3   210  LEU210      0.0001
    163  N         38.8050   -0.2410    3.5640 N.3   221  PHE221     -0.1241
    164  CA        38.1150    0.2140    4.7740 C.3   221  PHE221      0.1605
    165  C         38.9800    1.2360    5.5220 C.2   221  PHE221      0.2264
    166  O         40.0770    0.9020    5.9690 O.2   221  PHE221     -0.2867
    167  CB        37.8310   -0.9580    5.7220 C.3   221  PHE221      0.0534
    168  CG        36.6380   -1.7770    5.3400 C.ar  221  PHE221     -0.0203
    169  CD1       36.7360   -2.7450    4.3500 C.ar  221  PHE221     -0.0042
    170  CD2       35.4200   -1.5870    5.9680 C.ar  221  PHE221     -0.0042
    171  CE1       35.6360   -3.4990    3.9920 C.ar  221  PHE221     -0.0003
    172  CE2       34.3180   -2.3480    5.6190 C.ar  221  PHE221     -0.0003
    173  CZ        34.4270   -3.3010    4.6270 C.ar  221  PHE221     -0.0000
    174  N         36.2950    3.5050   10.6480 N.3   225  MET225     -0.1245
    175  CA        35.3230    2.5570   10.0770 C.3   225  MET225      0.1570
    176  C         35.6510    1.1380   10.5660 C.2   225  MET225      0.2261
    177  O         34.8070    0.4920   11.2170 O.2   225  MET225     -0.2867
    178  CB        35.3040    2.7120    8.5120 C.3   225  MET225      0.0387
    179  CG        34.8080    1.5580    7.6160 C.3   225  MET225      0.0595
    180  SD        33.2090    1.7900    6.7840 S.3   225  MET225     -0.1393
    181  CE        32.6850    3.2990    7.5790 C.3   225  MET225      0.0692
@<TRIPOS>BOND
     1     1     2    1
     2   113   114    1
     3     8     6    1
     4   115   114    1
     5   115   116    2
     6   114   117    1
     7     2     5    1
     8     2     3    1
     9   109   111   ar
    10   109   107   ar
    11     5     6    1
    12   111   112   ar
    13   117   118    1
    14     6     7    1
    15   102   103    1
    16     3     4    2
    17   118   119    1
    18   106   107    1
    19   106   103    1
    20     9    10    1
    21    15    14    1
    22    94    93    2
    23   107   108   ar
    24    14    16    1
    25    14    13    1
    26   112   110   ar
    27   103   104    1
    28   119   120    1
    29   104   105    2
    30    93    92    1
    31   147   146   ar
    32   147   145   ar
    33    13    10    1
    34    10    11    1
    35   146   144   ar
    36   108   110   ar
    37   161   160    1
    38    89    90    1
    39    89    88    1
    40   162   160    1
    41   145   143   ar
    42    32    30    1
    43   123   124    2
    44   123   122    1
    45    95    92    1
    46    95    96    1
    47   128   127    1
    48    92    91    1
    49    11    17   am
    50    11    12    2
    51   144   142   ar
    52    17    18    1
    53   160   159    1
    54    29    30    1
    55    29    26    1
    56    88    87    1
    57   125   122    1
    58   125   126    1
    59    86    85    2
    60   121   122    1
    61    97    98    1
    62    97    96    1
    63    98    99    2
    64    31    30    1
    65    25    26    1
    66    24    22   am
    67   143   142   ar
    68   142   141    1
    69    26    27    1
    70    21    22    1
    71    21    18    1
    72   127   126    1
    73    22    23    2
    74   159   156    1
    75    18    19    1
    76    85    84    1
    77   101    99    1
    78    19    20    2
    79    99   100    1
    80   163   164    1
    81    87    84    1
    82   158   157    2
    83   156   157    1
    84   156   155    1
    85    84    83    1
    86   171   169   ar
    87   171   173   ar
    88   141   138    1
    89   169   168   ar
    90    27    33   am
    91    27    28    2
    92   136   134    1
    93   173   172   ar
    94    33    34    1
    95   164   165    1
    96   164   167    1
    97   140   139    2
    98   138   139    1
    99   138   137    1
   100   168   167    1
   101   168   170   ar
   102   139   148   am
   103    45    43   am
   104   165   166    2
   105   172   170   ar
   106   134   135    1
   107   134   133    1
   108    82    80    1
   109    79    78    2
   110   148   149    1
   111    34    35    1
   112    42    43    1
   113    42    41    1
   114   149   152    1
   115   149   150    1
   116   153   152    1
   117    43    44    2
   118   151   150    2
   119   180   181    1
   120   180   179    1
   121    71    70    2
   122   130   133    1
   123   130   129    1
   124   130   131    1
   125   152   154    1
   126    77    78    1
   127    77    80    1
   128    77    76    1
   129    35    36    2
   130    80    81    1
   131    37    38    1
   132   132   131    2
   133    41    38    1
   134   179   178    1
   135    70    76   am
   136    70    69    1
   137    74    75    1
   138    74    73    1
   139    38    39    1
   140    72    69    1
   141    72    73    1
   142    66    67    1
   143    66    65    1
   144   178   175    1
   145    69    68    1
   146    39    40    2
   147    65    64    1
   148    57    59   ar
   149    57    55   ar
   150    63    62    2
   151    59    58   ar
   152   175   176    1
   153   175   174    1
   154   176   177    2
   155    54    55   ar
   156    54    52   ar
   157    55    53   ar
   158    62    61    1
   159    64    61    1
   160    61    60    1
   161    58    56   ar
   162    49    48    2
   163    52    51   ar
   164    53    56   ar
   165    53    51   ar
   166    60    48   am
   167    51    50    1
   168    48    47    1
   169    50    47    1
   170    47    46    1
