@<TRIPOS>MOLECULE
tmp/5v8rA00.pdb
 145 140 0 0 0
SMALL
GASTEIGER

@<TRIPOS>ATOM
      1  N         -1.5250  -48.5950  -25.0870 N.3   165  ILE165     -0.1231
      2  CA        -1.1550  -47.6710  -24.0140 C.3   165  ILE165      0.1692
      3  C         -0.0280  -46.6930  -24.3390 C.2   165  ILE165      0.2592
      4  O          0.5100  -46.0320  -23.4520 O.2   165  ILE165     -0.2718
      5  CB        -0.8430  -48.4310  -22.7080 C.3   165  ILE165      0.0266
      6  CG1        0.2340  -49.4810  -22.9230 C.3   165  ILE165      0.0019
      7  CG2       -2.1210  -49.1110  -22.1860 C.3   165  ILE165      0.0020
      8  CD1        0.5750  -50.2180  -21.6160 C.3   165  ILE165      0.0001
      9  N          0.3190  -46.5570  -25.5990 N.am  166  GLN166     -0.1966
     10  CA         1.2650  -45.5170  -25.9670 C.3   166  GLN166      0.1733
     11  C          0.5070  -44.2050  -26.2230 C.2   166  GLN166      0.2616
     12  O         -0.0480  -43.9960  -27.3000 O.2   166  GLN166     -0.2715
     13  CB         2.0400  -45.9140  -27.2120 C.3   166  GLN166      0.0408
     14  CG         3.1930  -44.9970  -27.5130 C.3   166  GLN166      0.0908
     15  CD         3.7100  -45.1880  -28.9150 C.2   166  GLN166      0.2608
     16  OE1        3.0340  -44.8540  -29.8910 O.2   166  GLN166     -0.2717
     17  NE2        4.9180  -45.7260  -29.0270 N.am  166  GLN166     -0.0878
     18  N          0.4600  -43.3250  -25.2340 N.am  167  PHE167     -0.1960
     19  CA        -0.2520  -42.0530  -25.4260 C.3   167  PHE167      0.1771
     20  C          0.7720  -41.0060  -25.8490 C.2   167  PHE167      0.2619
     21  O          1.8980  -41.0640  -25.3940 O.2   167  PHE167     -0.2715
     22  CB        -0.9450  -41.6160  -24.1370 C.3   167  PHE167      0.0574
     23  CG        -2.0080  -42.5940  -23.6510 C.ar  167  PHE167     -0.0200
     24  CD1       -2.4950  -43.5830  -24.4940 C.ar  167  PHE167     -0.0042
     25  CD2       -2.5080  -42.5080  -22.3670 C.ar  167  PHE167     -0.0042
     26  CE1       -3.5000  -44.4760  -24.0700 C.ar  167  PHE167     -0.0003
     27  CE2       -3.5050  -43.4150  -21.9240 C.ar  167  PHE167     -0.0003
     28  CZ        -3.9890  -44.3860  -22.7770 C.ar  167  PHE167     -0.0000
     29  N          0.4090  -40.0690  -26.7220 N.am  168  GLU168     -0.1963
     30  CA         1.3540  -39.0330  -27.1430 C.3   168  GLU168      0.1733
     31  C          0.6260  -37.9110  -27.8710 C.2   168  GLU168      0.2616
     32  O         -0.5330  -38.0520  -28.2780 O.2   168  GLU168     -0.2715
     33  CB         2.4540  -39.5850  -28.0730 C.3   168  GLU168      0.0429
     34  CG         1.9710  -39.9730  -29.4630 C.3   168  GLU168      0.1163
     35  CD         3.0650  -40.6200  -30.3390 C.2   168  GLU168      0.3649
     36  OE1        4.1550  -40.0220  -30.5090 O.co2 168  GLU168     -0.2457
     37  OE2        2.8200  -41.7270  -30.8700 O.co2 168  GLU168     -0.2457
     38  N          1.3410  -36.8070  -28.0450 N.am  169  CYS169     -0.1968
     39  CA         0.8090  -35.6050  -28.6950 C.3   169  CYS169      0.1712
     40  C          1.7380  -35.3710  -29.8710 C.2   169  CYS169      0.2296
     41  O          2.9330  -35.1360  -29.6740 O.2   169  CYS169     -0.2864
     42  CB         0.8250  -34.4430  -27.6920 C.3   169  CYS169      0.0983
     43  SG         0.1880  -32.9350  -28.3120 S.3   169  CYS169     -0.0798
     44  N         -2.9560  -46.6700  -15.7410 N.3   198  PHE198     -0.1241
     45  CA        -1.6950  -47.2810  -15.2410 C.3   198  PHE198      0.1605
     46  C         -1.5750  -47.3300  -13.7140 C.2   198  PHE198      0.2264
     47  O         -2.0180  -46.4300  -13.0160 O.2   198  PHE198     -0.2867
     48  CB        -0.5000  -46.4900  -15.7810 C.3   198  PHE198      0.0534
     49  CG        -0.6250  -46.1710  -17.2250 C.ar  198  PHE198     -0.0203
     50  CD1       -0.2190  -47.0770  -18.1780 C.ar  198  PHE198     -0.0042
     51  CD2       -1.1850  -44.9730  -17.6280 C.ar  198  PHE198     -0.0042
     52  CE1       -0.3500  -46.7940  -19.5120 C.ar  198  PHE198     -0.0003
     53  CE2       -1.3370  -44.6840  -18.9700 C.ar  198  PHE198     -0.0003
     54  CZ        -0.9160  -45.5890  -19.9140 C.ar  198  PHE198     -0.0000
     55  N         -3.5350  -44.5610  -11.7610 N.3   215  THR215     -0.1218
     56  CA        -3.4210  -43.1660  -12.1260 C.3   215  THR215      0.1862
     57  C         -4.8290  -42.7060  -12.5520 C.2   215  THR215      0.2287
     58  O         -5.5550  -43.4590  -13.1790 O.2   215  THR215     -0.2866
     59  CB        -2.4340  -43.0130  -13.2870 C.3   215  THR215      0.1770
     60  OG1       -1.1270  -43.4510  -12.8640 O.3   215  THR215     -0.2211
     61  CG2       -2.3680  -41.5160  -13.7750 C.3   215  THR215      0.0375
     62  N         -5.5800  -36.8910  -15.1360 N.3   219  VAL219     -0.1231
     63  CA        -4.1800  -36.4060  -15.0350 C.3   219  VAL219      0.1692
     64  C         -3.4080  -36.6980  -16.2930 C.2   219  VAL219      0.2592
     65  O         -2.7290  -35.8310  -16.8370 O.2   219  VAL219     -0.2718
     66  CB        -3.4410  -37.0450  -13.8280 C.3   219  VAL219      0.0266
     67  CG1       -1.9620  -36.6520  -13.8100 C.3   219  VAL219      0.0020
     68  CG2       -4.1270  -36.6410  -12.5770 C.3   219  VAL219      0.0020
     69  N         -3.5590  -37.9330  -16.7850 N.am  220  THR220     -0.1953
     70  CA        -2.9210  -38.3760  -18.0180 C.3   220  THR220      0.1897
     71  C         -3.3500  -37.5050  -19.2100 C.2   220  THR220      0.2313
     72  O         -2.5440  -37.1040  -20.0870 O.2   220  THR220     -0.2863
     73  CB        -3.3170  -39.8560  -18.2970 C.3   220  THR220      0.1794
     74  OG1       -2.9130  -40.6350  -17.1690 O.3   220  THR220     -0.2208
     75  CG2       -2.6340  -40.3610  -19.5500 C.3   220  THR220      0.0378
     76  N         -1.8120  -34.0300  -18.8580 N.3   223  HIS223     -0.1226
     77  CA        -0.3900  -34.1470  -19.3070 C.3   223  HIS223      0.1752
     78  C         -0.2270  -33.9480  -20.8120 C.2   223  HIS223      0.2595
     79  O          0.5600  -33.0990  -21.2850 O.2   223  HIS223     -0.2718
     80  CB         0.1910  -35.4920  -18.8740 C.3   223  HIS223      0.0759
     81  CG         1.6430  -35.6390  -19.1940 C.ar  223  HIS223      0.0818
     82  ND1        2.6190  -35.6210  -18.2260 N.ar  223  HIS223     -0.2268
     83  CD2        2.2860  -35.8260  -20.3720 C.ar  223  HIS223      0.1154
     84  CE1        3.8090  -35.7710  -18.7860 C.ar  223  HIS223      0.1986
     85  NE2        3.6340  -35.9050  -20.0860 N.ar  223  HIS223     -0.2212
     86  N         -1.0100  -34.6770  -21.5910 N.am  224  GLU224     -0.1979
     87  CA        -0.9840  -34.5380  -23.0330 C.3   224  GLU224      0.1602
     88  C         -1.4660  -33.1720  -23.5140 C.2   224  GLU224      0.2287
     89  O         -0.9050  -32.6280  -24.4820 O.2   224  GLU224     -0.2864
     90  CB        -1.8170  -35.6280  -23.6990 C.3   224  GLU224      0.0415
     91  CG        -1.3100  -37.0250  -23.3290 C.3   224  GLU224      0.1163
     92  CD         0.1210  -37.2800  -23.7990 C.2   224  GLU224      0.3649
     93  OE1        0.7570  -38.1640  -23.2010 O.co2 224  GLU224     -0.2457
     94  OE2        0.6090  -36.6200  -24.7430 O.co2 224  GLU224     -0.2457
     95  N          1.4310  -30.7010  -23.2450 N.3   227  HIS227     -0.1241
     96  CA         2.3010  -30.8020  -24.4360 C.3   227  HIS227      0.1621
     97  C          1.6500  -30.0300  -25.5830 C.2   227  HIS227      0.2264
     98  O          2.3130  -29.2600  -26.2910 O.2   227  HIS227     -0.2867
     99  CB         2.4790  -32.2600  -24.8920 C.3   227  HIS227      0.0745
    100  CG         3.4890  -33.0120  -24.1020 C.ar  227  HIS227      0.0817
    101  ND1        4.8250  -32.6870  -24.1190 N.ar  227  HIS227     -0.2268
    102  CD2        3.3690  -34.0710  -23.2670 C.ar  227  HIS227      0.1154
    103  CE1        5.4900  -33.5130  -23.3310 C.ar  227  HIS227      0.1986
    104  NE2        4.6300  -34.3620  -22.8000 N.ar  227  HIS227     -0.2212
    105  N          9.4460  -33.7250  -21.4350 N.3   249  GLU249     -0.1245
    106  CA         8.7240  -34.5950  -20.4980 C.3   249  GLU249      0.1567
    107  C          8.8710  -34.0930  -19.0560 C.2   249  GLU249      0.2260
    108  O          7.8920  -34.0430  -18.3010 O.2   249  GLU249     -0.2867
    109  CB         9.2090  -36.0800  -20.5860 C.3   249  GLU249      0.0388
    110  CG         8.8750  -36.7680  -21.8640 C.3   249  GLU249      0.1160
    111  CD         7.3810  -36.7840  -22.0850 C.2   249  GLU249      0.3649
    112  OE1        6.6680  -36.5800  -21.0870 O.co2 249  GLU249     -0.2457
    113  OE2        6.9280  -36.9910  -23.2230 O.co2 249  GLU249     -0.2457
    114  N          1.7400  -31.2940  -14.8150 N.3   336  GLU336     -0.1245
    115  CA         1.0430  -32.4650  -14.2300 C.3   336  GLU336      0.1567
    116  C          0.9890  -32.3440  -12.7140 C.2   336  GLU336      0.2260
    117  O         -0.0760  -32.5360  -12.0900 O.2   336  GLU336     -0.2867
    118  CB         1.7420  -33.7790  -14.6430 C.3   336  GLU336      0.0388
    119  CG         1.0740  -35.0590  -14.0810 C.3   336  GLU336      0.1160
    120  CD         1.7740  -36.3260  -14.5660 C.2   336  GLU336      0.3649
    121  OE1        2.3450  -36.2960  -15.6730 O.co2 336  GLU336     -0.2457
    122  OE2        1.7810  -37.3430  -13.8410 O.co2 336  GLU336     -0.2457
    123  N          2.0220  -40.5490   -9.3250 N.3   348  ARG348     -0.1245
    124  CA         3.4480  -40.8740   -9.2300 C.3   348  ARG348      0.1563
    125  C          4.1280  -39.6070   -8.7240 C.2   348  ARG348      0.2260
    126  O          3.6330  -38.4980   -8.9530 O.2   348  ARG348     -0.2867
    127  CB         3.9770  -41.2990  -10.6080 C.3   348  ARG348      0.0307
    128  CG         4.0920  -40.1770  -11.6110 C.3   348  ARG348      0.0489
    129  CD         4.2350  -40.7000  -13.0550 C.3   348  ARG348      0.2205
    130  NE         3.7560  -39.7160  -14.0260 N.pl3 348  ARG348     -0.0865
    131  CZ         4.0170  -39.7430  -15.3320 C.cat 348  ARG348      0.5346
    132  NH1        4.7730  -40.7210  -15.8300 N.pl3 348  ARG348      0.1354
    133  NH2        3.5190  -38.7950  -16.1580 N.pl3 348  ARG348      0.1354
    134  N          8.4700  -38.3510  -12.5760 N.3   351  TYR351     -0.1241
    135  CA         8.0930  -38.7490  -13.9240 C.3   351  TYR351      0.1605
    136  C          8.4180  -40.2230  -14.2000 C.2   351  TYR351      0.2264
    137  O          7.6510  -40.8910  -14.8880 O.2   351  TYR351     -0.2867
    138  CB         8.7220  -37.8340  -15.0070 C.3   351  TYR351      0.0534
    139  CG         8.3200  -38.2750  -16.4030 C.ar  351  TYR351     -0.0201
    140  CD1        9.2030  -38.9810  -17.2090 C.ar  351  TYR351     -0.0009
    141  CD2        7.0320  -38.0400  -16.8920 C.ar  351  TYR351     -0.0009
    142  CE1        8.8310  -39.4100  -18.4920 C.ar  351  TYR351      0.0417
    143  CE2        6.6440  -38.4980  -18.1700 C.ar  351  TYR351      0.0417
    144  CZ         7.5590  -39.1970  -18.9580 C.ar  351  TYR351      0.1957
    145  OH         7.2270  -39.6400  -20.2400 O.3   351  TYR351     -0.2866
@<TRIPOS>BOND
     1    37    35   ar
     2    36    35   ar
     3    35    34    1
     4    16    15    2
     5    40    41    2
     6    40    39    1
     7    34    33    1
     8    17    15   am
     9    15    14    1
    10    39    38    1
    11    39    42    1
    12    43    42    1
    13    32    31    2
    14    33    30    1
    15    38    31   am
    16    31    30    1
    17    14    13    1
    18    12    11    2
    19    13    10    1
    20    30    29    1
    21    29    20   am
    22    98    97    2
    23    11    10    1
    24    11    18   am
    25    10     9    1
    26    20    19    1
    27    20    21    2
    28     9     3   am
    29    97    96    1
    30    19    18    1
    31    19    22    1
    32     1     2    1
    33    99    96    1
    34    99   100    1
    35    94    92   ar
    36    24    26   ar
    37    24    23   ar
    38    89    88    2
    39    96    95    1
    40     3     2    1
    41     3     4    2
    42    22    23    1
    43   101   100   ar
    44   101   103   ar
    45   100   102   ar
    46    26    28   ar
    47     2     5    1
    48    92    91    1
    49    92    93   ar
    50    90    91    1
    51    90    87    1
    52    23    25   ar
    53    88    87    1
    54   103   104   ar
    55   102   104   ar
    56   113   111   ar
    57    87    86    1
    58     6     5    1
    59     6     8    1
    60    28    27   ar
    61     5     7    1
    62    25    27   ar
    63   111   110    1
    64   111   112   ar
    65   110   109    1
    66    86    78   am
    67   105   106    1
    68    79    78    2
    69    78    77    1
    70   109   106    1
    71   106   107    1
    72    83    85   ar
    73    83    81   ar
    74   145   144    1
    75    72    71    2
    76    85    84   ar
    77    54    52   ar
    78    54    53   ar
    79    75    73    1
    80    52    50   ar
    81    77    80    1
    82    77    76    1
    83    71    70    1
    84    81    80    1
    85    81    82   ar
    86   107   108    2
    87    53    51   ar
    88   144   142   ar
    89   144   143   ar
    90    84    82   ar
    91   142   140   ar
    92    73    70    1
    93    73    74    1
    94    50    49   ar
    95   143   141   ar
    96    70    69    1
    97    51    49   ar
    98    49    48    1
    99   140   139   ar
   100   141   139   ar
   101    65    64    2
   102    69    64   am
   103   139   138    1
   104    64    63    1
   105   133   131    1
   106   132   131    1
   107    48    45    1
   108    44    45    1
   109   121   120   ar
   110   131   130    2
   111    45    46    1
   112    62    63    1
   113    63    66    1
   114   138   135    1
   115   137   136    2
   116   114   115    1
   117   118   115    1
   118   118   119    1
   119   120   119    1
   120   120   122   ar
   121   115   116    1
   122   136   135    1
   123   130   129    1
   124   135   134    1
   125    66    67    1
   126    66    68    1
   127    61    59    1
   128    46    47    2
   129    59    60    1
   130    59    56    1
   131    58    57    2
   132   129   128    1
   133   116   117    2
   134    57    56    1
   135    56    55    1
   136   128   127    1
   137   127   124    1
   138   123   124    1
   139   124   125    1
   140   126   125    2
