@<TRIPOS>MOLECULE
tmp/5v8rB00.pdb
 156 151 0 0 0
SMALL
GASTEIGER

@<TRIPOS>ATOM
      1  N        -30.5510    5.6550  -16.1320 N.3   164  ILE164     -0.1231
      2  CA       -30.5460    4.6500  -15.0780 C.3   164  ILE164      0.1692
      3  C        -31.7270    3.7240  -15.1190 C.2   164  ILE164      0.2592
      4  O        -31.9950    3.0320  -14.1600 O.2   164  ILE164     -0.2718
      5  CB       -30.4160    5.2550  -13.6500 C.3   164  ILE164      0.0266
      6  CG1      -31.6160    6.1400  -13.3010 C.3   164  ILE164      0.0019
      7  CG2      -29.1130    6.0060  -13.5240 C.3   164  ILE164      0.0020
      8  CD1      -31.4160    6.8670  -11.9550 C.3   164  ILE164      0.0001
      9  N        -32.4050    3.6520  -16.2520 N.am  165  GLN165     -0.1966
     10  CA       -33.4690    2.6800  -16.4110 C.3   165  GLN165      0.1733
     11  C        -32.9070    1.4130  -17.1220 C.2   165  GLN165      0.2616
     12  O        -32.6650    1.4280  -18.3240 O.2   165  GLN165     -0.2715
     13  CB       -34.6040    3.3010  -17.2360 C.3   165  GLN165      0.0408
     14  CG       -35.8320    2.4070  -17.3160 C.3   165  GLN165      0.0908
     15  CD       -36.2620    2.1620  -18.7510 C.2   165  GLN165      0.2608
     16  OE1      -35.6930    1.3140  -19.4360 O.2   165  GLN165     -0.2717
     17  NE2      -37.2730    2.9060  -19.2170 N.am  165  GLN165     -0.0878
     18  N        -32.6550    0.3490  -16.3690 N.am  166  PHE166     -0.1960
     19  CA       -32.0930   -0.8830  -16.9380 C.3   166  PHE166      0.1771
     20  C        -33.2380   -1.8800  -17.1070 C.2   166  PHE166      0.2619
     21  O        -34.1290   -1.9010  -16.2860 O.2   166  PHE166     -0.2715
     22  CB       -31.0310   -1.4880  -15.9980 C.3   166  PHE166      0.0574
     23  CG       -29.8320   -0.5600  -15.7330 C.ar  166  PHE166     -0.0200
     24  CD1      -29.6140    0.5660  -16.5240 C.ar  166  PHE166     -0.0042
     25  CD2      -28.9190   -0.8600  -14.7270 C.ar  166  PHE166     -0.0042
     26  CE1      -28.5210    1.4160  -16.2710 C.ar  166  PHE166     -0.0003
     27  CE2      -27.8090   -0.0190  -14.4710 C.ar  166  PHE166     -0.0003
     28  CZ       -27.6130    1.1060  -15.2370 C.ar  166  PHE166     -0.0000
     29  N        -33.2000   -2.7110  -18.1370 N.am  167  GLU167     -0.1963
     30  CA       -34.2110   -3.7650  -18.2600 C.3   167  GLU167      0.1733
     31  C        -33.8050   -4.8040  -19.2820 C.2   167  GLU167      0.2616
     32  O        -32.8620   -4.6030  -20.0580 O.2   167  GLU167     -0.2715
     33  CB       -35.5640   -3.1730  -18.6830 C.3   167  GLU167      0.0429
     34  CG       -35.5390   -2.6440  -20.0780 C.3   167  GLU167      0.1163
     35  CD       -36.9260   -2.2530  -20.6010 C.2   167  GLU167      0.3649
     36  OE1      -37.8950   -3.0520  -20.5250 O.co2 167  GLU167     -0.2457
     37  OE2      -37.0240   -1.1360  -21.1310 O.co2 167  GLU167     -0.2457
     38  N        -34.5250   -5.9270  -19.2860 N.am  168  CYS168     -0.1968
     39  CA       -34.3450   -6.9460  -20.3080 C.3   168  CYS168      0.1712
     40  C        -35.6280   -6.9710  -21.1560 C.2   168  CYS168      0.2296
     41  O        -36.6790   -7.2680  -20.6410 O.2   168  CYS168     -0.2864
     42  CB       -34.0840   -8.3040  -19.6170 C.3   168  CYS168      0.0983
     43  SG       -33.5490   -9.5990  -20.6920 S.3   168  CYS168     -0.0798
     44  N        -25.8300    2.2000   -7.8620 N.3   197  PHE197     -0.1241
     45  CA       -26.8810    2.6420   -6.9400 C.3   197  PHE197      0.1605
     46  C        -26.5510    2.4410   -5.4530 C.2   197  PHE197      0.2264
     47  O        -25.8940    1.4460   -5.0760 O.2   197  PHE197     -0.2867
     48  CB       -28.1270    1.8620   -7.3210 C.3   197  PHE197      0.0534
     49  CG       -28.3810    1.9210   -8.7800 C.ar  197  PHE197     -0.0203
     50  CD1      -28.0030    0.8900   -9.6000 C.ar  197  PHE197     -0.0042
     51  CD2      -28.9320    3.0700   -9.3380 C.ar  197  PHE197     -0.0042
     52  CE1      -28.1750    0.9860  -11.0070 C.ar  197  PHE197     -0.0003
     53  CE2      -29.1220    3.1780  -10.6990 C.ar  197  PHE197     -0.0003
     54  CZ       -28.7620    2.1310  -11.5430 C.ar  197  PHE197     -0.0000
     55  N        -24.0070   -0.6330   -4.7380 N.3   218  THR218     -0.1218
     56  CA       -24.1860   -1.9490   -5.3630 C.3   218  THR218      0.1862
     57  C        -23.0380   -2.2570   -6.3150 C.2   218  THR218      0.2287
     58  O        -22.6200   -1.3830   -7.0690 O.2   218  THR218     -0.2866
     59  CB       -25.5170   -1.9190   -6.2350 C.3   218  THR218      0.1770
     60  OG1      -26.6340   -1.7370   -5.3410 O.3   218  THR218     -0.2211
     61  CG2      -25.7050   -3.2300   -6.9810 C.3   218  THR218      0.0375
     62  N        -23.4460   -7.5470   -9.8830 N.3   222  VAL222     -0.1231
     63  CA       -24.7600   -8.0110   -9.3550 C.3   222  VAL222      0.1692
     64  C        -25.8900   -7.5250  -10.2330 C.2   222  VAL222      0.2592
     65  O        -26.7610   -8.3090  -10.6360 O.2   222  VAL222     -0.2718
     66  CB       -24.9720   -7.5560   -7.8780 C.3   222  VAL222      0.0266
     67  CG1      -26.4110   -7.8970   -7.3220 C.3   222  VAL222      0.0020
     68  CG2      -23.9080   -8.2040   -6.9770 C.3   222  VAL222      0.0020
     69  N        -25.8650   -6.2390  -10.5810 N.am  223  THR223     -0.1953
     70  CA       -26.9270   -5.6630  -11.4260 C.3   223  THR223      0.1897
     71  C        -26.9990   -6.3480  -12.7850 C.2   223  THR223      0.2313
     72  O        -28.0870   -6.6630  -13.2840 O.2   223  THR223     -0.2863
     73  CB       -26.6380   -4.1860  -11.6530 C.3   223  THR223      0.1794
     74  OG1      -26.4680   -3.6000  -10.3800 O.3   223  THR223     -0.2208
     75  CG2      -27.7940   -3.4580  -12.3660 C.3   223  THR223      0.0378
     76  N        -28.3210   -9.8240  -12.4960 N.3   226  HIS226     -0.1226
     77  CA       -29.8020   -9.7560  -12.3550 C.3   226  HIS226      0.1752
     78  C        -30.4740   -9.6830  -13.7220 C.2   226  HIS226      0.2595
     79  O        -31.4160  -10.4500  -14.0050 O.2   226  HIS226     -0.2718
     80  CB       -30.1750   -8.5210  -11.5010 C.3   226  HIS226      0.0759
     81  CG       -31.6540   -8.2170  -11.4400 C.ar  226  HIS226      0.0818
     82  ND1      -32.3440   -8.1880  -10.2510 N.ar  226  HIS226     -0.2268
     83  CD2      -32.5590   -7.8940  -12.4040 C.ar  226  HIS226      0.1154
     84  CE1      -33.6030   -7.8480  -10.4690 C.ar  226  HIS226      0.1986
     85  NE2      -33.7630   -7.6820  -11.7700 N.ar  226  HIS226     -0.2212
     86  N        -30.0030   -8.7830  -14.5910 N.am  227  GLU227     -0.1979
     87  CA       -30.5290   -8.6970  -15.9670 C.3   227  GLU227      0.1602
     88  C        -30.3660  -10.0040  -16.7800 C.2   227  GLU227      0.2287
     89  O        -31.3120  -10.4230  -17.4970 O.2   227  GLU227     -0.2864
     90  CB       -29.9400   -7.4960  -16.7630 C.3   227  GLU227      0.0415
     91  CG       -30.2480   -6.1010  -16.1320 C.3   227  GLU227      0.1163
     92  CD       -31.7320   -5.8210  -15.9440 C.2   227  GLU227      0.3649
     93  OE1      -32.0700   -4.9160  -15.1670 O.co2 227  GLU227     -0.2457
     94  OE2      -32.5810   -6.5010  -16.5350 O.co2 227  GLU227     -0.2457
     95  N        -33.0650  -12.5680  -15.9020 N.3   230  HIS230     -0.1241
     96  CA       -34.2560  -12.3060  -16.7080 C.3   230  HIS230      0.1621
     97  C        -34.0770  -12.8700  -18.0940 C.2   230  HIS230      0.2264
     98  O        -34.9680  -13.4880  -18.6290 O.2   230  HIS230     -0.2867
     99  CB       -34.4900  -10.7840  -16.8670 C.3   230  HIS230      0.0745
    100  CG       -35.0540  -10.1130  -15.6570 C.ar  230  HIS230      0.0817
    101  ND1      -36.2240  -10.5220  -15.0510 N.ar  230  HIS230     -0.2268
    102  CD2      -34.6440   -9.0160  -14.9770 C.ar  230  HIS230      0.1154
    103  CE1      -36.5020   -9.7180  -14.0390 C.ar  230  HIS230      0.1986
    104  NE2      -35.5500   -8.8070  -13.9650 N.ar  230  HIS230     -0.2212
    105  N        -39.9860  -10.0350  -11.2430 N.3   252  GLU252     -0.1245
    106  CA       -38.9760   -9.2090  -10.6180 C.3   252  GLU252      0.1567
    107  C        -38.5990   -9.8360   -9.2670 C.2   252  GLU252      0.2260
    108  O        -37.4280   -9.9970   -8.9620 O.2   252  GLU252     -0.2867
    109  CB       -39.5590   -7.7900  -10.4570 C.3   252  GLU252      0.0388
    110  CG       -38.5790   -6.6550  -10.4670 C.3   252  GLU252      0.1160
    111  CD       -37.4640   -6.7770  -11.5400 C.2   252  GLU252      0.3649
    112  OE1      -37.7650   -6.8010  -12.7620 O.co2 252  GLU252     -0.2457
    113  OE2      -36.3180   -6.7680  -11.1040 O.co2 252  GLU252     -0.2457
    114  N        -30.4870  -13.0390   -7.9310 N.3   340  GLU340     -0.1245
    115  CA       -29.6310  -11.9290   -7.4870 C.3   340  GLU340      0.1567
    116  C        -29.0430  -12.2710   -6.1210 C.2   340  GLU340      0.2260
    117  O        -27.8490  -12.1620   -5.8810 O.2   340  GLU340     -0.2867
    118  CB       -30.4560  -10.6580   -7.3250 C.3   340  GLU340      0.0388
    119  CG       -29.5990   -9.4660   -6.8800 C.3   340  GLU340      0.1160
    120  CD       -30.3390   -8.1420   -6.9620 C.2   340  GLU340      0.3649
    121  OE1      -31.2760   -8.0260   -7.7930 O.co2 340  GLU340     -0.2457
    122  OE2      -29.9670   -7.2140   -6.1950 O.co2 340  GLU340     -0.2457
    123  N        -28.3600   -4.7930   -1.3970 N.3   352  ARG352     -0.1245
    124  CA       -29.6830   -4.5400   -0.8410 C.3   352  ARG352      0.1563
    125  C        -30.2830   -5.8600   -0.3640 C.2   352  ARG352      0.2260
    126  O        -29.9510   -6.9180   -0.8910 O.2   352  ARG352     -0.2867
    127  CB       -30.5830   -3.8560   -1.8660 C.3   352  ARG352      0.0307
    128  CG       -30.9780   -4.6280   -3.1340 C.3   352  ARG352      0.0489
    129  CD       -31.4960   -3.5520   -4.1310 C.3   352  ARG352      0.2205
    130  NE       -32.1230   -3.9440   -5.4100 N.pl3 352  ARG352     -0.0865
    131  CZ       -32.1250   -5.1570   -5.9420 C.cat 352  ARG352      0.5346
    132  NH1      -31.5380   -6.1430   -5.2970 N.pl3 352  ARG352      0.1354
    133  NH2      -32.7090   -5.3860   -7.1230 N.pl3 352  ARG352      0.1354
    134  N        -35.9330   -6.1310   -2.8210 N.3   355  TYR355     -0.1241
    135  CA       -36.0250   -5.3510   -4.0640 C.3   355  TYR355      0.1605
    136  C        -36.3050   -3.8770   -3.7570 C.2   355  TYR355      0.2264
    137  O        -35.8960   -2.9980   -4.5090 O.2   355  TYR355     -0.2867
    138  CB       -37.0790   -5.9480   -5.0310 C.3   355  TYR355      0.0534
    139  CG       -37.1610   -5.3250   -6.4460 C.ar  355  TYR355     -0.0201
    140  CD1      -38.3260   -4.6800   -6.8800 C.ar  355  TYR355     -0.0009
    141  CD2      -36.0880   -5.4040   -7.3480 C.ar  355  TYR355     -0.0009
    142  CE1      -38.4240   -4.1150   -8.1710 C.ar  355  TYR355      0.0417
    143  CE2      -36.1730   -4.8370   -8.6470 C.ar  355  TYR355      0.0417
    144  CZ       -37.3490   -4.1920   -9.0510 C.ar  355  TYR355      0.1957
    145  OH       -37.4620   -3.6320  -10.3270 O.3   355  TYR355     -0.2866
    146  N        -33.3950   -0.1160   -1.8030 N.3   358  PHE358     -0.1241
    147  CA       -32.5250    0.9130   -2.3340 C.3   358  PHE358      0.1605
    148  C        -32.8570    2.2150   -1.6010 C.2   358  PHE358      0.2264
    149  O        -34.0370    2.5320   -1.4000 O.2   358  PHE358     -0.2867
    150  CB       -32.7620    1.1050   -3.8400 C.3   358  PHE358      0.0534
    151  CG       -31.9250    0.2100   -4.7250 C.ar  358  PHE358     -0.0203
    152  CD1      -30.6560   -0.2000   -4.3370 C.ar  358  PHE358     -0.0042
    153  CD2      -32.3950   -0.1780   -5.9720 C.ar  358  PHE358     -0.0042
    154  CE1      -29.8850   -1.0050   -5.1630 C.ar  358  PHE358     -0.0003
    155  CE2      -31.6300   -0.9790   -6.8020 C.ar  358  PHE358     -0.0003
    156  CZ       -30.3740   -1.3950   -6.3960 C.ar  358  PHE358     -0.0000
@<TRIPOS>BOND
     1    40    41    2
     2    40    39    1
     3    37    35   ar
     4    43    42    1
     5    35    36   ar
     6    35    34    1
     7    39    42    1
     8    39    38    1
     9    34    33    1
    10    32    31    2
    11    16    15    2
    12    38    31   am
    13    31    30    1
    14    17    15   am
    15    15    14    1
    16    33    30    1
    17    98    97    2
    18    12    11    2
    19    30    29    1
    20    29    20   am
    21    97    96    1
    22    89    88    2
    23    14    13    1
    24    13    10    1
    25    11    10    1
    26    11    18   am
    27    20    19    1
    28    20    21    2
    29    19    18    1
    30    19    22    1
    31    99    96    1
    32    99   100    1
    33    88    87    1
    34    90    91    1
    35    90    87    1
    36    96    95    1
    37    94    92   ar
    38    24    26   ar
    39    24    23   ar
    40    10     9    1
    41    26    28   ar
    42     9     3   am
    43    91    92    1
    44     1     2    1
    45    22    23    1
    46    87    86    1
    47    92    93   ar
    48    23    25   ar
    49   100   101   ar
    50   100   102   ar
    51    28    27   ar
    52     3     2    1
    53     3     4    2
    54     2     5    1
    55   101   103   ar
    56   102   104   ar
    57    25    27   ar
    58    86    78   am
    59   103   104   ar
    60    79    78    2
    61    78    77    1
    62     5     7    1
    63     5     6    1
    64     6     8    1
    65    72    71    2
    66    71    70    1
    67   112   111   ar
    68    76    77    1
    69    83    85   ar
    70    83    81   ar
    71    75    73    1
    72    77    80    1
    73    85    84   ar
    74    73    70    1
    75    73    74    1
    76    54    52   ar
    77    54    53   ar
    78   111   113   ar
    79   111   110    1
    80    80    81    1
    81    81    82   ar
    82    70    69    1
    83   105   106    1
    84    52    50   ar
    85    53    51   ar
    86    65    64    2
    87   106   109    1
    88   106   107    1
    89    69    64   am
    90    84    82   ar
    91   110   109    1
    92   145   144    1
    93    64    63    1
    94    62    63    1
    95    50    49   ar
    96    63    66    1
    97    51    49   ar
    98   107   108    2
    99   144   143   ar
   100   144   142   ar
   101    49    48    1
   102   143   141   ar
   103   142   140   ar
   104   114   115    1
   105    66    67    1
   106    66    68    1
   107    44    45    1
   108   121   120   ar
   109   115   118    1
   110   115   116    1
   111   141   139   ar
   112   118   119    1
   113    48    45    1
   114   133   131    1
   115    58    57    2
   116    61    59    1
   117   120   119    1
   118   120   122   ar
   119    45    46    1
   120   140   139   ar
   121   155   156   ar
   122   155   153   ar
   123   139   138    1
   124   156   154   ar
   125    57    56    1
   126    59    56    1
   127    59    60    1
   128   116   117    2
   129   153   151   ar
   130   131   130    2
   131   131   132    1
   132    46    47    2
   133   130   129    1
   134    56    55    1
   135   154   152   ar
   136   138   135    1
   137   151   152   ar
   138   151   150    1
   139   137   136    2
   140   129   128    1
   141   135   136    1
   142   135   134    1
   143   150   147    1
   144   128   127    1
   145   147   146    1
   146   147   148    1
   147   127   124    1
   148   148   149    2
   149   123   124    1
   150   126   125    2
   151   124   125    1
