@<TRIPOS>MOLECULE
tmp/5v8tA00.pdb
 137 134 0 0 0
SMALL
GASTEIGER

@<TRIPOS>ATOM
      1  N       -118.8260  -23.4420  147.1680 N.3   111  TYR111     -0.1241
      2  CA      -120.0370  -23.6830  146.4060 C.3   111  TYR111      0.1605
      3  C       -120.8010  -22.3810  146.2490 C.2   111  TYR111      0.2264
      4  O       -120.6720  -21.4610  147.0610 O.2   111  TYR111     -0.2867
      5  CB      -120.9420  -24.7310  147.0720 C.3   111  TYR111      0.0534
      6  CG      -121.6510  -24.2390  148.3170 C.ar  111  TYR111     -0.0201
      7  CD1     -122.9110  -23.6460  148.2400 C.ar  111  TYR111     -0.0009
      8  CD2     -121.0640  -24.3660  149.5680 C.ar  111  TYR111     -0.0009
      9  CE1     -123.5580  -23.1930  149.3730 C.ar  111  TYR111      0.0417
     10  CE2     -121.7060  -23.9170  150.7080 C.ar  111  TYR111      0.0417
     11  CZ      -122.9520  -23.3340  150.6050 C.ar  111  TYR111      0.1957
     12  OH      -123.5930  -22.8890  151.7380 O.3   111  TYR111     -0.2866
     13  N       -129.0880  -18.2450  145.7800 N.3   121  PHE121     -0.1227
     14  CA      -129.6270  -18.2860  147.1330 C.3   121  PHE121      0.1736
     15  C       -128.5700  -18.4250  148.2230 C.2   121  PHE121      0.2595
     16  O       -128.8550  -18.0790  149.3730 O.2   121  PHE121     -0.2718
     17  CB      -130.6730  -19.4070  147.2780 C.3   121  PHE121      0.0547
     18  CG      -130.1630  -20.7880  146.9530 C.ar  121  PHE121     -0.0202
     19  CD1     -129.5010  -21.5510  147.9040 C.ar  121  PHE121     -0.0042
     20  CD2     -130.4000  -21.3440  145.7050 C.ar  121  PHE121     -0.0042
     21  CE1     -129.0470  -22.8260  147.6010 C.ar  121  PHE121     -0.0003
     22  CE2     -129.9540  -22.6210  145.3990 C.ar  121  PHE121     -0.0003
     23  CZ      -129.2770  -23.3610  146.3500 C.ar  121  PHE121     -0.0000
     24  N       -127.3660  -18.8890  147.8980 N.am  122  ASP122     -0.1974
     25  CA      -126.2890  -18.9280  148.8820 C.3   122  ASP122      0.1709
     26  C       -124.9760  -19.2080  148.1690 C.2   122  ASP122      0.2293
     27  O       -124.9590  -19.8100  147.0900 O.2   122  ASP122     -0.2864
     28  CB      -126.5340  -19.9800  149.9730 C.3   122  ASP122      0.1436
     29  CG      -125.6020  -19.8070  151.1660 C.2   122  ASP122      0.3671
     30  OD1     -124.8600  -20.7530  151.5030 O.co2 122  ASP122     -0.2456
     31  OD2     -125.5920  -18.7030  151.7480 O.co2 122  ASP122     -0.2456
     32  N       -118.7880  -15.5710  151.5690 N.3   127  ARG127     -0.1245
     33  CA      -118.3370  -15.4380  152.9450 C.3   127  ARG127      0.1563
     34  C       -116.8530  -15.7280  153.1090 C.2   127  ARG127      0.2260
     35  O       -116.3570  -15.7050  154.2410 O.2   127  ARG127     -0.2867
     36  CB      -119.1500  -16.3650  153.8540 C.3   127  ARG127      0.0307
     37  CG      -120.6190  -16.0010  153.9410 C.3   127  ARG127      0.0489
     38  CD      -121.3580  -16.9290  154.8860 C.3   127  ARG127      0.2205
     39  NE      -121.4350  -18.2900  154.3670 N.pl3 127  ARG127     -0.0865
     40  CZ      -122.3280  -18.6970  153.4680 C.cat 127  ARG127      0.5346
     41  NH1     -123.2210  -17.8450  152.9830 N.pl3 127  ARG127      0.1354
     42  NH2     -122.3300  -19.9530  153.0560 N.pl3 127  ARG127      0.1354
     43  N       -116.7880  -24.7600  152.9550 N.3   131  PHE131     -0.1241
     44  CA      -117.8270  -25.5490  153.6050 C.3   131  PHE131      0.1605
     45  C       -117.3890  -27.0050  153.6730 C.2   131  PHE131      0.2264
     46  O       -117.0540  -27.6060  152.6470 O.2   131  PHE131     -0.2867
     47  CB      -119.1520  -25.4270  152.8490 C.3   131  PHE131      0.0534
     48  CG      -120.2390  -26.3130  153.3820 C.ar  131  PHE131     -0.0203
     49  CD1     -120.5590  -27.5010  152.7440 C.ar  131  PHE131     -0.0042
     50  CD2     -120.9440  -25.9570  154.5220 C.ar  131  PHE131     -0.0042
     51  CE1     -121.5650  -28.3190  153.2320 C.ar  131  PHE131     -0.0003
     52  CE2     -121.9480  -26.7720  155.0160 C.ar  131  PHE131     -0.0003
     53  CZ      -122.2570  -27.9550  154.3710 C.ar  131  PHE131     -0.0000
     54  N       -125.8750  -35.5800  156.1220 N.3   139  MET139     -0.1230
     55  CA      -125.8080  -34.2490  156.7140 C.3   139  MET139      0.1702
     56  C       -126.1140  -33.1350  155.7220 C.2   139  MET139      0.2592
     57  O       -126.2590  -31.9790  156.1360 O.2   139  MET139     -0.2718
     58  CB      -124.4320  -34.0240  157.3460 C.3   139  MET139      0.0401
     59  CG      -124.0610  -35.1000  158.3520 C.3   139  MET139      0.0596
     60  SD      -125.1330  -34.9980  159.8010 S.3   139  MET139     -0.1393
     61  CE      -125.9350  -36.6010  159.7700 C.3   139  MET139      0.0692
     62  N       -126.1890  -33.4490  154.4310 N.am  140  VAL140     -0.1966
     63  CA      -126.5400  -32.4960  153.3890 C.3   140  VAL140      0.1727
     64  C       -127.6700  -33.1160  152.5780 C.2   140  VAL140      0.2616
     65  O       -128.0510  -34.2680  152.7920 O.2   140  VAL140     -0.2715
     66  CB      -125.3400  -32.1350  152.4900 C.3   140  VAL140      0.0290
     67  CG1     -124.2870  -31.3870  153.2930 C.3   140  VAL140      0.0023
     68  CG2     -124.7420  -33.3950  151.8790 C.3   140  VAL140      0.0023
     69  N       -128.2150  -32.3350  151.6410 N.am  141  ILE141     -0.1977
     70  CA      -129.2820  -32.8600  150.8000 C.3   141  ILE141      0.1596
     71  C       -128.7530  -34.0370  149.9870 C.2   141  ILE141      0.2287
     72  O       -127.5500  -34.1480  149.7130 O.2   141  ILE141     -0.2864
     73  CB      -129.8670  -31.7730  149.8800 C.3   141  ILE141      0.0276
     74  CG1     -128.7550  -31.1080  149.0680 C.3   141  ILE141      0.0022
     75  CG2     -130.6560  -30.7500  150.6960 C.3   141  ILE141      0.0022
     76  CD1     -129.2420  -29.9660  148.1890 C.3   141  ILE141      0.0001
     77  N       -126.3260  -33.7400  147.0410 N.3   144  TRP144     -0.1241
     78  CA      -124.9250  -33.4680  147.3530 C.3   144  TRP144      0.1605
     79  C       -124.1740  -34.7430  147.7280 C.2   144  TRP144      0.2264
     80  O       -123.0550  -34.9710  147.2560 O.2   144  TRP144     -0.2867
     81  CB      -124.8240  -32.4460  148.4870 C.3   144  TRP144      0.0550
     82  CG      -124.6970  -31.0250  148.0400 C.ar  144  TRP144      0.0003
     83  CD1     -125.5810  -30.3190  147.2740 C.ar  144  TRP144      0.0946
     84  CD2     -123.6220  -30.1270  148.3420 C.ar  144  TRP144      0.0152
     85  NE1     -125.1230  -29.0380  147.0830 N.ar  144  TRP144     -0.2442
     86  CE2     -123.9210  -28.8960  147.7270 C.ar  144  TRP144      0.0810
     87  CE3     -122.4380  -30.2450  149.0780 C.ar  144  TRP144      0.0012
     88  CZ2     -123.0770  -27.7900  147.8200 C.ar  144  TRP144      0.0191
     89  CZ3     -121.6010  -29.1470  149.1710 C.ar  144  TRP144      0.0001
     90  CH2     -121.9240  -27.9350  148.5450 C.ar  144  TRP144      0.0015
     91  N       -134.7550  -30.0310  148.8720 N.3   167  TYR167     -0.1241
     92  CA      -135.5800  -29.6980  150.0270 C.3   167  TYR167      0.1605
     93  C       -137.0540  -30.0240  149.8360 C.2   167  TYR167      0.2264
     94  O       -137.8530  -29.7390  150.7330 O.2   167  TYR167     -0.2867
     95  CB      -135.4160  -28.2160  150.3830 C.3   167  TYR167      0.0534
     96  CG      -134.0290  -27.8970  150.8830 C.ar  167  TYR167     -0.0201
     97  CD1     -133.6420  -28.2320  152.1730 C.ar  167  TYR167     -0.0009
     98  CD2     -133.0960  -27.2840  150.0540 C.ar  167  TYR167     -0.0009
     99  CE1     -132.3680  -27.9500  152.6310 C.ar  167  TYR167      0.0417
    100  CE2     -131.8200  -26.9980  150.5020 C.ar  167  TYR167      0.0417
    101  CZ      -131.4620  -27.3300  151.7900 C.ar  167  TYR167      0.1957
    102  OH      -130.1950  -27.0460  152.2390 O.3   167  TYR167     -0.2866
    103  N       -136.3920  -24.1110  151.9930 N.3   172  ALA172     -0.1231
    104  CA      -135.3240  -23.9130  152.9640 C.3   172  ALA172      0.1694
    105  C       -134.9300  -22.4440  153.0600 C.2   172  ALA172      0.2592
    106  O       -134.9100  -21.7270  152.0550 O.2   172  ALA172     -0.2718
    107  CB      -134.0940  -24.7530  152.6070 C.3   172  ALA172      0.0304
    108  N       -134.6240  -22.0140  154.2840 N.am  173  GLY173     -0.1957
    109  CA      -133.9710  -20.7410  154.5370 C.3   173  GLY173      0.1869
    110  C       -134.7570  -19.5120  154.1560 C.2   173  GLY173      0.2309
    111  O       -134.1700  -18.4340  154.0180 O.2   173  GLY173     -0.2863
    112  N       -135.8720  -18.7070  151.3840 N.3   175  VAL175     -0.1231
    113  CA      -135.5090  -18.2350  150.0520 C.3   175  VAL175      0.1692
    114  C       -135.7800  -19.3270  149.0220 C.2   175  VAL175      0.2591
    115  O       -136.2680  -19.0450  147.9210 O.2   175  VAL175     -0.2718
    116  CB      -134.0410  -17.7630  150.0080 C.3   175  VAL175      0.0266
    117  CG1     -133.1080  -18.8330  150.5230 C.3   175  VAL175      0.0020
    118  CG2     -133.6540  -17.3370  148.6010 C.3   175  VAL175      0.0020
    119  N       -135.4970  -20.5790  149.3750 N.am  176  ILE176     -0.1980
    120  CA      -135.7490  -21.7110  148.4820 C.3   176  ILE176      0.1595
    121  C       -137.2020  -22.1500  148.6140 C.2   176  ILE176      0.2287
    122  O       -137.6160  -22.6070  149.6880 O.2   176  ILE176     -0.2864
    123  CB      -134.7950  -22.8780  148.7770 C.3   176  ILE176      0.0276
    124  CG1     -133.3500  -22.4670  148.4910 C.3   176  ILE176      0.0022
    125  CG2     -135.1790  -24.1010  147.9550 C.3   176  ILE176      0.0022
    126  CD1     -132.3530  -23.5580  148.7810 C.3   176  ILE176      0.0001
    127  N       -126.1240  -26.1430  141.7260 N.3   184  PHE184     -0.1241
    128  CA      -124.9150  -25.8470  142.4860 C.3   184  PHE184      0.1605
    129  C       -123.6840  -25.9830  141.6060 C.2   184  PHE184      0.2264
    130  O       -123.5900  -26.9100  140.7990 O.2   184  PHE184     -0.2867
    131  CB      -124.7290  -26.7950  143.6790 C.3   184  PHE184      0.0534
    132  CG      -125.6840  -26.5720  144.8130 C.ar  184  PHE184     -0.0203
    133  CD1     -126.9040  -27.2290  144.8510 C.ar  184  PHE184     -0.0042
    134  CD2     -125.3370  -25.7500  145.8730 C.ar  184  PHE184     -0.0042
    135  CE1     -127.7750  -27.0440  145.9110 C.ar  184  PHE184     -0.0003
    136  CE2     -126.2050  -25.5600  146.9370 C.ar  184  PHE184     -0.0003
    137  CZ      -127.4250  -26.2090  146.9550 C.ar  184  PHE184     -0.0000
@<TRIPOS>BOND
     1   130   129    2
     2   129   128    1
     3   127   128    1
     4   128   131    1
     5   131   132    1
     6   132   133   ar
     7   132   134   ar
     8   133   135   ar
     9    22    20   ar
    10    22    23   ar
    11    20    18   ar
    12    13    14    1
    13   134   136   ar
    14   135   137   ar
    15     3     2    1
    16     3     4    2
    17    23    21   ar
    18     2     5    1
    19     2     1    1
    20   136   137   ar
    21    18    17    1
    22    18    19   ar
    23    77    78    1
    24     5     6    1
    25    85    83   ar
    26    85    86   ar
    27    27    26    2
    28    14    17    1
    29    14    15    1
    30    80    79    2
    31    83    82   ar
    32    78    79    1
    33    78    81    1
    34    21    19   ar
    35    86    88   ar
    36    86    84   ar
    37    88    90   ar
    38    24    15   am
    39    24    25    1
    40   115   114    2
    41   125   123    1
    42    82    84   ar
    43    82    81    1
    44    26    25    1
    45    76    74    1
    46    15    16    2
    47     7     6   ar
    48     7     9   ar
    49     6     8   ar
    50    84    87   ar
    51   120   121    1
    52   120   123    1
    53   120   119    1
    54   124   123    1
    55   124   126    1
    56    90    89   ar
    57   118   116    1
    58   121   122    2
    59    91    92    1
    60    25    28    1
    61   114   119   am
    62   114   113    1
    63    74    73    1
    64    87    89   ar
    65     9    11   ar
    66     8    10   ar
    67    72    71    2
    68    93    92    1
    69    93    94    2
    70    73    75    1
    71    73    70    1
    72    28    29    1
    73    71    70    1
    74   116   113    1
    75   116   117    1
    76    92    95    1
    77   113   112    1
    78    98   100   ar
    79    98    96   ar
    80    95    96    1
    81   100   101   ar
    82    11    10   ar
    83    11    12    1
    84    70    69    1
    85    96    97   ar
    86    29    30   ar
    87    29    31   ar
    88    32    33    1
    89    69    64   am
    90   101   102    1
    91   101    99   ar
    92    68    66    1
    93   103   104    1
    94   106   105    2
    95    97    99   ar
    96    66    67    1
    97    66    63    1
    98    64    65    2
    99    64    63    1
   100   107   104    1
   101    46    45    2
   102    49    51   ar
   103    49    48   ar
   104    47    48    1
   105    47    44    1
   106    33    34    1
   107    33    36    1
   108    43    44    1
   109   104   105    1
   110    41    40    1
   111    42    40    1
   112   105   108   am
   113    34    35    2
   114    51    53   ar
   115    48    50   ar
   116    63    62    1
   117    40    39    2
   118    44    45    1
   119    36    37    1
   120    37    38    1
   121   111   110    2
   122   110   109    1
   123   108   109    1
   124    39    38    1
   125    53    52   ar
   126    62    56   am
   127    50    52   ar
   128    56    57    2
   129    56    55    1
   130    54    55    1
   131    55    58    1
   132    58    59    1
   133    59    60    1
   134    61    60    1
