@<TRIPOS>MOLECULE
tmp/5v8uB00.pdb
 147 144 0 0 0
SMALL
GASTEIGER

@<TRIPOS>ATOM
      1  N          6.5480   38.8730  -31.1700 N.3   162  ILE162     -0.1231
      2  CA         6.5750   37.8880  -32.2450 C.3   162  ILE162      0.1692
      3  C          7.7610   36.9380  -32.1140 C.2   162  ILE162      0.2592
      4  O          8.0800   36.2140  -33.0610 O.2   162  ILE162     -0.2718
      5  CB         6.5630   38.5780  -33.6200 C.3   162  ILE162      0.0266
      6  CG1        7.7600   39.5240  -33.7670 C.3   162  ILE162      0.0019
      7  CG2        5.2510   39.3360  -33.8080 C.3   162  ILE162      0.0020
      8  CD1        7.8820   40.1590  -35.1430 C.3   162  ILE162      0.0001
      9  N          8.4240   36.9280  -30.9580 N.am  163  GLN163     -0.1966
     10  CA         9.5180   36.0010  -30.6670 C.3   163  GLN163      0.1733
     11  C          8.9580   34.7660  -29.9680 C.2   163  GLN163      0.2616
     12  O          8.7640   34.7640  -28.7500 O.2   163  GLN163     -0.2715
     13  CB        10.5660   36.6870  -29.8000 C.3   163  GLN163      0.0408
     14  CG        11.8660   35.9260  -29.6590 C.3   163  GLN163      0.0908
     15  CD        12.3400   35.8780  -28.2200 C.2   163  GLN163      0.2608
     16  OE1       11.9380   35.0040  -27.4520 O.2   163  GLN163     -0.2717
     17  NE2       13.1650   36.8440  -27.8350 N.am  163  GLN163     -0.0878
     18  N          8.6960   33.7120  -30.7330 N.am  164  PHE164     -0.1960
     19  CA         8.2700   32.4350  -30.1780 C.3   164  PHE164      0.1771
     20  C          9.4690   31.5090  -30.0020 C.2   164  PHE164      0.2619
     21  O         10.4490   31.5850  -30.7470 O.2   164  PHE164     -0.2715
     22  CB         7.2300   31.7560  -31.0750 C.3   164  PHE164      0.0574
     23  CG         6.0030   32.5910  -31.3440 C.ar  164  PHE164     -0.0200
     24  CD1        5.7360   33.7360  -30.6090 C.ar  164  PHE164     -0.0042
     25  CD2        5.1080   32.2140  -32.3320 C.ar  164  PHE164     -0.0042
     26  CE1        4.6080   34.4920  -30.8640 C.ar  164  PHE164     -0.0003
     27  CE2        3.9780   32.9650  -32.5890 C.ar  164  PHE164     -0.0003
     28  CZ         3.7270   34.1050  -31.8540 C.ar  164  PHE164     -0.0000
     29  N          9.3820   30.6310  -29.0050 N.am  165  GLU165     -0.1963
     30  CA        10.4270   29.6410  -28.7740 C.3   165  GLU165      0.1733
     31  C          9.9220   28.6080  -27.7780 C.2   165  GLU165      0.2616
     32  O          8.9230   28.8220  -27.0840 O.2   165  GLU165     -0.2715
     33  CB        11.7190   30.2850  -28.2560 C.3   165  GLU165      0.0429
     34  CG        11.6180   30.8560  -26.8490 C.3   165  GLU165      0.1163
     35  CD        12.9170   31.4840  -26.3840 C.2   165  GLU165      0.3649
     36  OE1       13.4690   31.0230  -25.3630 O.co2 165  GLU165     -0.2457
     37  OE2       13.3980   32.4230  -27.0510 O.co2 165  GLU165     -0.2457
     38  N         10.6310   27.4830  -27.7210 N.am  166  CYS166     -0.1968
     39  CA        10.3850   26.4230  -26.7470 C.3   166  CYS166      0.1712
     40  C         11.6360   26.3110  -25.8850 C.2   166  CYS166      0.2296
     41  O         12.6920   25.8930  -26.3710 O.2   166  CYS166     -0.2864
     42  CB        10.0630   25.0980  -27.4370 C.3   166  CYS166      0.0983
     43  SG         9.5500   23.7770  -26.3120 S.3   166  CYS166     -0.0798
     44  N         -1.2970   37.1170  -33.1040 N.3   193  PHE193     -0.1227
     45  CA        -0.4900   37.6500  -34.1930 C.3   193  PHE193      0.1736
     46  C         -0.0240   36.4970  -35.0710 C.2   193  PHE193      0.2596
     47  O         -0.0170   35.3370  -34.6520 O.2   193  PHE193     -0.2718
     48  CB         0.7250   38.4300  -33.6730 C.3   193  PHE193      0.0547
     49  CG         0.3770   39.5430  -32.7270 C.ar  193  PHE193     -0.0202
     50  CD1        0.1510   39.2850  -31.3850 C.ar  193  PHE193     -0.0042
     51  CD2        0.2940   40.8490  -33.1760 C.ar  193  PHE193     -0.0042
     52  CE1       -0.1630   40.3080  -30.5120 C.ar  193  PHE193     -0.0003
     53  CE2       -0.0180   41.8780  -32.3070 C.ar  193  PHE193     -0.0003
     54  CZ        -0.2470   41.6070  -30.9740 C.ar  193  PHE193     -0.0000
     55  N          0.3610   36.8250  -36.3020 N.am  194  THR194     -0.1939
     56  CA         0.9430   35.8320  -37.1960 C.3   194  THR194      0.2028
     57  C          1.7710   36.5490  -38.2560 C.2   194  THR194      0.2642
     58  O          1.7210   37.7740  -38.3900 O.2   194  THR194     -0.2714
     59  CB        -0.1360   34.9520  -37.8380 C.3   194  THR194      0.1808
     60  OG1        0.4780   33.8040  -38.4370 O.3   194  THR194     -0.2208
     61  CG2       -0.9250   35.7240  -38.9040 C.3   194  THR194      0.0379
     62  N          2.5380   35.7610  -39.0060 N.am  195  PHE195     -0.1973
     63  CA         3.3810   36.2700  -40.0770 C.3   195  PHE195      0.1639
     64  C          2.7140   36.0520  -41.4280 C.2   195  PHE195      0.2290
     65  O          1.9240   35.1230  -41.6130 O.2   195  PHE195     -0.2864
     66  CB         4.7520   35.5800  -40.0900 C.3   195  PHE195      0.0560
     67  CG         5.6900   36.0280  -39.0010 C.ar  195  PHE195     -0.0200
     68  CD1        5.4340   37.1620  -38.2490 C.ar  195  PHE195     -0.0042
     69  CD2        6.8490   35.3120  -38.7450 C.ar  195  PHE195     -0.0042
     70  CE1        6.3100   37.5670  -37.2600 C.ar  195  PHE195     -0.0003
     71  CE2        7.7280   35.7120  -37.7560 C.ar  195  PHE195     -0.0003
     72  CZ         7.4590   36.8400  -37.0130 C.ar  195  PHE195     -0.0000
     73  N          0.2160   32.9570  -42.2530 N.3   203  THR203     -0.1218
     74  CA         0.4920   31.6680  -41.6400 C.3   203  THR203      0.1862
     75  C         -0.6390   31.2860  -40.6970 C.2   203  THR203      0.2287
     76  O         -1.1380   32.1140  -39.9300 O.2   203  THR203     -0.2866
     77  CB         1.8170   31.7210  -40.8800 C.3   203  THR203      0.1770
     78  OG1        2.8680   32.0970  -41.7790 O.3   203  THR203     -0.2211
     79  CG2        2.1460   30.3680  -40.2530 C.3   203  THR203      0.0375
     80  N          1.9970   27.2330  -36.5660 N.3   208  THR208     -0.1218
     81  CA         3.0730   27.7980  -35.7580 C.3   208  THR208      0.1862
     82  C          3.1210   27.1510  -34.3790 C.2   208  THR208      0.2287
     83  O          4.2030   26.8190  -33.8810 O.2   208  THR208     -0.2866
     84  CB         2.8950   29.3110  -35.6390 C.3   208  THR208      0.1770
     85  OG1        2.8470   29.8890  -36.9500 O.3   208  THR208     -0.2211
     86  CG2        4.0500   29.9350  -34.8570 C.3   208  THR208      0.0375
     87  N          4.6220   23.7810  -34.6420 N.3   211  HIS211     -0.1226
     88  CA         6.0750   23.8910  -34.7360 C.3   211  HIS211      0.1752
     89  C          6.7060   23.9050  -33.3490 C.2   211  HIS211      0.2595
     90  O          7.6420   23.1470  -33.0700 O.2   211  HIS211     -0.2718
     91  CB         6.4490   25.1530  -35.5180 C.3   211  HIS211      0.0759
     92  CG         7.9210   25.4180  -35.5790 C.ar  211  HIS211      0.0818
     93  ND1        8.6810   25.1380  -36.6940 N.ar  211  HIS211     -0.2268
     94  CD2        8.7710   25.9470  -34.6680 C.ar  211  HIS211      0.1154
     95  CE1        9.9370   25.4790  -36.4660 C.ar  211  HIS211      0.1986
     96  NE2       10.0190   25.9710  -35.2430 N.ar  211  HIS211     -0.2212
     97  N          6.1970   24.7630  -32.4600 N.am  212  GLU212     -0.1979
     98  CA         6.7260   24.8240  -31.1010 C.3   212  GLU212      0.1602
     99  C          6.4870   23.5170  -30.3570 C.2   212  GLU212      0.2287
    100  O          7.3610   23.0420  -29.6240 O.2   212  GLU212     -0.2864
    101  CB         6.0930   25.9920  -30.3440 C.3   212  GLU212      0.0415
    102  CG         6.3230   27.3500  -30.9870 C.3   212  GLU212      0.1163
    103  CD         7.7940   27.7030  -31.0990 C.2   212  GLU212      0.3649
    104  OE1        8.1660   28.4120  -32.0580 O.co2 212  GLU212     -0.2457
    105  OE2        8.5810   27.2630  -30.2340 O.co2 212  GLU212     -0.2457
    106  N          9.1540   20.9430  -31.1400 N.3   215  HIS215     -0.1241
    107  CA        10.3310   21.1810  -30.3120 C.3   215  HIS215      0.1621
    108  C         10.1550   20.5560  -28.9350 C.2   215  HIS215      0.2264
    109  O         11.0530   19.8780  -28.4230 O.2   215  HIS215     -0.2867
    110  CB        10.5960   22.6830  -30.1800 C.3   215  HIS215      0.0745
    111  CG        11.1980   23.3080  -31.3990 C.ar  215  HIS215      0.0817
    112  ND1       12.3360   22.8190  -32.0030 N.ar  215  HIS215     -0.2268
    113  CD2       10.8300   24.3970  -32.1150 C.ar  215  HIS215      0.1154
    114  CE1       12.6370   23.5740  -33.0450 C.ar  215  HIS215      0.1986
    115  NE2       11.7380   24.5380  -33.1350 N.ar  215  HIS215     -0.2212
    116  N         15.9970   23.5270  -35.7900 N.3   237  GLU237     -0.1245
    117  CA        14.9150   24.2100  -36.4930 C.3   237  GLU237      0.1567
    118  C         14.6150   23.5440  -37.8300 C.2   237  GLU237      0.2260
    119  O         13.4460   23.3660  -38.1910 O.2   237  GLU237     -0.2867
    120  CB        15.2670   25.6840  -36.6990 C.3   237  GLU237      0.0388
    121  CG        15.4430   26.4750  -35.4110 C.3   237  GLU237      0.1160
    122  CD        14.1490   26.6400  -34.6400 C.2   237  GLU237      0.3649
    123  OE1       14.2100   26.7500  -33.3970 O.co2 237  GLU237     -0.2457
    124  OE2       13.0730   26.6600  -35.2750 O.co2 237  GLU237     -0.2457
    125  N          4.5610   28.8020  -45.8110 N.3   335  ARG335     -0.1245
    126  CA         5.8500   29.0670  -46.4310 C.3   335  ARG335      0.1563
    127  C          6.6140   27.7600  -46.6060 C.2   335  ARG335      0.2260
    128  O          6.4940   26.8300  -45.8040 O.2   335  ARG335     -0.2867
    129  CB         6.6540   30.0580  -45.5930 C.3   335  ARG335      0.0307
    130  CG         7.1620   29.4990  -44.2830 C.3   335  ARG335      0.0489
    131  CD         7.7230   30.6060  -43.4160 C.3   335  ARG335      0.2205
    132  NE         8.4030   30.0820  -42.2370 N.pl3 335  ARG335     -0.0865
    133  CZ         7.8020   29.7910  -41.0870 C.cat 335  ARG335      0.5346
    134  NH1        6.4940   29.9650  -40.9480 N.pl3 335  ARG335      0.1354
    135  NH2        8.5140   29.3190  -40.0720 N.pl3 335  ARG335      0.1354
    136  N         11.9260   27.2690  -43.7190 N.3   338  TYR338     -0.1241
    137  CA        11.9590   27.8850  -42.3980 C.3   338  TYR338      0.1605
    138  C         12.3240   29.3610  -42.4640 C.2   338  TYR338      0.2264
    139  O         11.9830   30.1160  -41.5460 O.2   338  TYR338     -0.2867
    140  CB        12.9450   27.1390  -41.4960 C.3   338  TYR338      0.0534
    141  CG        13.1440   27.7880  -40.1450 C.ar  338  TYR338     -0.0201
    142  CD1       14.3520   28.3870  -39.8130 C.ar  338  TYR338     -0.0009
    143  CD2       12.1210   27.8130  -39.2050 C.ar  338  TYR338     -0.0009
    144  CE1       14.5400   28.9840  -38.5820 C.ar  338  TYR338      0.0417
    145  CE2       12.3000   28.4100  -37.9710 C.ar  338  TYR338      0.0417
    146  CZ        13.5120   28.9940  -37.6660 C.ar  338  TYR338      0.1957
    147  OH        13.6990   29.5890  -36.4400 O.3   338  TYR338     -0.2866
@<TRIPOS>BOND
     1   127   126    1
     2   127   128    2
     3   126   125    1
     4   126   129    1
     5   129   130    1
     6   130   131    1
     7   136   137    1
     8   131   132    1
     9   138   137    1
    10   138   139    2
    11   137   140    1
    12    73    74    1
    13   132   133    2
    14    78    77    1
    15    74    77    1
    16    74    75    1
    17    65    64    2
    18   140   141    1
    19    64    63    1
    20   133   134    1
    21   133   135    1
    22    77    79    1
    23    75    76    2
    24   141   142   ar
    25   141   143   ar
    26    66    63    1
    27    66    67    1
    28    63    62    1
    29   142   144   ar
    30   143   145   ar
    31    62    57   am
    32    67    69   ar
    33    67    68   ar
    34    61    59    1
    35    69    71   ar
    36   144   146   ar
    37    60    59    1
    38    58    57    2
    39    57    56    1
    40    68    70   ar
    41   119   118    2
    42   145   146   ar
    43    59    56    1
    44   118   117    1
    45    71    72   ar
    46   146   147    1
    47    70    72   ar
    48    56    55    1
    49    85    84    1
    50   120   117    1
    51   120   121    1
    52    93    95   ar
    53    93    92   ar
    54    80    81    1
    55   117   116    1
    56    95    96   ar
    57    55    46   am
    58    81    84    1
    59    81    82    1
    60    84    86    1
    61    92    91    1
    62    92    94   ar
    63    91    88    1
    64   121   122    1
    65   124   122   ar
    66    96    94   ar
    67     8     6    1
    68    46    47    2
    69    46    45    1
    70    88    87    1
    71    88    89    1
    72   122   123   ar
    73    82    83    2
    74    45    48    1
    75    45    44    1
    76     7     5    1
    77     6     5    1
    78    48    49    1
    79     5     2    1
    80    89    90    2
    81    89    97   am
    82    51    49   ar
    83    51    53   ar
    84   115   114   ar
    85   115   113   ar
    86     4     3    2
    87   114   112   ar
    88    49    50   ar
    89    27    25   ar
    90    27    28   ar
    91    97    98    1
    92    25    23   ar
    93    53    54   ar
    94     2     3    1
    95     2     1    1
    96   113   111   ar
    97     3     9   am
    98   104   103   ar
    99   112   111   ar
   100    28    26   ar
   101   111   110    1
   102    50    52   ar
   103    23    22    1
   104    23    24   ar
   105   106   107    1
   106    98    99    1
   107    98   101    1
   108   103   102    1
   109   103   105   ar
   110    22    19    1
   111   102   101    1
   112    54    52   ar
   113     9    10    1
   114    26    24   ar
   115    21    20    2
   116    18    19    1
   117    18    11   am
   118    10    11    1
   119    10    13    1
   120    99   100    2
   121   107   110    1
   122   107   108    1
   123    19    20    1
   124    20    29   am
   125    11    12    2
   126    13    14    1
   127    14    15    1
   128    29    30    1
   129   108   109    2
   130    30    33    1
   131    30    31    1
   132    33    34    1
   133    15    17   am
   134    15    16    2
   135    31    38   am
   136    31    32    2
   137    38    39    1
   138    42    39    1
   139    42    43    1
   140    37    35   ar
   141    34    35    1
   142    39    40    1
   143    35    36   ar
   144    41    40    2
