@<TRIPOS>MOLECULE
tmp/5v8vB01.pdb
 164 156 0 0 0
SMALL
GASTEIGER

@<TRIPOS>ATOM
      1  N          7.7730   23.2780   18.4570 N.3    12  TYR12      -0.1227
      2  CA         8.1570   24.4140   17.6290 C.3    12  TYR12       0.1736
      3  C          9.5000   24.0820   16.9870 C.2    12  TYR12       0.2595
      4  O         10.5450   24.1430   17.6390 O.2    12  TYR12      -0.2718
      5  CB         8.2210   25.6930   18.4570 C.3    12  TYR12       0.0548
      6  CG         8.7860   26.8840   17.7180 C.ar   12  TYR12      -0.0200
      7  CD1        7.9860   27.6550   16.8840 C.ar   12  TYR12      -0.0009
      8  CD2       10.1190   27.2460   17.8650 C.ar   12  TYR12      -0.0009
      9  CE1        8.5050   28.7500   16.2090 C.ar   12  TYR12       0.0417
     10  CE2       10.6430   28.3330   17.1970 C.ar   12  TYR12       0.0417
     11  CZ         9.8360   29.0820   16.3730 C.ar   12  TYR12       0.1957
     12  OH        10.3690   30.1670   15.7140 O.3    12  TYR12      -0.2866
     13  N          9.4570   23.6890   15.7130 N.am   13  MET13      -0.1979
     14  CA        10.6450   23.5600   14.8650 C.3    13  MET13       0.1605
     15  C         11.6930   22.6230   15.4580 C.2    13  MET13       0.2287
     16  O         12.8930   22.8550   15.3180 O.2    13  MET13      -0.2864
     17  CB        11.2510   24.9320   14.5780 C.3    13  MET13       0.0413
     18  CG        10.2030   25.9600   14.1780 C.3    13  MET13       0.0598
     19  SD        10.8440   27.1930   13.0420 S.3    13  MET13      -0.1393
     20  CE        12.3130   27.6960   13.9490 C.3    13  MET13       0.0692
     21  N         12.9290   22.2830   18.1850 N.3    15  THR15      -0.1203
     22  CA        13.8690   22.8410   19.1450 C.3    15  THR15       0.1994
     23  C         13.2260   23.3170   20.4430 C.2    15  THR15       0.2617
     24  O         13.9400   23.4650   21.4380 O.2    15  THR15      -0.2717
     25  CB        14.6600   23.9990   18.5100 C.3    15  THR15       0.1784
     26  OG1       13.7740   25.0660   18.1520 O.3    15  THR15      -0.2211
     27  CG2       15.3730   23.5210   17.2570 C.3    15  THR15       0.0376
     28  N         11.9110   23.5320   20.4740 N.am   16  GLN16      -0.1979
     29  CA        11.2190   23.9790   21.6770 C.3    16  GLN16       0.1601
     30  C          9.9670   23.1380   21.8830 C.2    16  GLN16       0.2287
     31  O          9.0610   23.1540   21.0430 O.2    16  GLN16      -0.2864
     32  CB        10.8650   25.4640   21.5820 C.3    16  GLN16       0.0394
     33  CG        12.0340   26.3410   21.1720 C.3    16  GLN16       0.0908
     34  CD        11.8360   27.7880   21.5590 C.2    16  GLN16       0.2608
     35  OE1       11.0300   28.1020   22.4350 O.2    16  GLN16      -0.2717
     36  NE2       12.5780   28.6790   20.9130 N.am   16  GLN16      -0.0878
     37  N         22.9750   30.1160   28.8390 N.3    82  THR82      -0.1218
     38  CA        22.8670   31.3850   28.1290 C.3    82  THR82       0.1862
     39  C         23.0290   32.6030   29.0260 C.2    82  THR82       0.2287
     40  O         23.2580   33.7040   28.5130 O.2    82  THR82      -0.2866
     41  CB        21.5140   31.4920   27.4230 C.3    82  THR82       0.1770
     42  OG1       20.4700   31.1600   28.3480 O.3    82  THR82      -0.2211
     43  CG2       21.4590   30.5670   26.2190 C.3    82  THR82       0.0375
     44  N         18.6580   38.1410   24.5980 N.3   114  LEU114     -0.1231
     45  CA        19.3430   36.8920   24.2930 C.3   114  LEU114      0.1678
     46  C         19.4170   36.0740   25.5740 C.2   114  LEU114      0.2434
     47  O         20.1800   36.4380   26.4830 O.2   114  LEU114     -0.2733
     48  CB        20.7390   37.1570   23.7430 C.3   114  LEU114      0.0284
     49  CG        21.6210   35.9290   23.4790 C.3   114  LEU114      0.0019
     50  CD1       20.9900   35.0160   22.4550 C.3   114  LEU114      0.0001
     51  CD2       23.0130   36.3400   23.0330 C.3   114  LEU114      0.0001
     52  N         18.6880   34.9530   25.6880 N.am  115  PRO115     -0.2729
     53  CA        17.9790   34.2630   24.6070 C.3   115  PRO115      0.1401
     54  C         16.4590   34.4420   24.5360 C.2   115  PRO115      0.2269
     55  O         15.8570   33.9730   23.5710 O.2   115  PRO115     -0.2865
     56  CB        18.2860   32.8050   24.9200 C.3   115  PRO115      0.0296
     57  CG        18.2060   32.7810   26.4450 C.3   115  PRO115      0.0237
     58  CD        18.6660   34.1530   26.9260 C.3   115  PRO115      0.0939
     59  N         13.9090   34.7500   21.7810 N.3   118  LEU118     -0.1245
     60  CA        13.8200   33.6300   20.8570 C.3   118  LEU118      0.1561
     61  C         12.9140   32.5130   21.3610 C.2   118  LEU118      0.2260
     62  O         12.7850   31.4850   20.6890 O.2   118  LEU118     -0.2867
     63  CB        15.2180   33.0610   20.5810 C.3   118  LEU118      0.0270
     64  CG        16.3810   34.0360   20.3740 C.3   118  LEU118      0.0019
     65  CD1       17.7000   33.2850   20.3380 C.3   118  LEU118      0.0001
     66  CD2       16.1880   34.8480   19.1060 C.3   118  LEU118      0.0001
     67  N         16.9820   20.3070   26.7940 N.3   226  ALA226     -0.1231
     68  CA        18.0170   20.4990   25.7900 C.3   226  ALA226      0.1694
     69  C         17.4430   20.2570   24.3930 C.2   226  ALA226      0.2593
     70  O         16.8750   19.1940   24.1210 O.2   226  ALA226     -0.2718
     71  CB        19.1970   19.5650   26.0710 C.3   226  ALA226      0.0304
     72  N         17.5780   21.2520   23.5150 N.am  227  SER227     -0.1938
     73  CA        17.1210   21.0820   22.1370 C.3   227  SER227      0.2055
     74  C         17.9860   20.0650   21.3970 C.2   227  SER227      0.2643
     75  O         17.4680   19.1730   20.7140 O.2   227  SER227     -0.2714
     76  CB        17.1250   22.4260   21.4030 C.3   227  SER227      0.2130
     77  OG        16.3680   23.4130   22.0860 O.3   227  SER227     -0.2179
     78  N         19.3060   20.1780   21.5340 N.am  228  TYR228     -0.1973
     79  CA        20.2620   19.3120   20.8580 C.3   228  TYR228      0.1639
     80  C         20.8850   18.3080   21.8200 C.2   228  TYR228      0.2290
     81  O         20.7920   18.4250   23.0440 O.2   228  TYR228     -0.2864
     82  CB        21.3910   20.1290   20.2230 C.3   228  TYR228      0.0560
     83  CG        21.0100   20.9800   19.0440 C.ar  228  TYR228     -0.0198
     84  CD1       19.6840   21.1200   18.6530 C.ar  228  TYR228     -0.0009
     85  CD2       21.9890   21.6430   18.3120 C.ar  228  TYR228     -0.0009
     86  CE1       19.3420   21.9010   17.5720 C.ar  228  TYR228      0.0417
     87  CE2       21.6600   22.4210   17.2260 C.ar  228  TYR228      0.0417
     88  CZ        20.3390   22.5480   16.8630 C.ar  228  TYR228      0.1957
     89  OH        20.0240   23.3250   15.7830 O.3   228  TYR228     -0.2866
     90  N         24.3820   17.4870   23.2740 N.3   230  SER230     -0.1217
     91  CA        25.5580   18.3100   23.5040 C.3   230  SER230      0.1889
     92  C         26.6350   17.5000   24.2040 C.2   230  SER230      0.2288
     93  O         26.3470   16.5760   24.9680 O.2   230  SER230     -0.2866
     94  CB        25.2260   19.5690   24.3270 C.3   230  SER230      0.2089
     95  OG        25.1010   19.2850   25.7090 O.3   230  SER230     -0.2183
     96  N         27.9360   29.3200   15.2250 N.3   250  PHE250     -0.1227
     97  CA        27.5150   28.5750   16.4000 C.3   250  PHE250      0.1736
     98  C         27.1660   27.1090   16.1560 C.2   250  PHE250      0.2595
     99  O         27.3450   26.3010   17.0750 O.2   250  PHE250     -0.2718
    100  CB        26.3300   29.2780   17.0930 C.3   250  PHE250      0.0547
    101  CG        25.2580   29.8000   16.1570 C.ar  250  PHE250     -0.0202
    102  CD1       24.8910   31.1440   16.1850 C.ar  250  PHE250     -0.0042
    103  CD2       24.5810   28.9560   15.3000 C.ar  250  PHE250     -0.0042
    104  CE1       23.8900   31.6380   15.3520 C.ar  250  PHE250     -0.0003
    105  CE2       23.5810   29.4490   14.4640 C.ar  250  PHE250     -0.0003
    106  CZ        23.2350   30.7860   14.4950 C.ar  250  PHE250     -0.0000
    107  N         26.7200   26.7270   14.9630 N.am  251  ASP251     -0.1974
    108  CA        26.3690   25.3370   14.7040 C.3   251  ASP251      0.1709
    109  C         27.3670   24.6840   13.7540 C.2   251  ASP251      0.2293
    110  O         28.2670   25.3230   13.2000 O.2   251  ASP251     -0.2864
    111  CB        24.9510   25.2120   14.1340 C.3   251  ASP251      0.1436
    112  CG        24.7410   26.0370   12.8800 C.2   251  ASP251      0.3671
    113  OD1       25.5970   26.8990   12.5870 O.co2 251  ASP251     -0.2456
    114  OD2       23.7150   25.8300   12.1910 O.co2 251  ASP251     -0.2456
    115  N         19.0980   18.0890   10.3400 N.3   283  PHE283     -0.1241
    116  CA        17.9140   18.8300    9.9020 C.3   283  PHE283      0.1605
    117  C         17.9510   18.9030    8.3810 C.2   283  PHE283      0.2264
    118  O         18.5520   19.8090    7.7990 O.2   283  PHE283     -0.2867
    119  CB        17.8920   20.2360   10.4950 C.3   283  PHE283      0.0534
    120  CG        17.5540   20.2990   11.9600 C.ar  283  PHE283     -0.0203
    121  CD1       16.2720   20.0470   12.4030 C.ar  283  PHE283     -0.0042
    122  CD2       18.5200   20.6660   12.8900 C.ar  283  PHE283     -0.0042
    123  CE1       15.9640   20.1290   13.7430 C.ar  283  PHE283     -0.0003
    124  CE2       18.2150   20.7540   14.2330 C.ar  283  PHE283     -0.0003
    125  CZ        16.9380   20.4850   14.6610 C.ar  283  PHE283     -0.0000
    126  N         16.4540   20.1220    5.8280 N.3   285  GLU285     -0.1245
    127  CA        15.6280   21.1210    5.1570 C.3   285  GLU285      0.1567
    128  C         15.6490   20.9530    3.6430 C.2   285  GLU285      0.2260
    129  O         14.7290   21.4160    2.9600 O.2   285  GLU285     -0.2867
    130  CB        16.1140   22.5250    5.5230 C.3   285  GLU285      0.0388
    131  CG        17.5120   22.8230    4.9720 C.3   285  GLU285      0.1160
    132  CD        18.1110   24.1260    5.4800 C.2   285  GLU285      0.3649
    133  OE1       17.4960   24.7720    6.3560 O.co2 285  GLU285     -0.2457
    134  OE2       19.2060   24.4990    5.0010 O.co2 285  GLU285     -0.2457
    135  N         21.9270   21.8770    9.0090 N.3   294  THR294     -0.1218
    136  CA        22.3580   21.9170   10.4010 C.3   294  THR294      0.1862
    137  C         22.2830   20.5380   11.0520 C.2   294  THR294      0.2287
    138  O         21.3230   19.7900   10.8470 O.2   294  THR294     -0.2866
    139  CB        21.4890   22.9070   11.1820 C.3   294  THR294      0.1770
    140  OG1       21.6750   24.2270   10.6580 O.3   294  THR294     -0.2211
    141  CG2       21.8540   22.9160   12.6520 C.3   294  THR294      0.0375
    142  N         25.7860   20.1440   19.2490 N.3   298  HIS298     -0.1241
    143  CA        26.7590   21.2200   19.3810 C.3   298  HIS298      0.1621
    144  C         27.4900   21.0470   20.7030 C.2   298  HIS298      0.2264
    145  O         27.1410   20.1930   21.5170 O.2   298  HIS298     -0.2867
    146  CB        26.0960   22.5950   19.2710 C.3   298  HIS298      0.0745
    147  CG        25.4300   23.0460   20.5280 C.ar  298  HIS298      0.0817
    148  ND1       25.5060   24.3430   20.9850 N.ar  298  HIS298     -0.2268
    149  CD2       24.6710   22.3740   21.4250 C.ar  298  HIS298      0.1154
    150  CE1       24.8250   24.4500   22.1120 C.ar  298  HIS298      0.1986
    151  NE2       24.3100   23.2690   22.4020 N.ar  298  HIS298     -0.2212
    152  N         28.7860   22.0260   24.4230 N.3   300  MET300     -0.1245
    153  CA        28.4610   22.7810   25.6300 C.3   300  MET300      0.1570
    154  C         29.2960   22.2490   26.7820 C.2   300  MET300      0.2261
    155  O         29.1470   21.0890   27.1750 O.2   300  MET300     -0.2867
    156  CB        26.9780   22.6960   25.9700 C.3   300  MET300      0.0387
    157  CG        26.6110   23.4690   27.2180 C.3   300  MET300      0.0595
    158  SD        24.8260   23.6090   27.4210 S.3   300  MET300     -0.1393
    159  CE        24.4130   24.6330   26.0200 C.3   300  MET300      0.0692
    160  N         24.9580   15.7650   27.2570 N.3   311  ALA311     -0.1245
    161  CA        23.5510   16.0170   27.5370 C.3   311  ALA311      0.1562
    162  C         22.7190   15.4560   26.3970 C.2   311  ALA311      0.2260
    163  O         22.8710   15.8740   25.2430 O.2   311  ALA311     -0.2867
    164  CB        23.2690   17.5080   27.7200 C.3   311  ALA311      0.0290
@<TRIPOS>BOND
     1   129   128    2
     2   128   127    1
     3   131   132    1
     4   131   130    1
     5   134   132   ar
     6   127   130    1
     7   127   126    1
     8   132   133   ar
     9   118   117    2
    10   117   116    1
    11   135   136    1
    12   116   115    1
    13   116   119    1
    14   136   137    1
    15   136   139    1
    16   119   120    1
    17   140   139    1
    18   138   137    2
    19   139   141    1
    20   120   121   ar
    21   120   122   ar
    22   114   112   ar
    23   121   123   ar
    24   113   112   ar
    25   112   111    1
    26   122   124   ar
    27    19    20    1
    28    19    18    1
    29   110   109    2
    30   123   125   ar
    31   109   108    1
    32   111   108    1
    33    18    17    1
    34   124   125   ar
    35   105   106   ar
    36   105   103   ar
    37   106   104   ar
    38    17    14    1
    39   108   107    1
    40    14    15    1
    41    14    13    1
    42   107    98   am
    43    96    97    1
    44   103   101   ar
    45    16    15    2
    46   104   102   ar
    47    13     3   am
    48    12    11    1
    49    89    88    1
    50    98    97    1
    51    98    99    2
    52   101   102   ar
    53   101   100    1
    54     9    11   ar
    55     9     7   ar
    56    11    10   ar
    57    97   100    1
    58    88    87   ar
    59    88    86   ar
    60     7     6   ar
    61     3     2    1
    62     3     4    2
    63    10     8   ar
    64    87    85   ar
    65    27    25    1
    66    86    84   ar
    67     2     5    1
    68     2     1    1
    69     6     8   ar
    70     6     5    1
    71    26    25    1
    72    21    22    1
    73    85    83   ar
    74    25    22    1
    75    84    83   ar
    76    83    82    1
    77    66    64    1
    78    22    23    1
    79   142   143    1
    80   146   143    1
    81   146   147    1
    82   143   144    1
    83    82    79    1
    84    65    64    1
    85    64    63    1
    86    23    28   am
    87    23    24    2
    88    28    29    1
    89   147   148   ar
    90   147   149   ar
    91    63    60    1
    92    62    61    2
    93   144   145    2
    94    75    74    2
    95    60    61    1
    96    60    59    1
    97    79    78    1
    98    79    80    1
    99    36    34   am
   100   148   150   ar
   101    31    30    2
   102    33    34    1
   103    33    32    1
   104    74    78   am
   105    74    73    1
   106    76    77    1
   107    76    73    1
   108   149   151   ar
   109    34    35    2
   110    32    29    1
   111    29    30    1
   112    80    81    2
   113   150   151   ar
   114    73    72    1
   115    50    49    1
   116    51    49    1
   117    90    91    1
   118    49    48    1
   119    91    92    1
   120    91    94    1
   121    72    69   am
   122    55    54    2
   123    48    45    1
   124    70    69    2
   125    92    93    2
   126    45    44    1
   127    45    46    1
   128    94    95    1
   129    69    68    1
   130   152   153    1
   131    54    53    1
   132    53    56    1
   133    53    52    1
   134    56    57    1
   135   163   162    2
   136    46    52   am
   137    46    47    2
   138   153   156    1
   139   153   154    1
   140    52    58    1
   141    68    71    1
   142    68    67    1
   143   156   157    1
   144   159   158    1
   145    43    41    1
   146   162   161    1
   147    57    58    1
   148   154   155    2
   149   157   158    1
   150   160   161    1
   151    41    38    1
   152    41    42    1
   153   161   164    1
   154    38    37    1
   155    38    39    1
   156    40    39    2
