@<TRIPOS>MOLECULE
tmp/5v8vB02.pdb
 200 192 0 0 0
SMALL
GASTEIGER

@<TRIPOS>ATOM
      1  N         12.9290   22.2830   18.1850 N.3    15  THR15      -0.1203
      2  CA        13.8690   22.8410   19.1450 C.3    15  THR15       0.1994
      3  C         13.2260   23.3170   20.4430 C.2    15  THR15       0.2618
      4  O         13.9400   23.4650   21.4380 O.2    15  THR15      -0.2717
      5  CB        14.6600   23.9990   18.5100 C.3    15  THR15       0.1784
      6  OG1       13.7740   25.0660   18.1520 O.3    15  THR15      -0.2211
      7  CG2       15.3730   23.5210   17.2570 C.3    15  THR15       0.0376
      8  N         11.9110   23.5320   20.4740 N.am   16  GLN16      -0.1965
      9  CA        11.2190   23.9790   21.6770 C.3    16  GLN16       0.1733
     10  C          9.9670   23.1380   21.8830 C.2    16  GLN16       0.2616
     11  O          9.0610   23.1540   21.0430 O.2    16  GLN16      -0.2715
     12  CB        10.8650   25.4640   21.5820 C.3    16  GLN16       0.0408
     13  CG        12.0340   26.3410   21.1720 C.3    16  GLN16       0.0908
     14  CD        11.8360   27.7880   21.5590 C.2    16  GLN16       0.2608
     15  OE1       11.0300   28.1020   22.4350 O.2    16  GLN16      -0.2717
     16  NE2       12.5780   28.6790   20.9130 N.am   16  GLN16      -0.0878
     17  N          9.9170   22.4070   22.9950 N.am   17  TYR17      -0.1974
     18  CA         8.7780   21.5700   23.3600 C.3    17  TYR17       0.1639
     19  C          8.2080   22.0810   24.6750 C.2    17  TYR17       0.2290
     20  O          8.8810   22.0070   25.7080 O.2    17  TYR17      -0.2864
     21  CB         9.1940   20.1050   23.5100 C.3    17  TYR17       0.0560
     22  CG         9.6310   19.4270   22.2350 C.ar   17  TYR17      -0.0198
     23  CD1       10.8790   19.6840   21.6760 C.ar   17  TYR17      -0.0009
     24  CD2        8.8050   18.5110   21.5980 C.ar   17  TYR17      -0.0009
     25  CE1       11.2830   19.0580   20.5040 C.ar   17  TYR17       0.0417
     26  CE2        9.2000   17.8790   20.4310 C.ar   17  TYR17       0.0417
     27  CZ        10.4380   18.1550   19.8880 C.ar   17  TYR17       0.1957
     28  OH        10.8300   17.5210   18.7320 O.3    17  TYR17      -0.2866
     29  N          8.3960   24.9450   29.4570 N.3    33  VAL33      -0.1245
     30  CA         9.2200   23.8020   29.0790 C.3    33  VAL33       0.1561
     31  C          9.4640   22.9560   30.3230 C.2    33  VAL33       0.2260
     32  O          9.8500   23.4800   31.3780 O.2    33  VAL33      -0.2867
     33  CB        10.5500   24.2690   28.4630 C.3    33  VAL33       0.0252
     34  CG1       11.5300   23.1080   28.3360 C.3    33  VAL33       0.0019
     35  CG2       10.3100   24.9240   27.1170 C.3    33  VAL33       0.0019
     36  N         11.7610   20.6090   32.1200 N.3    35  ASP35      -0.1239
     37  CA        13.2110   20.4860   31.9910 C.3    35  ASP35       0.1674
     38  C         13.7660   19.6630   33.1520 C.2    35  ASP35       0.2266
     39  O         13.8340   20.1430   34.2910 O.2    35  ASP35      -0.2867
     40  CB        13.8390   21.8810   31.9320 C.3    35  ASP35       0.1410
     41  CG        15.3500   21.8690   32.1100 C.2    35  ASP35       0.3668
     42  OD1       16.0030   20.9010   31.6700 O.co2  35  ASP35      -0.2456
     43  OD2       15.8920   22.8560   32.6520 O.co2  35  ASP35      -0.2456
     44  N         16.7330   19.0830   33.5450 N.3    37  GLY37      -0.1210
     45  CA        18.0350   19.6600   33.7910 C.3    37  GLY37       0.1956
     46  C         18.0670   20.8110   34.7680 C.2    37  GLY37       0.2612
     47  O         19.1530   21.3100   35.0850 O.2    37  GLY37      -0.2717
     48  N         16.9100   21.2600   35.2510 N.am   38  SER38      -0.1952
     49  CA        16.8370   22.2840   36.2810 C.3    38  SER38       0.1924
     50  C         15.7740   21.8720   37.2920 C.2    38  SER38       0.2314
     51  O         15.0670   20.8770   37.1070 O.2    38  SER38      -0.2863
     52  CB        16.5530   23.6670   35.6790 C.3    38  SER38       0.2116
     53  OG        15.3180   23.6850   34.9890 O.3    38  SER38      -0.2180
     54  N         21.5030   29.6970   33.5620 N.3    80  TYR80      -0.1227
     55  CA        21.5670   28.6950   32.5130 C.3    80  TYR80       0.1736
     56  C         22.8300   28.9170   31.6940 C.2    80  TYR80       0.2596
     57  O         23.6200   29.8300   31.9610 O.2    80  TYR80      -0.2718
     58  CB        20.3270   28.7490   31.6200 C.3    80  TYR80       0.0548
     59  CG        19.0300   28.5080   32.3470 C.ar   80  TYR80      -0.0200
     60  CD1       18.6870   27.2360   32.7930 C.ar   80  TYR80      -0.0009
     61  CD2       18.1420   29.5510   32.5840 C.ar   80  TYR80      -0.0009
     62  CE1       17.4940   27.0110   33.4520 C.ar   80  TYR80       0.0417
     63  CE2       16.9480   29.3330   33.2500 C.ar   80  TYR80       0.0417
     64  CZ        16.6310   28.0620   33.6810 C.ar   80  TYR80       0.1957
     65  OH        15.4460   27.8440   34.3440 O.3    80  TYR80      -0.2866
     66  N         23.0050   28.0680   30.6770 N.am   81  SER81      -0.1938
     67  CA        24.1570   28.1940   29.7900 C.3    81  SER81       0.2055
     68  C         24.1530   29.5200   29.0450 C.2    81  SER81       0.2643
     69  O         25.2180   30.0070   28.6540 O.2    81  SER81      -0.2714
     70  CB        24.1800   27.0430   28.7890 C.3    81  SER81       0.2130
     71  OG        23.1690   27.2180   27.8130 O.3    81  SER81      -0.2179
     72  N         22.9750   30.1160   28.8390 N.am   82  THR82      -0.1950
     73  CA        22.8670   31.3850   28.1290 C.3    82  THR82       0.1897
     74  C         23.0290   32.6030   29.0260 C.2    82  THR82       0.2313
     75  O         23.2580   33.7040   28.5130 O.2    82  THR82      -0.2863
     76  CB        21.5140   31.4920   27.4230 C.3    82  THR82       0.1794
     77  OG1       20.4700   31.1600   28.3480 O.3    82  THR82      -0.2208
     78  CG2       21.4590   30.5670   26.2190 C.3    82  THR82       0.0378
     79  N         18.6880   34.9530   25.6880 N.3   115  PRO115     -0.2102
     80  CA        17.9790   34.2630   24.6070 C.3   115  PRO115      0.1504
     81  C         16.4590   34.4420   24.5360 C.2   115  PRO115      0.2575
     82  O         15.8570   33.9730   23.5710 O.2   115  PRO115     -0.2718
     83  CB        18.2860   32.8050   24.9200 C.3   115  PRO115      0.0282
     84  CG        18.2060   32.7810   26.4450 C.3   115  PRO115      0.0208
     85  CD        18.6660   34.1530   26.9260 C.3   115  PRO115      0.0893
     86  N         15.8420   35.0890   25.5220 N.am  116  PHE116     -0.1977
     87  CA        14.4100   34.8950   25.7270 C.3   116  PHE116      0.1639
     88  C         13.5260   35.6330   24.7300 C.2   116  PHE116      0.2290
     89  O         12.3140   35.3980   24.7200 O.2   116  PHE116     -0.2864
     90  CB        14.0560   35.2590   27.1680 C.3   116  PHE116      0.0560
     91  CG        14.6150   34.2840   28.1490 C.ar  116  PHE116     -0.0200
     92  CD1       14.1050   32.9970   28.2180 C.ar  116  PHE116     -0.0042
     93  CD2       15.7020   34.6120   28.9360 C.ar  116  PHE116     -0.0042
     94  CE1       14.6420   32.0730   29.0870 C.ar  116  PHE116     -0.0003
     95  CE2       16.2410   33.6900   29.8040 C.ar  116  PHE116     -0.0003
     96  CZ        15.7080   32.4200   29.8830 C.ar  116  PHE116     -0.0000
     97  N         13.9090   34.7500   21.7810 N.3   118  LEU118     -0.1231
     98  CA        13.8200   33.6300   20.8570 C.3   118  LEU118      0.1693
     99  C         12.9140   32.5130   21.3610 C.2   118  LEU118      0.2591
    100  O         12.7850   31.4850   20.6890 O.2   118  LEU118     -0.2718
    101  CB        15.2180   33.0610   20.5810 C.3   118  LEU118      0.0284
    102  CG        16.3810   34.0360   20.3740 C.3   118  LEU118      0.0019
    103  CD1       17.7000   33.2850   20.3380 C.3   118  LEU118      0.0001
    104  CD2       16.1880   34.8480   19.1060 C.3   118  LEU118      0.0001
    105  N         12.2790   32.6870   22.5120 N.am  119  ALA119     -0.1980
    106  CA        11.5370   31.6150   23.1600 C.3   119  ALA119      0.1597
    107  C         10.0500   31.7110   22.8400 C.2   119  ALA119      0.2287
    108  O          9.4370   32.7680   23.0160 O.2   119  ALA119     -0.2864
    109  CB        11.7480   31.6550   24.6720 C.3   119  ALA119      0.0319
    110  N          8.0320   29.5510   24.4990 N.3   121  PHE121     -0.1241
    111  CA         7.5170   29.3000   25.8350 C.3   121  PHE121      0.1605
    112  C          7.5940   30.5720   26.6760 C.2   121  PHE121      0.2264
    113  O          8.2810   31.5350   26.3320 O.2   121  PHE121     -0.2867
    114  CB         8.3070   28.1740   26.5030 C.3   121  PHE121      0.0534
    115  CG         9.7750   28.4890   26.6910 C.ar  121  PHE121     -0.0203
    116  CD1       10.6920   28.2080   25.6910 C.ar  121  PHE121     -0.0042
    117  CD2       10.2330   29.0750   27.8660 C.ar  121  PHE121     -0.0042
    118  CE1       12.0320   28.4950   25.8590 C.ar  121  PHE121     -0.0003
    119  CE2       11.5690   29.3760   28.0350 C.ar  121  PHE121     -0.0003
    120  CZ        12.4690   29.0860   27.0290 C.ar  121  PHE121     -0.0000
    121  N          9.6270   28.0250   32.8000 N.3   124  VAL124     -0.1245
    122  CA        10.2510   26.7120   32.9240 C.3   124  VAL124      0.1561
    123  C          9.6920   26.0110   34.1560 C.2   124  VAL124      0.2260
    124  O          9.5060   26.6320   35.2090 O.2   124  VAL124     -0.2867
    125  CB        11.7900   26.8250   33.0180 C.3   124  VAL124      0.0252
    126  CG1       12.4290   25.4570   33.1920 C.3   124  VAL124      0.0019
    127  CG2       12.3530   27.5180   31.7910 C.3   124  VAL124      0.0019
    128  N          8.5860   13.0630   22.7260 N.3   159  TYR159     -0.1241
    129  CA         8.8280   14.1660   21.8040 C.3   159  TYR159      0.1605
    130  C          8.6550   13.6590   20.3790 C.2   159  TYR159      0.2264
    131  O          9.2070   12.6130   20.0120 O.2   159  TYR159     -0.2867
    132  CB        10.2310   14.7500   21.9650 C.3   159  TYR159      0.0534
    133  CG        10.4370   15.6800   23.1340 C.ar  159  TYR159     -0.0201
    134  CD1        9.3770   16.0910   23.9300 C.ar  159  TYR159     -0.0009
    135  CD2       11.7150   16.1370   23.4510 C.ar  159  TYR159     -0.0009
    136  CE1        9.5860   16.9440   25.0110 C.ar  159  TYR159      0.0417
    137  CE2       11.9340   16.9870   24.5180 C.ar  159  TYR159      0.0417
    138  CZ        10.8700   17.3890   25.2940 C.ar  159  TYR159      0.1957
    139  OH        11.1020   18.2370   26.3530 O.3   159  TYR159     -0.2866
    140  N         23.8380   13.3290   30.9870 N.3   221  LEU221     -0.1245
    141  CA        22.6600   13.9570   31.5650 C.3   221  LEU221      0.1561
    142  C         21.5110   13.8540   30.5680 C.2   221  LEU221      0.2260
    143  O         21.6270   14.3430   29.4410 O.2   221  LEU221     -0.2867
    144  CB        22.9740   15.4170   31.8890 C.3   221  LEU221      0.0270
    145  CG        21.8740   16.3120   32.4410 C.3   221  LEU221      0.0019
    146  CD1       21.4980   15.8760   33.8430 C.3   221  LEU221      0.0001
    147  CD2       22.3440   17.7590   32.4290 C.3   221  LEU221      0.0001
    148  N         18.4880   15.3200   29.4960 N.3   223  ASP223     -0.1225
    149  CA        18.0550   16.6980   29.7400 C.3   223  ASP223      0.1805
    150  C         16.8780   17.0460   28.8270 C.2   223  ASP223      0.2598
    151  O         17.0740   17.4070   27.6630 O.2   223  ASP223     -0.2718
    152  CB        19.2390   17.6450   29.5250 C.3   223  ASP223      0.1424
    153  CG        18.9500   19.0840   29.9540 C.2   223  ASP223      0.3668
    154  OD1       17.7660   19.4590   30.0910 O.co2 223  ASP223     -0.2456
    155  OD2       19.9250   19.8480   30.1400 O.co2 223  ASP223     -0.2456
    156  N         15.6580   16.9820   29.3720 N.am  224  THR224     -0.1939
    157  CA        14.4600   17.2870   28.5870 C.3   224  THR224      0.2028
    158  C         14.3470   18.7580   28.2020 C.2   224  THR224      0.2643
    159  O         13.4880   19.0940   27.3790 O.2   224  THR224     -0.2714
    160  CB        13.1950   16.8740   29.3420 C.3   224  THR224      0.1808
    161  OG1       13.2020   17.4560   30.6520 O.3   224  THR224     -0.2208
    162  CG2       13.1070   15.3530   29.4540 C.3   224  THR224      0.0379
    163  N         15.1740   19.6350   28.7680 N.am  225  GLY225     -0.1939
    164  CA        15.2390   21.0180   28.3450 C.3   225  GLY225      0.2014
    165  C         16.2750   21.3210   27.2810 C.2   225  GLY225      0.2639
    166  O         16.4480   22.4820   26.8930 O.2   225  GLY225     -0.2714
    167  N         16.9820   20.3070   26.7940 N.am  226  ALA226     -0.1963
    168  CA        18.0170   20.4990   25.7900 C.3   226  ALA226      0.1728
    169  C         17.4430   20.2570   24.3930 C.2   226  ALA226      0.2616
    170  O         16.8750   19.1940   24.1210 O.2   226  ALA226     -0.2715
    171  CB        19.1970   19.5650   26.0710 C.3   226  ALA226      0.0334
    172  N         17.5780   21.2520   23.5150 N.am  227  SER227     -0.1950
    173  CA        17.1210   21.0820   22.1370 C.3   227  SER227      0.1924
    174  C         17.9860   20.0650   21.3970 C.2   227  SER227      0.2314
    175  O         17.4680   19.1730   20.7140 O.2   227  SER227     -0.2863
    176  CB        17.1250   22.4260   21.4030 C.3   227  SER227      0.2116
    177  OG        16.3680   23.4130   22.0860 O.3   227  SER227     -0.2180
    178  N         25.7860   20.1440   19.2490 N.3   298  HIS298     -0.1241
    179  CA        26.7590   21.2200   19.3810 C.3   298  HIS298      0.1621
    180  C         27.4900   21.0470   20.7030 C.2   298  HIS298      0.2264
    181  O         27.1410   20.1930   21.5170 O.2   298  HIS298     -0.2867
    182  CB        26.0960   22.5950   19.2710 C.3   298  HIS298      0.0745
    183  CG        25.4300   23.0460   20.5280 C.ar  298  HIS298      0.0817
    184  ND1       25.5060   24.3430   20.9850 N.ar  298  HIS298     -0.2268
    185  CD2       24.6710   22.3740   21.4250 C.ar  298  HIS298      0.1154
    186  CE1       24.8250   24.4500   22.1120 C.ar  298  HIS298      0.1986
    187  NE2       24.3100   23.2690   22.4020 N.ar  298  HIS298     -0.2212
    188  N         28.7860   22.0260   24.4230 N.3   300  MET300     -0.1245
    189  CA        28.4610   22.7810   25.6300 C.3   300  MET300      0.1570
    190  C         29.2960   22.2490   26.7820 C.2   300  MET300      0.2261
    191  O         29.1470   21.0890   27.1750 O.2   300  MET300     -0.2867
    192  CB        26.9780   22.6960   25.9700 C.3   300  MET300      0.0387
    193  CG        26.6110   23.4690   27.2180 C.3   300  MET300      0.0595
    194  SD        24.8260   23.6090   27.4210 S.3   300  MET300     -0.1393
    195  CE        24.4130   24.6330   26.0200 C.3   300  MET300      0.0692
    196  N         16.5480   16.7430   23.0050 N.3   314  ALA314     -0.1245
    197  CA        15.4440   16.3220   22.1420 C.3   314  ALA314      0.1562
    198  C         15.9110   15.5100   20.9360 C.2   314  ALA314      0.2260
    199  O         15.1560   14.6700   20.4350 O.2   314  ALA314     -0.2867
    200  CB        14.6490   17.5420   21.6730 C.3   314  ALA314      0.0290
@<TRIPOS>BOND
     1     7     5    1
     2     6     5    1
     3     1     2    1
     4     5     2    1
     5    28    27    1
     6   104   102    1
     7     2     3    1
     8   178   179    1
     9   182   179    1
    10   182   183    1
    11   179   180    1
    12    27    26   ar
    13    27    25   ar
    14   131   130    2
    15   103   102    1
    16   102   101    1
    17   130   129    1
    18    26    24   ar
    19   199   198    2
    20     3     8   am
    21     3     4    2
    22     8     9    1
    23    25    23   ar
    24   183   184   ar
    25   183   185   ar
    26   101    98    1
    27   100    99    2
    28   180   181    2
    29   175   174    2
    30    98    99    1
    31    98    97    1
    32    16    14   am
    33   198   197    1
    34   184   186   ar
    35    11    10    2
    36    13    14    1
    37    13    12    1
    38    99   105   am
    39   174   173    1
    40   176   177    1
    41   176   173    1
    42   185   187   ar
    43    14    15    2
    44    12     9    1
    45    24    22   ar
    46   200   197    1
    47    23    22   ar
    48     9    10    1
    49   129   132    1
    50   129   128    1
    51    10    17   am
    52   132   133    1
    53   186   187   ar
    54   173   172    1
    55   197   196    1
    56    22    21    1
    57   105   106    1
    58   107   108    2
    59   107   106    1
    60    17    18    1
    61   133   135   ar
    62   133   134   ar
    63   106   109    1
    64    18    21    1
    65    18    19    1
    66   135   137   ar
    67   172   169   am
    68    82    81    2
    69   134   136   ar
    70   170   169    2
    71   169   168    1
    72   188   189    1
    73   110   111    1
    74   137   138   ar
    75    81    80    1
    76    81    86   am
    77    80    83    1
    78    80    79    1
    79    19    20    2
    80    89    88    2
    81    88    87    1
    82    83    84    1
    83   136   138   ar
    84   138   139    1
    85    86    87    1
    86   189   192    1
    87   189   190    1
    88    79    85    1
    89   116   118   ar
    90   116   115   ar
    91    87    90    1
    92   168   171    1
    93   168   167    1
    94   111   114    1
    95   111   112    1
    96   118   120   ar
    97   192   193    1
    98   195   194    1
    99    78    76    1
   100   113   112    2
   101    84    85    1
   102   114   115    1
   103   115   117   ar
   104   190   191    2
   105   167   165   am
   106   166   165    2
   107   120   119   ar
   108    35    33    1
   109    90    91    1
   110   193   194    1
   111   165   164    1
   112   159   158    2
   113    76    73    1
   114    76    77    1
   115   151   150    2
   116    71    70    1
   117   117   119   ar
   118    73    72    1
   119    73    74    1
   120    91    92   ar
   121    91    93   ar
   122   158   157    1
   123   158   163   am
   124    92    94   ar
   125    34    33    1
   126   164   163    1
   127    33    30    1
   128    75    74    2
   129   157   160    1
   130   157   156    1
   131    69    68    2
   132    70    67    1
   133   150   156   am
   134   150   149    1
   135    72    68   am
   136    93    95   ar
   137    68    67    1
   138    30    29    1
   139    30    31    1
   140    94    96   ar
   141   160   162    1
   142   160   161    1
   143   143   142    2
   144   148   149    1
   145   152   149    1
   146   152   153    1
   147    67    66    1
   148    95    96   ar
   149   153   154   ar
   150   153   155   ar
   151    31    32    2
   152   142   141    1
   153    66    56   am
   154   140   141    1
   155   141   144    1
   156    58    59    1
   157    58    55    1
   158    42    41   ar
   159    56    57    2
   160    56    55    1
   161   127   125    1
   162   144   145    1
   163    40    37    1
   164    40    41    1
   165    37    36    1
   166    37    38    1
   167    41    43   ar
   168    59    61   ar
   169    59    60   ar
   170   147   145    1
   171   145   146    1
   172    55    54    1
   173    61    63   ar
   174    60    62   ar
   175   121   122    1
   176   122   125    1
   177   122   123    1
   178   125   126    1
   179    38    39    2
   180    63    64   ar
   181    62    64   ar
   182    44    45    1
   183    64    65    1
   184    45    46    1
   185   123   124    2
   186    46    47    2
   187    46    48   am
   188    53    52    1
   189    48    49    1
   190    52    49    1
   191    49    50    1
   192    51    50    2
