@<TRIPOS>MOLECULE
tmp/5v92B00.pdb
 84 82 0 0 0
SMALL
GASTEIGER

@<TRIPOS>ATOM
      1  N         -1.0050   13.9950    0.2020 N.3    19  ASN19      -0.1240
      2  CA        -0.8730   12.6280    0.7120 C.3    19  ASN19       0.1653
      3  C         -2.0540   11.7180    0.3740 C.2    19  ASN19       0.2266
      4  O         -2.1170   10.5980    0.8870 O.2    19  ASN19      -0.2867
      5  CB        -0.5670   12.5920    2.2300 C.3    19  ASN19       0.1155
      6  CG         0.0420   11.2910    2.6760 C.2    19  ASN19       0.2627
      7  OD1        0.9480   10.7600    2.0270 O.2    19  ASN19      -0.2716
      8  ND2       -0.4220   10.7840    3.8280 N.am   19  ASN19      -0.0877
      9  N         -1.1190    8.3860   -0.7870 N.3    22  GLY22      -0.1210
     10  CA         0.3150    8.4410   -0.5470 C.3    22  GLY22       0.1956
     11  C          1.0890    9.4030   -1.4200 C.2    22  GLY22       0.2612
     12  O          2.3190    9.4270   -1.3650 O.2    22  GLY22      -0.2717
     13  N          0.3930   10.2030   -2.2340 N.am   23  TYR23      -0.1962
     14  CA         1.0270   11.1520   -3.1410 C.3    23  TYR23       0.1771
     15  C          1.0260   12.5500   -2.5510 C.2    23  TYR23       0.2620
     16  O         -0.0340   13.1360   -2.3370 O.2    23  TYR23      -0.2715
     17  CB         0.3150   11.1360   -4.4830 C.3    23  TYR23       0.0574
     18  CG         0.5010    9.8300   -5.2460 C.ar   23  TYR23      -0.0198
     19  CD1        1.6410    9.6220   -6.0250 C.ar   23  TYR23      -0.0009
     20  CD2       -0.4640    8.8350   -5.2090 C.ar   23  TYR23      -0.0009
     21  CE1        1.8150    8.4390   -6.7280 C.ar   23  TYR23       0.0417
     22  CE2       -0.3080    7.6450   -5.9250 C.ar   23  TYR23       0.0417
     23  CZ         0.8270    7.4670   -6.6960 C.ar   23  TYR23       0.1957
     24  OH         0.9450    6.3250   -7.4620 O.3    23  TYR23      -0.2866
     25  N          2.2160   13.0490   -2.2260 N.am   24  SER24      -0.1950
     26  CA         2.3390   14.3870   -1.6810 C.3    24  SER24       0.1924
     27  C          1.8030   15.4460   -2.6480 C.2    24  SER24       0.2314
     28  O          1.7570   15.2300   -3.8600 O.2    24  SER24      -0.2863
     29  CB         3.7930   14.6780   -1.2910 C.3    24  SER24       0.2116
     30  OG         4.5940   14.8820   -2.4210 O.3    24  SER24      -0.2180
     31  N          3.2040   16.3030   -6.1470 N.3    27  ASN27      -0.1240
     32  CA         2.8790   15.4130   -7.2790 C.3    27  ASN27       0.1653
     33  C          1.6950   15.9110   -8.1000 C.2    27  ASN27       0.2266
     34  O          1.7160   15.8280   -9.3280 O.2    27  ASN27      -0.2867
     35  CB         2.5120   14.0250   -6.7950 C.3    27  ASN27       0.1155
     36  CG         3.6720   13.2570   -6.3250 C.2    27  ASN27       0.2627
     37  OD1        3.8190   13.0180   -5.1110 O.2    27  ASN27      -0.2716
     38  ND2        4.5360   12.8790   -7.2460 N.am   27  ASN27      -0.0877
     39  N          2.6020   13.1000  -15.8580 N.3   111  TRP111     -0.1241
     40  CA         3.1620   12.9570  -14.5190 C.3   111  TRP111      0.1605
     41  C          4.2480   11.8500  -14.4950 C.2   111  TRP111      0.2264
     42  O          5.3440   12.0100  -13.9270 O.2   111  TRP111     -0.2867
     43  CB         2.0440   12.6750  -13.5190 C.3   111  TRP111      0.0550
     44  CG         2.5730   12.3910  -12.1640 C.ar  111  TRP111      0.0003
     45  CD1        2.9020   13.2750  -11.1880 C.ar  111  TRP111      0.0946
     46  CD2        2.8460   11.1010  -11.6500 C.ar  111  TRP111      0.0152
     47  NE1        3.3910   12.6120  -10.1110 N.ar  111  TRP111     -0.2442
     48  CE2        3.3660   11.2720  -10.3550 C.ar  111  TRP111      0.0810
     49  CE3        2.7210    9.8070  -12.1750 C.ar  111  TRP111      0.0012
     50  CZ2        3.7310   10.2000   -9.5550 C.ar  111  TRP111      0.0191
     51  CZ3        3.0860    8.7330  -11.3860 C.ar  111  TRP111      0.0001
     52  CH2        3.6010    8.9390  -10.0900 C.ar  111  TRP111      0.0015
     53  N          9.4300   10.4870   -9.4060 N.3   117  GLY117     -0.1210
     54  CA        10.8150   10.2470   -9.0130 C.3   117  GLY117      0.1956
     55  C         11.6740   11.4910   -8.9100 C.2   117  GLY117      0.2613
     56  O         12.8760   11.3790   -8.7190 O.2   117  GLY117     -0.2717
     57  N         11.0680   12.6710   -9.0370 N.am  118  THR118     -0.1938
     58  CA        11.7510   13.9410   -8.8080 C.3   118  THR118      0.2028
     59  C         11.3370   14.4930   -7.4390 C.2   118  THR118      0.2642
     60  O         10.4060   13.9770   -6.8010 O.2   118  THR118     -0.2714
     61  CB        11.3790   14.9600   -9.9040 C.3   118  THR118      0.1808
     62  OG1       10.0200   15.3990   -9.7240 O.3   118  THR118     -0.2208
     63  CG2       11.5290   14.3330  -11.2920 C.3   118  THR118      0.0379
     64  N         12.0200   15.5420   -6.9900 N.am  119  ASP119     -0.1957
     65  CA        11.6350   16.2390   -5.7580 C.3   119  ASP119      0.1840
     66  C         10.4460   17.1510   -6.0860 C.2   119  ASP119      0.2622
     67  O         10.5680   18.3430   -6.3930 O.2   119  ASP119     -0.2715
     68  CB        12.8140   16.9780   -5.1290 C.3   119  ASP119      0.1450
     69  CG        12.5980   17.3790   -3.6880 C.2   119  ASP119      0.3671
     70  OD1       11.5930   17.0620   -3.0720 O.co2 119  ASP119     -0.2456
     71  OD2       13.5240   17.9290   -3.0880 O.co2 119  ASP119     -0.2456
     72  N          9.2800   16.5400   -6.0420 N.am  120  VAL120     -0.1963
     73  CA         8.0450   17.2350   -6.3840 C.3   120  VAL120      0.1727
     74  C          7.6550   18.2790   -5.3490 C.2   120  VAL120      0.2616
     75  O          6.8850   19.1800   -5.6770 O.2   120  VAL120     -0.2715
     76  CB         6.8720   16.2650   -6.6090 C.3   120  VAL120      0.0290
     77  CG1        7.1030   15.4350   -7.8470 C.3   120  VAL120      0.0023
     78  CG2        6.6000   15.4030   -5.3910 C.3   120  VAL120      0.0023
     79  N          8.1940   18.1970   -4.1260 N.am  121  SER121     -0.1950
     80  CA         7.8710   19.1900   -3.1090 C.3   121  SER121      0.1924
     81  C          8.3230   20.5890   -3.5270 C.2   121  SER121      0.2314
     82  O          7.7950   21.5830   -3.0210 O.2   121  SER121     -0.2863
     83  CB         8.4180   18.8010   -1.7190 C.3   121  SER121      0.2116
     84  OG         9.8310   18.9830   -1.5980 O.3   121  SER121     -0.2180
@<TRIPOS>BOND
     1    39    40    1
     2    40    41    1
     3    40    43    1
     4    41    42    2
     5    43    44    1
     6    49    46   ar
     7    49    51   ar
     8    44    46   ar
     9    44    45   ar
    10    46    48   ar
    11    51    52   ar
    12    63    61    1
    13    45    47   ar
    14    48    47   ar
    15    48    50   ar
    16    52    50   ar
    17    61    62    1
    18    61    58    1
    19    53    54    1
    20    34    33    2
    21    57    55   am
    22    57    58    1
    23    54    55    1
    24    55    56    2
    25    58    59    1
    26    33    32    1
    27    77    76    1
    28    24    23    1
    29    59    64   am
    30    59    60    2
    31    32    35    1
    32    32    31    1
    33    38    36   am
    34    64    65    1
    35    35    36    1
    36    21    23   ar
    37    21    19   ar
    38    23    22   ar
    39    76    73    1
    40    76    78    1
    41    67    66    2
    42    73    72    1
    43    73    74    1
    44    36    37    2
    45    66    72   am
    46    66    65    1
    47    19    18   ar
    48    22    20   ar
    49    65    68    1
    50    75    74    2
    51    74    79   am
    52    18    20   ar
    53    18    17    1
    54    68    69    1
    55    17    14    1
    56    79    80    1
    57    28    27    2
    58    69    71   ar
    59    69    70   ar
    60    81    80    1
    61    81    82    2
    62    14    15    1
    63    14    13    1
    64    80    83    1
    65    27    26    1
    66    15    16    2
    67    15    25   am
    68    30    29    1
    69    13    11   am
    70    25    26    1
    71    83    84    1
    72    26    29    1
    73    11    12    2
    74    11    10    1
    75     9    10    1
    76     1     2    1
    77     3     2    1
    78     3     4    2
    79     2     5    1
    80     7     6    2
    81     5     6    1
    82     6     8   am
