@<TRIPOS>MOLECULE
tmp/5v96A01.pdb
 164 153 0 0 0
SMALL
GASTEIGER

@<TRIPOS>ATOM
      1  N          1.6010   38.7310   25.8900 N.3    53  LEU53      -0.1231
      2  CA         1.8640   37.3380   26.2050 C.3    53  LEU53       0.1693
      3  C          2.4020   36.6960   24.9370 C.2    53  LEU53       0.2592
      4  O          1.8200   36.8880   23.8680 O.2    53  LEU53      -0.2718
      5  CB         0.5830   36.6350   26.6770 C.3    53  LEU53       0.0284
      6  CG         0.8000   35.4240   27.5860 C.3    53  LEU53       0.0019
      7  CD1       -0.4150   35.1940   28.4610 C.3    53  LEU53       0.0001
      8  CD2        1.1230   34.1960   26.7810 C.3    53  LEU53       0.0001
      9  N          3.5060   35.9500   25.0680 N.am   54  HIS54      -0.1976
     10  CA         4.2030   35.2580   23.9820 C.3    54  HIS54       0.1656
     11  C          3.2640   34.8840   22.8430 C.2    54  HIS54       0.2291
     12  O          2.3340   34.0970   23.0470 O.2    54  HIS54      -0.2864
     13  CB         4.8730   33.9840   24.5140 C.3    54  HIS54       0.0771
     14  CG         5.6800   34.1910   25.7580 C.ar   54  HIS54       0.0820
     15  ND1        6.8650   34.8990   25.7690 N.ar   54  HIS54      -0.2267
     16  CD2        5.4910   33.7510   27.0270 C.ar   54  HIS54       0.1154
     17  CE1        7.3640   34.8980   26.9930 C.ar   54  HIS54       0.1986
     18  NE2        6.5430   34.2190   27.7780 N.ar   54  HIS54      -0.2212
     19  N          2.4960   32.8220   20.5840 N.3    56  THR56      -0.1218
     20  CA         2.6970   31.4520   20.1340 C.3    56  THR56       0.1862
     21  C          1.4070   30.8750   19.5570 C.2    56  THR56       0.2287
     22  O          0.3430   31.4970   19.6030 O.2    56  THR56      -0.2866
     23  CB         3.1290   30.5640   21.2960 C.3    56  THR56       0.1770
     24  OG1        2.0770   30.5750   22.2760 O.3    56  THR56      -0.2211
     25  CG2        4.4280   31.0490   21.9180 C.3    56  THR56       0.0375
     26  N         -0.1550   28.4110   20.9810 N.3    58  GLU58      -0.1231
     27  CA        -1.0030   28.2410   22.1610 C.3    58  GLU58       0.1699
     28  C         -1.6980   29.5440   22.5220 C.2    58  GLU58       0.2592
     29  O         -2.8950   29.5630   22.8330 O.2    58  GLU58      -0.2718
     30  CB        -0.1660   27.7530   23.3480 C.3    58  GLU58       0.0402
     31  CG         0.3750   26.3340   23.2150 C.3    58  GLU58       0.1161
     32  CD         1.5250   26.2120   22.2240 C.2    58  GLU58       0.3649
     33  OE1        2.2490   27.2110   21.9890 O.co2  58  GLU58      -0.2457
     34  OE2        1.7060   25.1030   21.6800 O.co2  58  GLU58      -0.2457
     35  N         -0.9560   30.6470   22.4940 N.am   59  THR59      -0.1953
     36  CA        -1.5600   31.9420   22.7680 C.3    59  THR59       0.1897
     37  C         -2.6220   32.2930   21.7420 C.2    59  THR59       0.2313
     38  O         -3.6370   32.9010   22.0940 O.2    59  THR59      -0.2863
     39  CB        -0.4730   33.0030   22.8180 C.3    59  THR59       0.1794
     40  OG1        0.3640   32.7170   23.9380 O.3    59  THR59      -0.2208
     41  CG2       -1.0580   34.4280   22.9720 C.3    59  THR59       0.0378
     42  N          5.1870   39.3580   24.8790 N.3    78  CYS78      -0.1235
     43  CA         5.9040   39.8680   26.0350 C.3    78  CYS78       0.1677
     44  C          7.3900   39.5540   25.9810 C.2    78  CYS78       0.2270
     45  O          8.0830   39.7370   26.9850 O.2    78  CYS78      -0.2867
     46  CB         5.2850   39.3180   27.3250 C.3    78  CYS78       0.0956
     47  SG         5.4240   37.5210   27.4470 S.3    78  CYS78      -0.0801
     48  N          1.9330   39.0110   31.0200 N.3   131  ASP131     -0.1239
     49  CA         2.8920   37.9460   31.3070 C.3   131  ASP131      0.1674
     50  C          4.2240   38.6430   31.5600 C.2   131  ASP131      0.2266
     51  O          4.9010   39.0490   30.6110 O.2   131  ASP131     -0.2867
     52  CB         2.9710   36.9750   30.1350 C.3   131  ASP131      0.1410
     53  CG         3.9580   35.8370   30.3700 C.2   131  ASP131      0.3668
     54  OD1        3.7420   34.7640   29.7870 O.co2 131  ASP131     -0.2456
     55  OD2        4.9420   35.9980   31.1200 O.co2 131  ASP131     -0.2456
     56  N          0.2900   36.1950   34.2970 N.3   192  GLU192     -0.1231
     57  CA         0.6290   34.8110   33.9920 C.3   192  GLU192      0.1699
     58  C          1.7580   34.2260   34.8470 C.2   192  GLU192      0.2592
     59  O          1.7480   33.0240   35.1200 O.2   192  GLU192     -0.2718
     60  CB         1.0140   34.7280   32.5090 C.3   192  GLU192      0.0402
     61  CG         1.5110   33.3750   32.0230 C.3   192  GLU192      0.1161
     62  CD         0.3770   32.3880   31.7340 C.2   192  GLU192      0.3649
     63  OE1       -0.8050   32.7670   31.8740 O.co2 192  GLU192     -0.2457
     64  OE2        0.6820   31.2260   31.3700 O.co2 192  GLU192     -0.2457
     65  N          2.7690   34.9950   35.2450 N.am  193  THR193     -0.1953
     66  CA         4.0120   34.3310   35.6100 C.3   193  THR193      0.1897
     67  C          4.5810   34.8560   36.9230 C.2   193  THR193      0.2313
     68  O          4.2410   35.9430   37.3980 O.2   193  THR193     -0.2863
     69  CB         5.0470   34.4410   34.4790 C.3   193  THR193      0.1794
     70  OG1        6.0390   33.4090   34.6290 O.3   193  THR193     -0.2208
     71  CG2        5.7210   35.8040   34.4890 C.3   193  THR193      0.0378
     72  N         -1.8640   26.0730   37.4450 N.3   222  LYS222     -0.1245
     73  CA        -0.8760   26.7850   36.6390 C.3   222  LYS222      0.1561
     74  C          0.5160   26.5030   37.1970 C.2   222  LYS222      0.2260
     75  O          1.2850   25.7620   36.5770 O.2   222  LYS222     -0.2867
     76  CB        -1.2060   28.2830   36.6020 C.3   222  LYS222      0.0271
     77  CG        -0.5080   29.1170   35.4950 C.3   222  LYS222      0.0035
     78  CD         1.0090   29.1990   35.6700 C.3   222  LYS222      0.0206
     79  CE         1.6690   29.9630   34.5340 C.3   222  LYS222      0.1093
     80  NZ         3.0710   30.2640   34.9440 N.3   222  LYS222     -0.1314
     81  N          2.1530   23.9530   34.3480 N.3   226  ASP226     -0.1225
     82  CA         2.9190   24.7890   33.4200 C.3   226  ASP226      0.1805
     83  C          4.3690   24.9520   33.8700 C.2   226  ASP226      0.2597
     84  O          5.3040   24.5740   33.1550 O.2   226  ASP226     -0.2718
     85  CB         2.1850   26.1450   33.3280 C.3   226  ASP226      0.1424
     86  CG         2.9250   27.2280   32.5420 C.2   226  ASP226      0.3668
     87  OD1        2.2180   27.9600   31.8050 O.co2 226  ASP226     -0.2456
     88  OD2        4.1560   27.4220   32.6840 O.co2 226  ASP226     -0.2456
     89  N          4.5800   25.5110   35.0680 N.am  227  ASN227     -0.1974
     90  CA         5.9500   25.8530   35.4500 C.3   227  ASN227      0.1688
     91  C          6.8260   24.6160   35.5300 C.2   227  ASN227      0.2292
     92  O          8.0090   24.6830   35.2030 O.2   227  ASN227     -0.2864
     93  CB         5.9870   26.5920   36.7880 C.3   227  ASN227      0.1181
     94  CG         5.1990   27.8780   36.7710 C.2   227  ASN227      0.2629
     95  OD1        4.1770   27.9870   36.0940 O.2   227  ASN227     -0.2716
     96  ND2        5.6650   28.8590   37.5250 N.am  227  ASN227     -0.0877
     97  N         14.3110   31.5900   33.0840 N.3   336  GLY336     -0.1225
     98  CA        13.6210   32.2830   34.1510 C.3   336  GLY336      0.1811
     99  C         13.0010   33.5740   33.6760 C.2   336  GLY336      0.2280
    100  O         11.8200   33.5990   33.3240 O.2   336  GLY336     -0.2866
    101  N         14.4810   33.8000   27.4640 N.3   381  LEU381     -0.1245
    102  CA        13.8110   32.5140   27.6360 C.3   381  LEU381      0.1561
    103  C         14.1690   31.5470   26.5260 C.2   381  LEU381      0.2260
    104  O         13.7950   31.7570   25.3690 O.2   381  LEU381     -0.2867
    105  CB        12.2910   32.6880   27.6710 C.3   381  LEU381      0.0270
    106  CG        11.6990   33.5380   28.7850 C.3   381  LEU381      0.0019
    107  CD1       10.1630   33.4080   28.7440 C.3   381  LEU381      0.0001
    108  CD2       12.2660   33.1040   30.1260 C.3   381  LEU381      0.0001
    109  N         13.3520   28.3270   26.0920 N.3   383  ASN383     -0.1225
    110  CA        12.3340   27.4100   25.6000 C.3   383  ASN383      0.1785
    111  C         11.4860   28.0830   24.5360 C.2   383  ASN383      0.2597
    112  O         11.1040   27.4530   23.5460 O.2   383  ASN383     -0.2718
    113  CB        11.4760   26.8850   26.7510 C.3   383  ASN383      0.1169
    114  CG        10.7540   27.9870   27.5450 C.2   383  ASN383      0.2627
    115  OD1       11.2310   29.1070   27.6850 O.2   383  ASN383     -0.2716
    116  ND2        9.5970   27.6380   28.0920 N.am  383  ASN383     -0.0877
    117  N         11.2190   29.3730   24.7050 N.am  384  LEU384     -0.1980
    118  CA        10.4170   30.1250   23.7530 C.3   384  LEU384      0.1596
    119  C         11.2630   30.7750   22.6700 C.2   384  LEU384      0.2287
    120  O         10.7920   30.9370   21.5360 O.2   384  LEU384     -0.2864
    121  CB         9.6050   31.2030   24.4890 C.3   384  LEU384      0.0297
    122  CG         8.4040   30.6110   25.2400 C.3   384  LEU384      0.0022
    123  CD1        8.1190   31.3300   26.5380 C.3   384  LEU384      0.0001
    124  CD2        7.1680   30.6000   24.3530 C.3   384  LEU384      0.0001
    125  N          9.5190   26.2930   20.7760 N.3   388  THR388     -0.1203
    126  CA         8.1360   26.7410   20.6310 C.3   388  THR388      0.1994
    127  C          7.4310   26.9240   21.9680 C.2   388  THR388      0.2618
    128  O          6.1960   27.0300   21.9930 O.2   388  THR388     -0.2717
    129  CB         7.3490   25.7550   19.7560 C.3   388  THR388      0.1784
    130  OG1        7.3960   24.4410   20.3470 O.3   388  THR388     -0.2211
    131  CG2        7.9460   25.6950   18.3340 C.3   388  THR388      0.0376
    132  N          8.1810   26.9810   23.0770 N.am  389  GLY389     -0.1942
    133  CA         7.5700   27.0700   24.3990 C.3   389  GLY389      0.2014
    134  C          6.8600   25.7860   24.8110 C.2   389  GLY389      0.2638
    135  O          6.9510   24.7410   24.1540 O.2   389  GLY389     -0.2714
    136  N          6.1460   25.8810   25.9400 N.am  390  HIS390     -0.1973
    137  CA         5.3850   24.7520   26.4590 C.3   390  HIS390      0.1656
    138  C          4.4000   24.2410   25.4130 C.2   390  HIS390      0.2291
    139  O          3.8840   25.0190   24.5990 O.2   390  HIS390     -0.2864
    140  CB         4.5740   25.1390   27.7010 C.3   390  HIS390      0.0771
    141  CG         5.3950   25.6210   28.8520 C.ar  390  HIS390      0.0820
    142  ND1        6.7680   25.5220   28.8880 N.ar  390  HIS390     -0.2267
    143  CD2        5.0280   26.2210   30.0090 C.ar  390  HIS390      0.1154
    144  CE1        7.2140   26.0410   30.0180 C.ar  390  HIS390      0.1986
    145  NE2        6.1770   26.4750   30.7140 N.ar  390  HIS390     -0.2212
    146  N         -0.5340   24.3350   28.3520 N.3   395  MET395     -0.1245
    147  CA        -0.9520   25.7290   28.2370 C.3   395  MET395      0.1570
    148  C         -2.4690   25.8660   28.2790 C.2   395  MET395      0.2261
    149  O         -2.9740   26.9300   28.6550 O.2   395  MET395     -0.2867
    150  CB        -0.4180   26.3710   26.9490 C.3   395  MET395      0.0387
    151  CG         1.1200   26.5620   26.9000 C.3   395  MET395      0.0595
    152  SD         1.7720   27.2000   28.4620 S.3   395  MET395     -0.1393
    153  CE         1.0010   28.8130   28.5170 C.3   395  MET395      0.0692
    154  N         -4.1480   28.6840   30.4030 N.3   399  PHE399     -0.1241
    155  CA        -4.9680   29.6430   29.6970 C.3   399  PHE399      0.1605
    156  C         -6.4450   29.5030   30.0350 C.2   399  PHE399      0.2264
    157  O         -7.2010   30.4550   29.8210 O.2   399  PHE399     -0.2867
    158  CB        -4.7170   29.5190   28.1900 C.3   399  PHE399      0.0534
    159  CG        -3.3790   30.0830   27.7520 C.ar  399  PHE399     -0.0203
    160  CD1       -2.6260   30.8670   28.6140 C.ar  399  PHE399     -0.0042
    161  CD2       -2.8770   29.8190   26.4800 C.ar  399  PHE399     -0.0042
    162  CE1       -1.3880   31.3910   28.2140 C.ar  399  PHE399     -0.0003
    163  CE2       -1.6420   30.3410   26.0670 C.ar  399  PHE399     -0.0003
    164  CZ        -0.9000   31.1290   26.9360 C.ar  399  PHE399     -0.0000
@<TRIPOS>BOND
     1   131   129    1
     2    21    22    2
     3    21    20    1
     4   129   130    1
     5   129   126    1
     6    20    19    1
     7    20    23    1
     8   126   125    1
     9   126   127    1
    10    26    27    1
    11    23    25    1
    12    23    24    1
    13   120   119    2
    14    34    32   ar
    15    37    38    2
    16    37    36    1
    17   127   128    2
    18   127   132   am
    19    33    32   ar
    20    27    28    1
    21    27    30    1
    22    32    31    1
    23    35    28   am
    24    35    36    1
    25    28    29    2
    26   119   118    1
    27    36    39    1
    28    39    41    1
    29    39    40    1
    30    11    12    2
    31    11    10    1
    32   132   133    1
    33    31    30    1
    34   112   111    2
    35   118   121    1
    36   118   117    1
    37     4     3    2
    38    10    13    1
    39    10     9    1
    40   135   134    2
    41   124   122    1
    42   133   134    1
    43   121   122    1
    44    13    14    1
    45   111   117   am
    46   111   110    1
    47   139   138    2
    48   134   136   am
    49    42    43    1
    50     3     9   am
    51     3     2    1
    52   122   123    1
    53   104   103    2
    54   138   137    1
    55   110   109    1
    56   110   113    1
    57    14    15   ar
    58    14    16   ar
    59    15    17   ar
    60     1     2    1
    61   136   137    1
    62    44    43    1
    63    44    45    2
    64    43    46    1
    65   163   161   ar
    66   163   164   ar
    67     2     5    1
    68   137   140    1
    69   161   159   ar
    70   103   102    1
    71     5     6    1
    72   113   114    1
    73     8     6    1
    74   151   150    1
    75   151   152    1
    76   164   162   ar
    77   150   147    1
    78    17    18   ar
    79    16    18   ar
    80    46    47    1
    81   101   102    1
    82   114   115    2
    83   114   116   am
    84     6     7    1
    85   102   105    1
    86   105   106    1
    87   140   141    1
    88   159   158    1
    89   159   160   ar
    90   158   155    1
    91   162   160   ar
    92   147   148    1
    93   147   146    1
    94   148   149    2
    95   152   153    1
    96   107   106    1
    97   106   108    1
    98   141   142   ar
    99   141   143   ar
   100   142   144   ar
   101   155   156    1
   102   155   154    1
   103    54    53   ar
   104   157   156    2
   105   143   145   ar
   106   144   145   ar
   107    52    53    1
   108    52    49    1
   109    53    55   ar
   110    51    50    2
   111    48    49    1
   112    49    50    1
   113    64    62   ar
   114    62    63   ar
   115    62    61    1
   116    87    86   ar
   117    61    60    1
   118    60    57    1
   119    86    88   ar
   120    86    85    1
   121    97    98    1
   122    84    83    2
   123   100    99    2
   124    85    82    1
   125    82    83    1
   126    82    81    1
   127    99    98    1
   128    83    89   am
   129    57    56    1
   130    57    58    1
   131    69    71    1
   132    69    70    1
   133    69    66    1
   134    79    80    1
   135    79    78    1
   136    58    59    2
   137    58    65   am
   138    89    90    1
   139    92    91    2
   140    65    66    1
   141    90    91    1
   142    90    93    1
   143    77    78    1
   144    77    76    1
   145    66    67    1
   146    95    94    2
   147    75    74    2
   148    76    73    1
   149    73    74    1
   150    73    72    1
   151    94    93    1
   152    94    96   am
   153    67    68    2
