@<TRIPOS>MOLECULE
tmp/5v9hB01.pdb
 147 139 0 0 0
SMALL
GASTEIGER

@<TRIPOS>ATOM
      1  N        -12.9350   -5.4730  -51.7380 N.3    79  ARG79      -0.1245
      2  CA       -14.0870   -4.5740  -51.8400 C.3    79  ARG79       0.1563
      3  C        -14.3580   -4.2640  -53.3080 C.2    79  ARG79       0.2260
      4  O        -13.4300   -4.2260  -54.1230 O.2    79  ARG79      -0.2867
      5  CB       -13.8520   -3.2560  -51.0890 C.3    79  ARG79       0.0307
      6  CG       -13.9830   -3.3340  -49.5770 C.3    79  ARG79       0.0489
      7  CD       -13.9580   -1.9460  -48.9520 C.3    79  ARG79       0.2205
      8  NE       -12.6590   -1.2870  -49.1280 N.pl3  79  ARG79      -0.0865
      9  CZ       -12.3310   -0.4100  -50.0860 C.cat  79  ARG79       0.5346
     10  NH1      -11.0990    0.0980  -50.1060 N.pl3  79  ARG79       0.1354
     11  NH2      -13.1940   -0.0280  -51.0280 N.pl3  79  ARG79       0.1354
     12  N        -16.0990  -11.4950  -48.6330 N.3   227  TYR227     -0.1241
     13  CA       -14.8760  -10.7710  -48.2510 C.3   227  TYR227      0.1605
     14  C        -15.1740   -9.7250  -47.1760 C.2   227  TYR227      0.2264
     15  O        -16.2070   -9.0480  -47.2340 O.2   227  TYR227     -0.2867
     16  CB       -14.1910  -10.1150  -49.4700 C.3   227  TYR227      0.0534
     17  CG       -13.0990   -9.1230  -49.1020 C.ar  227  TYR227     -0.0201
     18  CD1      -11.8290   -9.5560  -48.7180 C.ar  227  TYR227     -0.0009
     19  CD2      -13.3470   -7.7450  -49.1120 C.ar  227  TYR227     -0.0009
     20  CE1      -10.8370   -8.6440  -48.3670 C.ar  227  TYR227      0.0417
     21  CE2      -12.3600   -6.8280  -48.7680 C.ar  227  TYR227      0.0417
     22  CZ       -11.1100   -7.2800  -48.3900 C.ar  227  TYR227      0.1957
     23  OH       -10.1340   -6.3720  -48.0410 O.3   227  TYR227     -0.2866
     24  N        -14.4830   -6.6690  -46.0370 N.3   229  GLY229     -0.1225
     25  CA       -14.9830   -5.3210  -46.3190 C.3   229  GLY229      0.1811
     26  C        -16.4440   -5.2490  -46.7430 C.2   229  GLY229      0.2280
     27  O        -17.1320   -4.2730  -46.4490 O.2   229  GLY229     -0.2866
     28  N        -17.7330   -3.0800  -39.7420 N.3   235  LYS235     -0.1231
     29  CA       -16.4710   -2.4140  -40.0790 C.3   235  LYS235      0.1693
     30  C        -16.6580   -1.1660  -40.9740 C.2   235  LYS235      0.2591
     31  O        -16.8490   -0.0640  -40.4500 O.2   235  LYS235     -0.2718
     32  CB       -15.4930   -3.4440  -40.6740 C.3   235  LYS235      0.0285
     33  CG       -14.1290   -2.9060  -41.0640 C.3   235  LYS235      0.0035
     34  CD       -13.1340   -4.0470  -41.2300 C.3   235  LYS235      0.0206
     35  CE       -11.7650   -3.5440  -41.6510 C.3   235  LYS235      0.1093
     36  NZ       -11.0100   -2.9200  -40.5280 N.3   235  LYS235     -0.1314
     37  N        -16.6310   -1.3270  -42.2980 N.am  236  LYS236     -0.1980
     38  CA       -16.6940   -0.1870  -43.2220 C.3   236  LYS236      0.1596
     39  C        -18.1000    0.3570  -43.3360 C.2   236  LYS236      0.2287
     40  O        -18.3230    1.5670  -43.2340 O.2   236  LYS236     -0.2864
     41  CB       -16.2080   -0.5940  -44.6200 C.3   236  LYS236      0.0298
     42  CG       -14.7890   -1.1370  -44.6580 C.3   236  LYS236      0.0038
     43  CD       -13.8510   -0.1700  -43.9610 C.3   236  LYS236      0.0206
     44  CE       -12.4090   -0.3330  -44.3840 C.3   236  LYS236      0.1093
     45  NZ       -11.6420    0.8980  -44.0680 N.3   236  LYS236     -0.1314
     46  N        -11.3300    7.1560  -41.2360 N.3   256  HIS256     -0.1241
     47  CA       -10.5290    6.0260  -41.6960 C.3   256  HIS256      0.1621
     48  C         -9.0920    6.2290  -41.1960 C.2   256  HIS256      0.2264
     49  O         -8.1570    6.4460  -41.9840 O.2   256  HIS256     -0.2867
     50  CB       -10.6280    5.9480  -43.2290 C.3   256  HIS256      0.0745
     51  CG        -9.9450    4.7660  -43.8380 C.ar  256  HIS256      0.0817
     52  ND1       -9.4150    4.7980  -45.1080 N.ar  256  HIS256     -0.2268
     53  CD2       -9.7120    3.5200  -43.3650 C.ar  256  HIS256      0.1154
     54  CE1       -8.8820    3.6250  -45.3920 C.ar  256  HIS256      0.1986
     55  NE2       -9.0490    2.8330  -44.3520 N.ar  256  HIS256     -0.2212
     56  N         -6.4240    2.6430  -48.0110 N.3   278  SER278     -0.1202
     57  CA        -6.2830    1.1980  -47.8370 C.3   278  SER278      0.2020
     58  C         -4.9760    0.6800  -48.4480 C.2   278  SER278      0.2618
     59  O         -4.6230    1.0440  -49.5700 O.2   278  SER278     -0.2717
     60  CB        -7.4800    0.4920  -48.4670 C.3   278  SER278      0.2103
     61  OG        -8.6690    1.2350  -48.2410 O.3   278  SER278     -0.2182
     62  N         -4.2720   -0.1600  -47.6910 N.am  279  ALA279     -0.1979
     63  CA        -2.9390   -0.6580  -48.0530 C.3   279  ALA279      0.1597
     64  C         -1.9040    0.4410  -48.3870 C.2   279  ALA279      0.2287
     65  O         -1.0900    0.2700  -49.3030 O.2   279  ALA279     -0.2864
     66  CB        -3.0530   -1.6720  -49.1870 C.3   279  ALA279      0.0319
     67  N         -1.1100    2.1800  -42.8310 N.3   282  LYS282     -0.1231
     68  CA        -1.7180    2.4260  -41.5120 C.3   282  LYS282      0.1693
     69  C         -1.3460    1.3800  -40.4610 C.2   282  LYS282      0.2592
     70  O         -0.9290    1.7330  -39.3560 O.2   282  LYS282     -0.2718
     71  CB        -3.2500    2.5210  -41.5870 C.3   282  LYS282      0.0285
     72  CG        -3.8010    3.8080  -42.1810 C.3   282  LYS282      0.0035
     73  CD        -5.3100    3.9290  -41.9800 C.3   282  LYS282      0.0206
     74  CE        -6.1000    2.8060  -42.6410 C.3   282  LYS282      0.1093
     75  NZ        -5.7620    2.6040  -44.0860 N.3   282  LYS282     -0.1314
     76  N         -1.5070    0.1020  -40.8010 N.am  283  THR283     -0.1953
     77  CA        -1.2420   -0.9880  -39.8550 C.3   283  THR283      0.1897
     78  C          0.2300   -1.0020  -39.4260 C.2   283  THR283      0.2313
     79  O          0.5160   -1.0700  -38.2350 O.2   283  THR283     -0.2863
     80  CB        -1.6810   -2.3650  -40.4130 C.3   283  THR283      0.1794
     81  OG1       -3.1020   -2.3750  -40.5790 O.3   283  THR283     -0.2208
     82  CG2       -1.2970   -3.5080  -39.4730 C.3   283  THR283      0.0378
     83  N         -5.8640    0.3910  -35.7750 N.3   302  ASP302     -0.1225
     84  CA        -5.1510    0.4640  -37.0590 C.3   302  ASP302      0.1805
     85  C         -5.9630    0.9130  -38.2910 C.2   302  ASP302      0.2597
     86  O         -5.3860    1.0230  -39.3740 O.2   302  ASP302     -0.2718
     87  CB        -4.4730   -0.8830  -37.3520 C.3   302  ASP302      0.1424
     88  CG        -5.4360   -1.9490  -37.8700 C.2   302  ASP302      0.3668
     89  OD1       -6.6520   -1.8870  -37.5910 O.co2 302  ASP302     -0.2456
     90  OD2       -4.9550   -2.8720  -38.5520 O.co2 302  ASP302     -0.2456
     91  N         -7.2680    1.1630  -38.1400 N.am  303  ASP303     -0.1974
     92  CA        -8.1600    1.3350  -39.3070 C.3   303  ASP303      0.1709
     93  C         -9.2540    2.3920  -39.1420 C.2   303  ASP303      0.2293
     94  O         -9.3750    3.2800  -39.9860 O.2   303  ASP303     -0.2864
     95  CB        -8.8050   -0.0080  -39.6800 C.3   303  ASP303      0.1436
     96  CG        -9.3530   -0.0300  -41.1090 C.2   303  ASP303      0.3671
     97  OD1       -8.6080    0.3210  -42.0420 O.co2 303  ASP303     -0.2456
     98  OD2      -10.5240   -0.4280  -41.3070 O.co2 303  ASP303     -0.2456
     99  N         -7.8270   -6.3740  -39.2750 N.3   325  PHE325     -0.1227
    100  CA        -8.1070   -7.0670  -40.5270 C.3   325  PHE325      0.1736
    101  C         -7.0560   -6.5660  -41.5190 C.2   325  PHE325      0.2596
    102  O         -7.3560   -5.8410  -42.4750 O.2   325  PHE325     -0.2718
    103  CB        -9.5440   -6.7720  -40.9790 C.3   325  PHE325      0.0547
    104  CG        -9.9800   -7.5570  -42.1810 C.ar  325  PHE325     -0.0202
    105  CD1      -10.1940   -8.9270  -42.0900 C.ar  325  PHE325     -0.0042
    106  CD2      -10.1920   -6.9270  -43.4050 C.ar  325  PHE325     -0.0042
    107  CE1      -10.6000   -9.6610  -43.1960 C.ar  325  PHE325     -0.0003
    108  CE2      -10.5980   -7.6570  -44.5160 C.ar  325  PHE325     -0.0003
    109  CZ       -10.8000   -9.0260  -44.4100 C.ar  325  PHE325     -0.0000
    110  N         -5.8110   -6.9650  -41.2600 N.am  326  GLY326     -0.1942
    111  CA        -4.6350   -6.3880  -41.9150 C.3   326  GLY326      0.2014
    112  C         -4.1400   -7.1510  -43.1220 C.2   326  GLY326      0.2638
    113  O         -4.3420   -8.3620  -43.2240 O.2   326  GLY326     -0.2714
    114  N         -3.4740   -6.4300  -44.0280 N.am  327  VAL327     -0.1977
    115  CA        -2.9190   -7.0060  -45.2640 C.3   327  VAL327      0.1596
    116  C         -1.7440   -7.9240  -44.9030 C.2   327  VAL327      0.2287
    117  O         -0.9020   -7.5500  -44.0880 O.2   327  VAL327     -0.2864
    118  CB        -2.4620   -5.8980  -46.2570 C.3   327  VAL327      0.0276
    119  CG1       -1.7520   -6.4900  -47.4720 C.3   327  VAL327      0.0022
    120  CG2       -3.6500   -5.0590  -46.7160 C.3   327  VAL327      0.0022
    121  N         -5.4110  -11.5270  -46.3070 N.3   397  ARG397     -0.1245
    122  CA        -5.6450  -10.8600  -45.0270 C.3   397  ARG397      0.1563
    123  C         -5.4140  -11.7760  -43.8340 C.2   397  ARG397      0.2260
    124  O         -5.5710  -12.9950  -43.9360 O.2   397  ARG397     -0.2867
    125  CB        -7.0900  -10.3430  -44.9730 C.3   397  ARG397      0.0307
    126  CG        -7.4200   -9.2170  -45.9480 C.3   397  ARG397      0.0489
    127  CD        -7.0040   -7.8600  -45.4090 C.3   397  ARG397      0.2205
    128  NE        -7.1270   -6.7920  -46.4030 N.pl3 397  ARG397     -0.0865
    129  CZ        -6.9870   -5.4910  -46.1480 C.cat 397  ARG397      0.5346
    130  NH1       -6.7270   -5.0570  -44.9170 N.pl3 397  ARG397      0.1354
    131  NH2       -7.1170   -4.6040  -47.1320 N.pl3 397  ARG397      0.1354
    132  N         -6.7170   -3.3940  -52.2060 N.3   459  ALA459     -0.1245
    133  CA        -7.8640   -3.3870  -51.2710 C.3   459  ALA459      0.1562
    134  C         -9.2480   -3.2280  -51.9290 C.2   459  ALA459      0.2260
    135  O        -10.2580   -3.6190  -51.3360 O.2   459  ALA459     -0.2867
    136  CB        -7.6680   -2.3130  -50.2090 C.3   459  ALA459      0.0290
    137  N        -15.6640    5.5830  -48.6720 N.3   477  PHE477     -0.1241
    138  CA       -16.3380    5.4620  -47.3690 C.3   477  PHE477      0.1605
    139  C        -17.2000    6.6500  -46.9030 C.2   477  PHE477      0.2264
    140  O        -17.7850    6.5700  -45.8170 O.2   477  PHE477     -0.2867
    141  CB       -15.2860    5.1820  -46.2800 C.3   477  PHE477      0.0534
    142  CG       -14.3560    4.0360  -46.5930 C.ar  477  PHE477     -0.0203
    143  CD1      -14.8500    2.7470  -46.7600 C.ar  477  PHE477     -0.0042
    144  CD2      -12.9800    4.2400  -46.6980 C.ar  477  PHE477     -0.0042
    145  CE1      -14.0030    1.6900  -47.0390 C.ar  477  PHE477     -0.0003
    146  CE2      -12.1230    3.1830  -46.9740 C.ar  477  PHE477     -0.0003
    147  CZ       -12.6360    1.9050  -47.1440 C.ar  477  PHE477     -0.0000
@<TRIPOS>BOND
     1     4     3    2
     2     3     2    1
     3   132   133    1
     4   134   135    2
     5   134   133    1
     6     2     1    1
     7     2     5    1
     8   133   136    1
     9     5     6    1
    10    11     9    1
    11    10     9    1
    12     9     8    2
    13     6     7    1
    14    59    58    2
    15    16    17    1
    16    16    13    1
    17    65    64    2
    18    66    63    1
    19     8     7    1
    20    19    17   ar
    21    19    21   ar
    22    17    18   ar
    23    21    22   ar
    24    18    20   ar
    25   137   138    1
    26    12    13    1
    27    60    61    1
    28    60    57    1
    29    58    57    1
    30    58    62   am
    31    22    20   ar
    32    22    23    1
    33    64    63    1
    34    13    14    1
    35    63    62    1
    36    56    57    1
    37   119   118    1
    38   138   139    1
    39   138   141    1
    40    15    14    2
    41   147   145   ar
    42   147   146   ar
    43   131   129    1
    44   145   143   ar
    45   146   144   ar
    46   139   140    2
    47   143   142   ar
    48    26    27    2
    49    26    25    1
    50   120   118    1
    51   144   142   ar
    52   142   141    1
    53   128   129    2
    54   128   127    1
    55    25    24    1
    56   121   122    1
    57   118   115    1
    58   129   130    1
    59   126   127    1
    60   126   125    1
    61    54    52   ar
    62    54    55   ar
    63   115   116    1
    64   115   114    1
    65    52    51   ar
    66   122   125    1
    67   122   123    1
    68   116   117    2
    69    42    41    1
    70    42    43    1
    71    41    38    1
    72   108   109   ar
    73   108   106   ar
    74   109   107   ar
    75    44    45    1
    76    44    43    1
    77    55    53   ar
    78    75    74    1
    79   114   112   am
    80   124   123    2
    81    51    53   ar
    82    51    50    1
    83   106   104   ar
    84    39    40    2
    85    39    38    1
    86    50    47    1
    87   113   112    2
    88    38    37    1
    89   107   105   ar
    90   112   111    1
    91    67    68    1
    92    74    73    1
    93   102   101    2
    94    37    30   am
    95    72    73    1
    96    72    71    1
    97   104   105   ar
    98   104   103    1
    99    97    96   ar
   100    49    48    2
   101   111   110    1
   102    47    46    1
   103    47    48    1
   104    35    34    1
   105    35    36    1
   106    71    68    1
   107   101   110   am
   108   101   100    1
   109    68    69    1
   110    98    96   ar
   111    34    33    1
   112    96    95    1
   113    33    32    1
   114   103   100    1
   115    30    31    2
   116    30    29    1
   117    76    69   am
   118    76    77    1
   119    32    29    1
   120    81    80    1
   121   100    99    1
   122    69    70    2
   123    80    77    1
   124    80    82    1
   125    29    28    1
   126    94    93    2
   127    77    78    1
   128    95    92    1
   129    78    79    2
   130    86    85    2
   131    92    93    1
   132    92    91    1
   133    90    88   ar
   134    85    91   am
   135    85    84    1
   136    88    89   ar
   137    88    87    1
   138    87    84    1
   139    84    83    1
