@<TRIPOS>MOLECULE
tmp/5v9iC01.pdb
 140 135 0 0 0
SMALL
GASTEIGER

@<TRIPOS>ATOM
      1  N          2.9460  -20.0550    6.1620 N.3   159  ASP159     -0.1239
      2  CA         3.5370  -20.4770    7.4390 C.3   159  ASP159      0.1674
      3  C          4.8550  -21.2380    7.1480 C.2   159  ASP159      0.2266
      4  O          5.8900  -20.9640    7.7680 O.2   159  ASP159     -0.2867
      5  CB         2.5280  -21.4550    8.0850 C.3   159  ASP159      0.1410
      6  CG         2.6900  -21.8080    9.5510 C.2   159  ASP159      0.3668
      7  OD1        3.4360  -21.1050   10.2520 O.co2 159  ASP159     -0.2456
      8  OD2        2.0080  -22.7420   10.0100 O.co2 159  ASP159     -0.2456
      9  N          7.5000  -18.8500    5.5740 N.3   162  ALA162     -0.1231
     10  CA         8.0860  -18.0140    6.6510 C.3   162  ALA162      0.1694
     11  C          9.0840  -18.8250    7.5050 C.2   162  ALA162      0.2592
     12  O         10.1080  -18.2910    7.9350 O.2   162  ALA162     -0.2718
     13  CB         6.9950  -17.4430    7.5420 C.3   162  ALA162      0.0304
     14  N          8.8020  -20.1210    7.7070 N.am  163  ASP163     -0.1960
     15  CA         9.6720  -21.0000    8.4910 C.3   163  ASP163      0.1840
     16  C         11.0470  -21.2510    7.8090 C.2   163  ASP163      0.2622
     17  O         11.9640  -21.6980    8.4970 O.2   163  ASP163     -0.2715
     18  CB         8.9690  -22.3320    8.8050 C.3   163  ASP163      0.1450
     19  CG         9.1080  -22.7960   10.2500 C.2   163  ASP163      0.3671
     20  OD1        9.5490  -21.9840   11.1040 O.co2 163  ASP163     -0.2456
     21  OD2        8.7400  -23.9550   10.5380 O.co2 163  ASP163     -0.2456
     22  N         11.2140  -20.9190    6.5030 N.am  164  VAL164     -0.1963
     23  CA        12.5060  -21.1000    5.8180 C.3   164  VAL164      0.1727
     24  C         13.1350  -19.7380    5.3860 C.2   164  VAL164      0.2616
     25  O         14.1830  -19.7420    4.7340 O.2   164  VAL164     -0.2715
     26  CB        12.4630  -22.0960    4.6180 C.3   164  VAL164      0.0290
     27  CG1       12.1100  -23.5100    5.0800 C.3   164  VAL164      0.0023
     28  CG2       11.5300  -21.6240    3.5030 C.3   164  VAL164      0.0023
     29  N         12.5190  -18.5910    5.7550 N.am  165  ARG165     -0.1963
     30  CA        13.0670  -17.2730    5.4130 C.3   165  ARG165      0.1729
     31  C         14.1390  -16.9080    6.4470 C.2   165  ARG165      0.2616
     32  O         13.8430  -16.8810    7.6480 O.2   165  ARG165     -0.2715
     33  CB        11.9640  -16.1870    5.3820 C.3   165  ARG165      0.0348
     34  CG        10.9140  -16.3840    4.2760 C.3   165  ARG165      0.0492
     35  CD        11.0570  -15.3920    3.1520 C.3   165  ARG165      0.2205
     36  NE        10.3600  -15.8120    1.9310 N.pl3 165  ARG165     -0.0865
     37  CZ         9.7410  -14.9810    1.0950 C.cat 165  ARG165      0.5346
     38  NH1        9.6580  -13.6850    1.3730 N.pl3 165  ARG165      0.1354
     39  NH2        9.1830  -15.4420   -0.0100 N.pl3 165  ARG165      0.1354
     40  N         15.3670  -16.6110    5.9740 N.am  166  GLU166     -0.1977
     41  CA        16.5100  -16.2560    6.8140 C.3   166  GLU166      0.1602
     42  C         16.2920  -14.9300    7.5500 C.2   166  GLU166      0.2287
     43  O         16.4800  -14.8770    8.7700 O.2   166  GLU166     -0.2864
     44  CB        17.8140  -16.2080    5.9880 C.3   166  GLU166      0.0415
     45  CG        18.0760  -17.4360    5.1070 C.3   166  GLU166      0.1163
     46  CD        18.2820  -18.7270    5.8890 C.2   166  GLU166      0.3649
     47  OE1       18.7750  -18.6820    7.0330 O.co2 166  GLU166     -0.2457
     48  OE2       17.9630  -19.8000    5.3520 O.co2 166  GLU166     -0.2457
     49  N         13.8720  -12.6440    9.1270 N.3   168  ASP168     -0.1239
     50  CA        12.4980  -12.6700    9.6300 C.3   168  ASP168      0.1674
     51  C         12.1520  -11.4220   10.4900 C.2   168  ASP168      0.2266
     52  O         11.2060  -11.4750   11.2760 O.2   168  ASP168     -0.2867
     53  CB        12.2830  -13.9860   10.4160 C.3   168  ASP168      0.1410
     54  CG        13.1240  -14.1680   11.6690 C.2   168  ASP168      0.3668
     55  OD1       14.1210  -13.4400   11.8280 O.co2 168  ASP168     -0.2456
     56  OD2       12.7670  -15.0180   12.5010 O.co2 168  ASP168     -0.2456
     57  N          8.4690   -9.6640    9.2920 N.3   171  LEU171     -0.1231
     58  CA         7.3240  -10.5740    9.1680 C.3   171  LEU171      0.1693
     59  C          6.1630  -10.1070   10.0460 C.2   171  LEU171      0.2592
     60  O          6.3800   -9.7420   11.2010 O.2   171  LEU171     -0.2718
     61  CB         7.7250  -11.9970    9.6170 C.3   171  LEU171      0.0284
     62  CG         8.6530  -12.8410    8.7160 C.3   171  LEU171      0.0019
     63  CD1        8.7150  -14.2480    9.2350 C.3   171  LEU171      0.0001
     64  CD2        8.0880  -12.9330    7.3020 C.3   171  LEU171      0.0001
     65  N          4.9140  -10.2360    9.5320 N.am  172  PHE172     -0.1962
     66  CA         3.7250   -9.9560   10.3150 C.3   172  PHE172      0.1771
     67  C          2.8110  -11.1590   10.1450 C.2   172  PHE172      0.2619
     68  O          2.3920  -11.4560    9.0230 O.2   172  PHE172     -0.2715
     69  CB         3.0370   -8.6670    9.8500 C.3   172  PHE172      0.0574
     70  CG         1.9610   -8.2070   10.8060 C.ar  172  PHE172     -0.0200
     71  CD1        0.7020   -8.8220   10.8200 C.ar  172  PHE172     -0.0042
     72  CD2        2.1730   -7.1170   11.6390 C.ar  172  PHE172     -0.0042
     73  CE1       -0.2840   -8.4170   11.7210 C.ar  172  PHE172     -0.0003
     74  CE2        1.1760   -6.6980   12.5330 C.ar  172  PHE172     -0.0003
     75  CZ        -0.0500   -7.3430   12.5610 C.ar  172  PHE172     -0.0000
     76  N          2.5610  -11.8860   11.2440 N.am  173  ASP173     -0.1971
     77  CA         1.7290  -13.0920   11.2370 C.3   173  ASP173      0.1709
     78  C          0.2440  -12.7930   11.0760 C.2   173  ASP173      0.2293
     79  O         -0.2900  -11.9030   11.7420 O.2   173  ASP173     -0.2864
     80  CB         1.9220  -13.8760   12.5540 C.3   173  ASP173      0.1436
     81  CG         3.2960  -14.4990   12.7440 C.2   173  ASP173      0.3671
     82  OD1        4.0180  -14.6740   11.7330 O.co2 173  ASP173     -0.2456
     83  OD2        3.6260  -14.8550   13.8930 O.co2 173  ASP173     -0.2456
     84  N          1.4490  -15.2150    6.3080 N.3   179  CYS179     -0.1235
     85  CA         2.3270  -14.1560    6.8190 C.3   179  CYS179      0.1677
     86  C          2.4710  -13.0850    5.7920 C.2   179  CYS179      0.2270
     87  O          2.3790  -13.3740    4.5910 O.2   179  CYS179     -0.2867
     88  CB         3.7030  -14.7230    7.1600 C.3   179  CYS179      0.0956
     89  SG         3.7230  -15.8260    8.5800 S.3   179  CYS179     -0.0801
     90  N          5.3270   -5.5040   18.2590 N.3   235  TYR235     -0.1241
     91  CA         5.6810   -6.6170   17.3840 C.3   235  TYR235      0.1605
     92  C          5.1910   -7.9580   17.9310 C.2   235  TYR235      0.2264
     93  O          5.0440   -8.9050   17.1640 O.2   235  TYR235     -0.2867
     94  CB         7.1940   -6.6820   17.2100 C.3   235  TYR235      0.0534
     95  CG         7.8750   -5.6600   16.3120 C.ar  235  TYR235     -0.0201
     96  CD1        7.1830   -4.5550   15.8090 C.ar  235  TYR235     -0.0009
     97  CD2        9.2400   -5.7520   16.0420 C.ar  235  TYR235     -0.0009
     98  CE1        7.8270   -3.5970   15.0210 C.ar  235  TYR235      0.0417
     99  CE2        9.8900   -4.8140   15.2470 C.ar  235  TYR235      0.0417
    100  CZ         9.1760   -3.7610   14.7080 C.ar  235  TYR235      0.1957
    101  OH         9.8690   -2.8600   13.9470 O.3   235  TYR235     -0.2866
    102  N          6.1280  -13.4510   19.7640 N.3   238  ARG238     -0.1231
    103  CA         6.8610  -14.3570   18.8550 C.3   238  ARG238      0.1694
    104  C          8.1480  -13.6800   18.3790 C.2   238  ARG238      0.2592
    105  O          9.2100  -14.3010   18.3830 O.2   238  ARG238     -0.2718
    106  CB         6.0160  -14.8000   17.6460 C.3   238  ARG238      0.0321
    107  CG         6.8180  -15.6970   16.6810 C.3   238  ARG238      0.0489
    108  CD         5.9690  -16.4550   15.6910 C.3   238  ARG238      0.2205
    109  NE         5.2770  -17.5700   16.3350 N.pl3 238  ARG238     -0.0865
    110  CZ         3.9570  -17.6940   16.4210 C.cat 238  ARG238      0.5346
    111  NH1        3.1600  -16.7860   15.8710 N.pl3 238  ARG238      0.1354
    112  NH2        3.4220  -18.7420   17.0330 N.pl3 238  ARG238      0.1354
    113  N          8.0430  -12.3950   17.9830 N.am  239  PHE239     -0.1976
    114  CA         9.2000  -11.6150   17.5580 C.3   239  PHE239      0.1639
    115  C         10.2490  -11.5540   18.6650 C.2   239  PHE239      0.2290
    116  O         11.4310  -11.8000   18.3950 O.2   239  PHE239     -0.2864
    117  CB         8.7690  -10.1820   17.1470 C.3   239  PHE239      0.0560
    118  CG         9.9320   -9.2850   16.7700 C.ar  239  PHE239     -0.0200
    119  CD1       10.6760   -8.6320   17.7490 C.ar  239  PHE239     -0.0042
    120  CD2       10.2980   -9.1150   15.4380 C.ar  239  PHE239     -0.0042
    121  CE1       11.7790   -7.8470   17.4080 C.ar  239  PHE239     -0.0003
    122  CE2       11.4030   -8.3190   15.0950 C.ar  239  PHE239     -0.0003
    123  CZ        12.1350   -7.6970   16.0850 C.ar  239  PHE239     -0.0000
    124  N         12.0610  -14.8390   19.8030 N.3   242  ILE242     -0.1231
    125  CA        13.1210  -15.2010   18.8630 C.3   242  ILE242      0.1692
    126  C         14.2970  -14.2040   18.9420 C.2   242  ILE242      0.2591
    127  O         15.4450  -14.6450   19.0260 O.2   242  ILE242     -0.2718
    128  CB        12.5730  -15.3330   17.4180 C.3   242  ILE242      0.0266
    129  CG1       11.7060  -16.5970   17.2860 C.3   242  ILE242      0.0019
    130  CG2       13.6990  -15.3260   16.3670 C.3   242  ILE242      0.0020
    131  CD1       10.7400  -16.5740   16.0580 C.3   242  ILE242      0.0001
    132  N         14.0210  -12.8820   18.8990 N.am  243  LYS243     -0.1980
    133  CA        15.1010  -11.8950   18.7960 C.3   243  LYS243      0.1596
    134  C         15.8310  -11.5160   20.1020 C.2   243  LYS243      0.2287
    135  O         16.9800  -11.0730   19.9860 O.2   243  LYS243     -0.2864
    136  CB        14.6050  -10.5850   18.1460 C.3   243  LYS243      0.0298
    137  CG        14.1670  -10.7030   16.6650 C.3   243  LYS243      0.0038
    138  CD        15.2910  -11.1170   15.6920 C.3   243  LYS243      0.0206
    139  CE        14.8710  -11.0090   14.2280 C.3   243  LYS243      0.1093
    140  NZ        15.7410  -11.8480   13.3670 N.3   243  LYS243     -0.1314
@<TRIPOS>BOND
     1    39    37    1
     2    37    38    1
     3    37    36    2
     4    36    35    1
     5    35    34    1
     6    28    26    1
     7    34    33    1
     8    87    86    2
     9    26    27    1
    10    26    23    1
    11    25    24    2
    12    45    46    1
    13    45    44    1
    14    48    46   ar
    15    33    30    1
    16    24    29   am
    17    24    23    1
    18    30    29    1
    19    30    31    1
    20     9    10    1
    21    86    85    1
    22    23    22    1
    23    46    47   ar
    24    40    31   am
    25    40    41    1
    26    44    41    1
    27     1     2    1
    28    84    85    1
    29    31    32    2
    30    22    16   am
    31    10    11    1
    32    10    13    1
    33    41    42    1
    34    85    88    1
    35     3     2    1
    36     3     4    2
    37    88    89    1
    38    64    62    1
    39     2     5    1
    40    11    14   am
    41    11    12    2
    42    42    43    2
    43    14    15    1
    44    16    15    1
    45    16    17    2
    46     5     6    1
    47    15    18    1
    48    62    63    1
    49    62    61    1
    50    18    19    1
    51    68    67    2
    52    49    50    1
    53    58    57    1
    54    58    61    1
    55    58    59    1
    56    65    59   am
    57    65    66    1
    58     6     8   ar
    59     6     7   ar
    60    50    53    1
    61    50    51    1
    62    69    66    1
    63    69    70    1
    64    59    60    2
    65    67    66    1
    66    67    76   am
    67    19    21   ar
    68    19    20   ar
    69    53    54    1
    70    51    52    2
    71    70    71   ar
    72    70    72   ar
    73    71    73   ar
    74    78    77    1
    75    78    79    2
    76    77    76    1
    77    77    80    1
    78    72    74   ar
    79    54    55   ar
    80    54    56   ar
    81    73    75   ar
    82    82    81   ar
    83    74    75   ar
    84    80    81    1
    85    81    83   ar
    86   140   139    1
    87   101   100    1
    88   139   138    1
    89   100    98   ar
    90   100    99   ar
    91    98    96   ar
    92   122   120   ar
    93   122   123   ar
    94    99    97   ar
    95   120   118   ar
    96   108   109    1
    97   108   107    1
    98   138   137    1
    99    96    95   ar
   100   111   110    1
   101    97    95   ar
   102   131   129    1
   103   123   121   ar
   104    95    94    1
   105   109   110    2
   106   130   128    1
   107   110   112    1
   108   137   136    1
   109   107   106    1
   110   118   117    1
   111   118   119   ar
   112   117   114    1
   113    93    92    2
   114    94    91    1
   115   129   128    1
   116    91    92    1
   117    91    90    1
   118   121   119   ar
   119   128   125    1
   120   114   113    1
   121   114   115    1
   122   106   103    1
   123   113   104   am
   124   136   133    1
   125   104   105    2
   126   104   103    1
   127   116   115    2
   128   133   132    1
   129   133   134    1
   130   103   102    1
   131   125   126    1
   132   125   124    1
   133   132   126   am
   134   126   127    2
   135   135   134    2
