@<TRIPOS>MOLECULE
tmp/5v9lC01.pdb
 151 144 0 0 0
SMALL
GASTEIGER

@<TRIPOS>ATOM
      1  N         20.2760   95.8570  -42.3200 N.3    10  VAL10      -0.1231
      2  CA        19.0910   95.3150  -42.9740 C.3    10  VAL10       0.1692
      3  C         17.8490   95.7990  -42.2320 C.2    10  VAL10       0.2593
      4  O         17.9150   96.2680  -41.0870 O.2    10  VAL10      -0.2718
      5  CB        19.1000   93.7680  -43.0510 C.3    10  VAL10       0.0266
      6  CG1       20.3760   93.2540  -43.7260 C.3    10  VAL10       0.0020
      7  CG2       18.9220   93.1470  -41.6530 C.3    10  VAL10       0.0020
      8  N         16.7130   95.6600  -42.8950 N.am   11  GLY11      -0.1942
      9  CA        15.4480   96.1730  -42.3940 C.3    11  GLY11       0.2014
     10  C         14.5480   96.5500  -43.5500 C.2    11  GLY11       0.2639
     11  O         14.9760   96.6060  -44.6940 O.2    11  GLY11      -0.2714
     12  N         13.2670   96.7800  -43.2320 N.am   12  ALA12      -0.1963
     13  CA        12.2560   97.0890  -44.2490 C.3    12  ALA12       0.1728
     14  C         12.5200   98.4490  -44.8990 C.2    12  ALA12       0.2616
     15  O         13.3030   99.2590  -44.4020 O.2    12  ALA12      -0.2715
     16  CB        10.8540   97.0970  -43.6450 C.3    12  ALA12       0.0334
     17  N         11.8430   98.6900  -46.0300 N.am   13  CYS13      -0.1954
     18  CA        11.9000   99.9850  -46.7120 C.3    13  CYS13       0.1843
     19  C         11.5530  101.1180  -45.7600 C.2    13  CYS13       0.2626
     20  O         10.5770  101.0330  -45.0180 O.2    13  CYS13      -0.2714
     21  CB        10.9190  100.0260  -47.8940 C.3    13  CYS13       0.0997
     22  SG        11.5110   99.2430  -49.3600 S.3    13  CYS13      -0.0797
     23  N         12.3600  102.1800  -45.7870 N.am   14  GLY14      -0.1954
     24  CA        12.0370  103.4130  -45.0760 C.3    14  GLY14       0.1869
     25  C         12.2840  103.4190  -43.5830 C.2    14  GLY14       0.2309
     26  O         11.8820  104.3820  -42.9110 O.2    14  GLY14      -0.2863
     27  N         17.7780  102.7500  -42.8370 N.3    17  LYS17      -0.1245
     28  CA        19.0540  102.0640  -43.0430 C.3    17  LYS17       0.1561
     29  C         20.0970  103.0370  -43.5810 C.2    17  LYS17       0.2260
     30  O         21.1630  103.2120  -42.9800 O.2    17  LYS17      -0.2867
     31  CB        18.8880  100.8770  -44.0020 C.3    17  LYS17       0.0271
     32  CG        17.9140   99.7830  -43.5450 C.3    17  LYS17       0.0035
     33  CD        17.9270   98.5810  -44.5080 C.3    17  LYS17       0.0206
     34  CE        17.2360   98.9090  -45.8470 C.3    17  LYS17       0.1093
     35  NZ        15.8940   99.5230  -45.6590 N.3    17  LYS17      -0.1314
     36  N         15.9610  104.8720  -52.4180 N.3    35  PRO35      -0.2116
     37  CA        15.7410  103.6060  -51.6870 C.3    35  PRO35       0.1372
     38  C         16.2300  102.3710  -52.4160 C.2    35  PRO35       0.2244
     39  O         16.2710  101.2960  -51.8030 O.2    35  PRO35      -0.2868
     40  CB        14.2120  103.5480  -51.5180 C.3    35  PRO35       0.0268
     41  CG        13.7140  104.9530  -51.7960 C.3    35  PRO35       0.0207
     42  CD        14.7100  105.5900  -52.7230 C.3    35  PRO35       0.0892
     43  N         22.0320   97.8350  -47.1310 N.3    59  THR59      -0.1203
     44  CA        21.2820   97.0450  -48.1140 C.3    59  THR59       0.1994
     45  C         20.0610   97.7970  -48.6390 C.2    59  THR59       0.2618
     46  O         19.4770   98.6320  -47.9500 O.2    59  THR59      -0.2717
     47  CB        20.8060   95.7070  -47.5300 C.3    59  THR59       0.1784
     48  OG1       19.8960   95.9420  -46.4400 O.3    59  THR59      -0.2211
     49  CG2       21.9970   94.8630  -47.0880 C.3    59  THR59       0.0376
     50  N         19.6410   97.4470  -49.8580 N.am   60  ALA60      -0.1965
     51  CA        18.4170   98.0060  -50.4270 C.3    60  ALA60       0.1728
     52  C         17.4800   96.9670  -51.0480 C.2    60  ALA60       0.2617
     53  O         16.4620   97.3560  -51.6260 O.2    60  ALA60      -0.2715
     54  CB        18.7560   99.0890  -51.4680 C.3    60  ALA60       0.0334
     55  N         17.8000   95.6710  -50.9670 N.am   61  GLY61      -0.1940
     56  CA        16.8560   94.5990  -51.2550 C.3    61  GLY61       0.2014
     57  C         16.4350   94.4370  -52.6970 C.2    61  GLY61       0.2638
     58  O         15.4410   93.7590  -52.9690 O.2    61  GLY61      -0.2714
     59  N         17.1590   95.0350  -53.6370 N.am   62  GLN62      -0.1977
     60  CA        16.7410   94.9860  -55.0290 C.3    62  GLN62       0.1601
     61  C         17.0600   93.6190  -55.6430 C.2    62  GLN62       0.2287
     62  O         17.9150   92.8760  -55.1580 O.2    62  GLN62      -0.2864
     63  CB        17.4040   96.1340  -55.7810 C.3    62  GLN62       0.0394
     64  CG        17.1520   97.4700  -55.0600 C.3    62  GLN62       0.0908
     65  CD        15.6610   97.8120  -55.0210 C.2    62  GLN62       0.2608
     66  OE1       14.9980   97.8680  -56.0620 O.2    62  GLN62      -0.2717
     67  NE2       15.1270   98.0200  -53.8220 N.am   62  GLN62      -0.0878
     68  N         26.9830   92.2190  -52.6510 N.3    69  ARG69      -0.1245
     69  CA        26.0240   91.8010  -51.6310 C.3    69  ARG69       0.1563
     70  C         26.2890   90.3640  -51.1860 C.2    69  ARG69       0.2260
     71  O         26.3880   90.0770  -49.9870 O.2    69  ARG69      -0.2867
     72  CB        24.5910   91.9430  -52.1430 C.3    69  ARG69       0.0307
     73  CG        23.5530   91.4550  -51.1250 C.3    69  ARG69       0.0489
     74  CD        22.1360   91.9110  -51.4690 C.3    69  ARG69       0.2205
     75  NE        21.6620   91.3160  -52.7100 N.pl3  69  ARG69      -0.0865
     76  CZ        21.4730   91.9860  -53.8440 C.cat  69  ARG69       0.5346
     77  NH1       21.7050   93.2930  -53.8950 N.pl3  69  ARG69       0.1354
     78  NH2       21.0410   91.3440  -54.9270 N.pl3  69  ARG69       0.1354
     79  N         27.0920   89.1400  -47.4450 N.3    73  MET73      -0.1245
     80  CA        26.2890   88.1430  -46.7500 C.3    73  MET73       0.1570
     81  C         27.1380   86.9490  -46.3380 C.2    73  MET73       0.2261
     82  O         26.9830   86.4230  -45.2310 O.2    73  MET73      -0.2867
     83  CB        25.1270   87.6840  -47.6350 C.3    73  MET73       0.0387
     84  CG        24.0790   88.7430  -47.9140 C.3    73  MET73       0.0595
     85  SD        23.5290   89.6130  -46.4310 S.3    73  MET73      -0.1393
     86  CE        22.1380   90.5360  -47.0790 C.3    73  MET73       0.0692
     87  N         25.1140   91.9500  -37.9020 N.3    79  PHE79      -0.1241
     88  CA        23.9730   92.5590  -38.5870 C.3    79  PHE79       0.1605
     89  C         23.2080   93.5170  -37.6810 C.2    79  PHE79       0.2264
     90  O         22.9480   93.2080  -36.5110 O.2    79  PHE79      -0.2867
     91  CB        23.0030   91.4870  -39.0920 C.3    79  PHE79       0.0534
     92  CG        23.5790   90.5940  -40.1610 C.ar   79  PHE79      -0.0203
     93  CD1       24.4740   89.5870  -39.8370 C.ar   79  PHE79      -0.0042
     94  CD2       23.2070   90.7650  -41.5000 C.ar   79  PHE79      -0.0042
     95  CE1       24.9890   88.7630  -40.8210 C.ar   79  PHE79      -0.0003
     96  CE2       23.7230   89.9650  -42.4810 C.ar   79  PHE79      -0.0003
     97  CZ        24.6150   88.9570  -42.1450 C.ar   79  PHE79      -0.0000
     98  N          8.1940   92.7050  -39.5420 N.3    93  ASP93      -0.1239
     99  CA         9.0860   92.1450  -40.5450 C.3    93  ASP93       0.1674
    100  C         10.4210   91.6820  -39.9910 C.2    93  ASP93       0.2266
    101  O         11.1630   91.0240  -40.7240 O.2    93  ASP93      -0.2867
    102  CB         9.4030   93.1800  -41.6300 C.3    93  ASP93       0.1410
    103  CG         8.2290   93.4780  -42.5210 C.2    93  ASP93       0.3668
    104  OD1        7.2440   92.7020  -42.4820 O.co2  93  ASP93      -0.2456
    105  OD2        8.3060   94.5000  -43.2560 O.co2  93  ASP93      -0.2456
    106  N         11.4540   87.8720  -40.2580 N.3    96  HIS96      -0.1226
    107  CA        11.9070   87.4770  -41.5830 C.3    96  HIS96       0.1752
    108  C         13.3830   87.8070  -41.7880 C.2    96  HIS96       0.2596
    109  O         14.1450   86.9830  -42.3070 O.2    96  HIS96      -0.2718
    110  CB        11.0480   88.1560  -42.6530 C.3    96  HIS96       0.0759
    111  CG        11.6590   88.1330  -44.0210 C.ar   96  HIS96       0.0818
    112  ND1       11.4580   87.0960  -44.9080 N.ar   96  HIS96      -0.2268
    113  CD2       12.4780   89.0160  -44.6490 C.ar   96  HIS96       0.1154
    114  CE1       12.1260   87.3390  -46.0250 C.ar   96  HIS96       0.1986
    115  NE2       12.7500   88.4990  -45.8950 N.ar   96  HIS96      -0.2212
    116  N         13.8110   89.0040  -41.3950 N.am   97  TYR97      -0.1976
    117  CA        15.2210   89.3270  -41.5720 C.3    97  TYR97       0.1639
    118  C         16.1010   88.4450  -40.6910 C.2    97  TYR97       0.2290
    119  O         17.1770   88.0080  -41.1160 O.2    97  TYR97      -0.2864
    120  CB        15.4590   90.8140  -41.3060 C.3    97  TYR97       0.0560
    121  CG        14.8340   91.6320  -42.3950 C.ar   97  TYR97      -0.0198
    122  CD1       15.4790   91.8010  -43.6110 C.ar   97  TYR97      -0.0009
    123  CD2       13.5730   92.1760  -42.2370 C.ar   97  TYR97      -0.0009
    124  CE1       14.8950   92.5150  -44.6320 C.ar   97  TYR97       0.0417
    125  CE2       12.9860   92.8900  -43.2390 C.ar   97  TYR97       0.0417
    126  CZ        13.6500   93.0540  -44.4410 C.ar   97  TYR97       0.1957
    127  OH        13.0620   93.7620  -45.4540 O.3    97  TYR97      -0.2866
    128  N         16.3990   85.0050  -42.3680 N.3   100  GLN100     -0.1231
    129  CA        17.3010   85.0560  -43.5140 C.3   100  GLN100      0.1698
    130  C         18.7590   85.0660  -43.0700 C.2   100  GLN100      0.2592
    131  O         19.6050   84.3790  -43.6620 O.2   100  GLN100     -0.2718
    132  CB        16.9920   86.2870  -44.3720 C.3   100  GLN100      0.0381
    133  CG        15.8380   86.0840  -45.3310 C.3   100  GLN100      0.0905
    134  CD        15.9820   84.7850  -46.0950 C.2   100  GLN100      0.2608
    135  OE1       16.9450   84.5970  -46.8430 O.2   100  GLN100     -0.2717
    136  NE2       15.0400   83.8720  -45.8950 N.am  100  GLN100     -0.0878
    137  N         19.0730   85.8360  -42.0250 N.am  101  ILE101     -0.1980
    138  CA        20.4490   85.9070  -41.5490 C.3   101  ILE101      0.1595
    139  C         20.9020   84.5420  -41.0580 C.2   101  ILE101      0.2287
    140  O         22.0080   84.0830  -41.3780 O.2   101  ILE101     -0.2864
    141  CB        20.5750   86.9850  -40.4610 C.3   101  ILE101      0.0276
    142  CG1       20.4380   88.3750  -41.0880 C.3   101  ILE101      0.0022
    143  CG2       21.8980   86.8400  -39.7090 C.3   101  ILE101      0.0022
    144  CD1       20.0750   89.4540  -40.0840 C.3   101  ILE101      0.0001
    145  N         21.7620   82.2630  -44.0750 N.3   104  VAL104     -0.1245
    146  CA        22.9810   82.6380  -44.7840 C.3   104  VAL104      0.1561
    147  C         24.2080   82.1680  -44.0150 C.2   104  VAL104      0.2260
    148  O         25.1790   81.6740  -44.6020 O.2   104  VAL104     -0.2867
    149  CB        23.0080   84.1600  -45.0320 C.3   104  VAL104      0.0252
    150  CG1       24.2710   84.5600  -45.7840 C.3   104  VAL104      0.0019
    151  CG2       21.7850   84.5880  -45.8100 C.3   104  VAL104      0.0019
@<TRIPOS>BOND
     1    66    65    2
     2    63    64    1
     3    63    60    1
     4    61    62    2
     5    61    60    1
     6    64    65    1
     7    60    59    1
     8    65    67   am
     9    78    76    1
    10    77    76    1
    11    76    75    2
    12    59    57   am
    13    58    57    2
    14    42    36    1
    15    42    41    1
    16    75    74    1
    17    57    56    1
    18    68    69    1
    19    36    37    1
    20    38    39    2
    21    38    37    1
    22    72    69    1
    23    72    73    1
    24    41    40    1
    25    37    40    1
    26    69    70    1
    27    53    52    2
    28    74    73    1
    29    54    51    1
    30    56    55    1
    31    70    71    2
    32    52    55   am
    33    52    51    1
    34    51    50    1
    35    50    45   am
    36    22    21    1
    37    45    44    1
    38    45    46    2
    39    44    47    1
    40    44    43    1
    41    84    83    1
    42    84    85    1
    43    21    18    1
    44    83    80    1
    45    47    49    1
    46    47    48    1
    47    79    80    1
    48    86    85    1
    49   135   134    2
    50    80    81    1
    51    18    17    1
    52    18    19    1
    53    81    82    2
    54   134   136   am
    55   134   133    1
    56    17    14   am
    57   114   115   ar
    58   114   112   ar
    59   115   113   ar
    60    34    35    1
    61    34    33    1
    62   151   149    1
    63    23    19   am
    64    23    24    1
    65   150   149    1
    66    19    20    2
    67   127   126    1
    68   133   132    1
    69    24    25    1
    70   149   146    1
    71   112   111   ar
    72    14    15    2
    73    14    13    1
    74   146   145    1
    75   146   147    1
    76    11    10    2
    77   113   111   ar
    78   124   126   ar
    79   124   122   ar
    80   148   147    2
    81    33    32    1
    82   126   125   ar
    83   132   129    1
    84    13    16    1
    85    13    12    1
    86   111   110    1
    87    31    32    1
    88    31    28    1
    89     6     5    1
    90   131   130    2
    91   122   121   ar
    92    25    26    2
    93    29    28    1
    94    29    30    2
    95    10    12   am
    96    10     9    1
    97   129   130    1
    98   129   128    1
    99   105   103   ar
   100   125   123   ar
   101   130   137   am
   102     5     2    1
   103     5     7    1
   104    28    27    1
   105     2     1    1
   106     2     3    1
   107     8     9    1
   108     8     3   am
   109   110   107    1
   110   103   104   ar
   111   103   102    1
   112    96    97   ar
   113    96    94   ar
   114   121   123   ar
   115   121   120    1
   116   109   108    2
   117     3     4    2
   118    97    95   ar
   119   137   138    1
   120   108   107    1
   121   108   116   am
   122   102    99    1
   123   107   106    1
   124   117   116    1
   125   117   120    1
   126   117   118    1
   127   138   139    1
   128   138   141    1
   129    94    92   ar
   130   140   139    2
   131   119   118    2
   132   142   141    1
   133   142   144    1
   134    95    93   ar
   135   101   100    2
   136    99   100    1
   137    99    98    1
   138   141   143    1
   139    92    93   ar
   140    92    91    1
   141    91    88    1
   142    88    87    1
   143    88    89    1
   144    89    90    2
