@<TRIPOS>MOLECULE
tmp/5v9oA01.pdb
 222 215 0 0 0
SMALL
GASTEIGER

@<TRIPOS>ATOM
      1  N         -0.9970  -17.8030   64.3480 N.3     9  VAL9       -0.1231
      2  CA        -0.5120  -17.7950   65.7250 C.3     9  VAL9        0.1692
      3  C          1.0080  -17.7010   65.7190 C.2     9  VAL9        0.2593
      4  O          1.6660  -17.9260   64.7020 O.2     9  VAL9       -0.2718
      5  CB        -0.9600  -19.0380   66.5270 C.3     9  VAL9        0.0266
      6  CG1       -2.4790  -19.1260   66.5440 C.3     9  VAL9        0.0020
      7  CG2       -0.3700  -20.3060   65.9400 C.3     9  VAL9        0.0020
      8  N          1.5530  -17.4230   66.8980 N.am   10  GLY10      -0.1942
      9  CA         2.9790  -17.2280   67.0710 C.3    10  GLY10       0.2014
     10  C          3.2880  -16.0630   67.9910 C.2    10  GLY10       0.2639
     11  O          2.4210  -15.2230   68.2830 O.2    10  GLY10      -0.2714
     12  N          4.5410  -15.9990   68.4410 N.am   11  ALA11      -0.1963
     13  CA         4.9650  -15.0180   69.4260 C.3    11  ALA11       0.1728
     14  C          4.8040  -13.5790   68.9410 C.2    11  ALA11       0.2616
     15  O          4.6780  -13.2760   67.7470 O.2    11  ALA11      -0.2715
     16  CB         6.4260  -15.2620   69.8140 C.3    11  ALA11       0.0334
     17  N          4.8280  -12.6710   69.9100 N.am   12  CYS12      -0.1954
     18  CA         4.7510  -11.2520   69.6090 C.3    12  CYS12       0.1843
     19  C          5.8940  -10.8360   68.6930 C.2    12  CYS12       0.2626
     20  O          7.0560  -11.1810   68.9330 O.2    12  CYS12      -0.2714
     21  CB         4.8030  -10.4520   70.9050 C.3    12  CYS12       0.0997
     22  SG         4.1340   -8.8020   70.7590 S.3    12  CYS12      -0.0797
     23  N          5.5580  -10.1180   67.6240 N.am   13  GLY13      -0.1954
     24  CA         6.5460   -9.5210   66.7530 C.3    13  GLY13       0.1869
     25  C          7.1020  -10.4090   65.6570 C.2    13  GLY13       0.2309
     26  O          8.0090   -9.9710   64.9350 O.2    13  GLY13      -0.2863
     27  N          2.8940  -11.8730   62.3350 N.3    16  LYS16      -0.1245
     28  CA         1.5340  -12.3490   62.0710 C.3    16  LYS16       0.1561
     29  C          0.7220  -11.3000   61.3300 C.2    16  LYS16       0.2260
     30  O          0.0850  -11.5960   60.3080 O.2    16  LYS16      -0.2867
     31  CB         0.8320  -12.7210   63.3770 C.3    16  LYS16       0.0271
     32  CG         1.5460  -13.8150   64.1540 C.3    16  LYS16       0.0035
     33  CD         0.8010  -14.1900   65.4270 C.3    16  LYS16       0.0206
     34  CE         0.7040  -13.0340   66.4310 C.3    16  LYS16       0.1093
     35  NZ         2.0170  -12.5470   66.9630 N.3    16  LYS16      -0.1314
     36  N          0.3840   -3.8580   68.0050 N.3    34  PRO34      -0.2102
     37  CA         0.6100   -5.2520   68.4310 C.3    34  PRO34       0.1504
     38  C         -0.5440   -5.8810   69.1880 C.2    34  PRO34       0.2576
     39  O         -0.5630   -7.1150   69.3110 O.2    34  PRO34      -0.2718
     40  CB         1.8580   -5.1460   69.3200 C.3    34  PRO34       0.0282
     41  CG         2.5530   -3.9010   68.8620 C.3    34  PRO34       0.0208
     42  CD         1.4610   -2.9550   68.4530 C.3    34  PRO34       0.0893
     43  N         -1.4790   -5.0950   69.7270 N.am   35  THR35      -0.1953
     44  CA        -2.5670   -5.6140   70.5480 C.3    35  THR35       0.1897
     45  C         -3.8330   -5.8950   69.7560 C.2    35  THR35       0.2313
     46  O         -4.7850   -6.4360   70.3230 O.2    35  THR35      -0.2863
     47  CB        -2.9060   -4.6350   71.6790 C.3    35  THR35       0.1794
     48  OG1       -3.4620   -3.4360   71.1230 O.3    35  THR35      -0.2208
     49  CG2       -1.6540   -4.2940   72.4750 C.3    35  THR35       0.0378
     50  N         -4.1180  -13.3480   65.3250 N.3    58  THR58      -0.1203
     51  CA        -4.1780  -13.3130   66.7900 C.3    58  THR58       0.1994
     52  C         -3.2280  -12.2810   67.3830 C.2    58  THR58       0.2618
     53  O         -2.1940  -11.9410   66.8000 O.2    58  THR58      -0.2717
     54  CB        -3.8420  -14.6790   67.4120 C.3    58  THR58       0.1784
     55  OG1       -2.4870  -15.0750   67.0980 O.3    58  THR58      -0.2211
     56  CG2       -4.8210  -15.7420   66.9450 C.3    58  THR58       0.0376
     57  N         -3.5720  -11.8170   68.5880 N.am   59  ALA59      -0.1965
     58  CA        -2.7290  -10.8570   69.2930 C.3    59  ALA59       0.1728
     59  C         -2.8320  -10.9740   70.8100 C.2    59  ALA59       0.2617
     60  O         -1.9160  -10.5560   71.5230 O.2    59  ALA59      -0.2715
     61  CB        -3.0790   -9.4270   68.8670 C.3    59  ALA59       0.0334
     62  N         -3.9470  -11.4950   71.3200 N.am   60  GLY60      -0.1940
     63  CA        -4.1080  -11.5970   72.7630 C.3    60  GLY60       0.2014
     64  C         -3.2050  -12.6630   73.3570 C.2    60  GLY60       0.2639
     65  O         -2.8490  -13.6400   72.7030 O.2    60  GLY60      -0.2714
     66  N         -2.8400  -12.4840   74.6300 N.am   61  GLN61      -0.1963
     67  CA        -1.9090  -13.3970   75.2880 C.3    61  GLN61       0.1733
     68  C         -2.5880  -14.4370   76.1680 C.2    61  GLN61       0.2616
     69  O         -1.9160  -15.3690   76.6290 O.2    61  GLN61      -0.2715
     70  CB        -0.9080  -12.6130   76.1470 C.3    61  GLN61       0.0408
     71  CG        -1.5430  -11.9810   77.3650 C.3    61  GLN61       0.0908
     72  CD        -0.5450  -11.2590   78.2510 C.2    61  GLN61       0.2608
     73  OE1        0.6670  -11.3840   78.0770 O.2    61  GLN61      -0.2717
     74  NE2       -1.0560  -10.4940   79.2080 N.am   61  GLN61      -0.0878
     75  N         -3.8810  -14.2980   76.4350 N.am   62  GLU62      -0.1963
     76  CA        -4.5310  -15.1680   77.4040 C.3    62  GLU62       0.1733
     77  C         -4.6020  -16.6090   76.9050 C.2    62  GLU62       0.2616
     78  O         -4.7760  -16.8730   75.7160 O.2    62  GLU62      -0.2715
     79  CB        -5.9330  -14.6520   77.7180 C.3    62  GLU62       0.0429
     80  CG        -6.7350  -15.5640   78.6260 C.3    62  GLU62       0.1163
     81  CD        -8.0010  -14.9140   79.1290 C.2    62  GLU62       0.3649
     82  OE1       -8.3230  -15.0950   80.3220 O.co2  62  GLU62      -0.2457
     83  OE2       -8.6670  -14.2200   78.3310 O.co2  62  GLU62      -0.2457
     84  N         -4.4740  -17.5510   77.8390 N.am   63  GLU63      -0.1963
     85  CA        -4.6220  -18.9600   77.5100 C.3    63  GLU63       0.1733
     86  C         -5.2540  -19.6690   78.6970 C.2    63  GLU63       0.2616
     87  O         -5.4190  -19.0910   79.7750 O.2    63  GLU63      -0.2715
     88  CB        -3.2790  -19.5940   77.1250 C.3    63  GLU63       0.0429
     89  CG        -2.1330  -19.2860   78.0690 C.3    63  GLU63       0.1163
     90  CD        -0.8540  -19.9920   77.6540 C.2    63  GLU63       0.3649
     91  OE1       -0.2290  -20.6570   78.5110 O.co2  63  GLU63      -0.2457
     92  OE2       -0.4910  -19.8990   76.4630 O.co2  63  GLU63      -0.2457
     93  N         -5.5990  -20.9370   78.4870 N.am   64  TYR64      -0.1960
     94  CA        -6.2770  -21.7580   79.4930 C.3    64  TYR64       0.1771
     95  C         -7.4810  -21.0090   80.0610 C.2    64  TYR64       0.2620
     96  O         -7.6170  -20.7800   81.2660 O.2    64  TYR64      -0.2715
     97  CB        -5.3120  -22.2050   80.6010 C.3    64  TYR64       0.0574
     98  CG        -4.2560  -23.1650   80.0950 C.ar   64  TYR64      -0.0198
     99  CD1       -3.0710  -22.6920   79.5500 C.ar   64  TYR64      -0.0009
    100  CD2       -4.4560  -24.5390   80.1360 C.ar   64  TYR64      -0.0009
    101  CE1       -2.1110  -23.5520   79.0640 C.ar   64  TYR64       0.0417
    102  CE2       -3.4900  -25.4140   79.6540 C.ar   64  TYR64       0.0417
    103  CZ        -2.3200  -24.9110   79.1200 C.ar   64  TYR64       0.1957
    104  OH        -1.3460  -25.7620   78.6340 O.3    64  TYR64      -0.2866
    105  N         -8.3560  -20.6200   79.1390 N.am   65  SER65      -0.1950
    106  CA        -9.5900  -19.9070   79.4390 C.3    65  SER65       0.1924
    107  C        -10.6600  -20.4480   78.5050 C.2    65  SER65       0.2314
    108  O        -10.4080  -20.5810   77.3040 O.2    65  SER65      -0.2863
    109  CB        -9.4150  -18.3960   79.2480 C.3    65  SER65       0.2116
    110  OG       -10.6080  -17.7030   79.5640 O.3    65  SER65      -0.2180
    111  N        -11.6820  -18.4600   75.0440 N.3    68  ARG68      -0.1231
    112  CA       -10.6930  -18.4780   73.9730 C.3    68  ARG68       0.1694
    113  C        -10.4840  -19.8870   73.4380 C.2    68  ARG68       0.2592
    114  O        -10.3540  -20.0850   72.2240 O.2    68  ARG68      -0.2718
    115  CB        -9.3680  -17.8890   74.4400 C.3    68  ARG68       0.0321
    116  CG        -8.4580  -17.5980   73.2520 C.3    68  ARG68       0.0489
    117  CD        -7.2810  -16.7320   73.6190 C.3    68  ARG68       0.2205
    118  NE        -6.8330  -15.9480   72.4720 N.pl3  68  ARG68      -0.0865
    119  CZ        -5.6400  -15.3710   72.3820 C.cat  68  ARG68       0.5346
    120  NH1       -5.3310  -14.6690   71.2970 N.pl3  68  ARG68       0.1354
    121  NH2       -4.7510  -15.5140   73.3650 N.pl3  68  ARG68       0.1354
    122  N        -10.4500  -20.8800   74.3260 N.am   69  ASP69      -0.1974
    123  CA       -10.2570  -22.2530   73.8770 C.3    69  ASP69       0.1709
    124  C        -11.4150  -22.7150   72.9980 C.2    69  ASP69       0.2293
    125  O        -11.2010  -23.3760   71.9760 O.2    69  ASP69      -0.2864
    126  CB       -10.0690  -23.1710   75.0870 C.3    69  ASP69       0.1436
    127  CG        -8.7790  -22.8710   75.8370 C.2    69  ASP69       0.3671
    128  OD1       -7.8420  -22.3470   75.1930 O.co2  69  ASP69      -0.2456
    129  OD2       -8.6970  -23.1570   77.0510 O.co2  69  ASP69      -0.2456
    130  N        -10.9020  -21.1200   69.5570 N.3    72  MET72      -0.1245
    131  CA        -9.8000  -21.6600   68.7680 C.3    72  MET72       0.1570
    132  C        -10.1230  -23.0400   68.2150 C.2    72  MET72       0.2261
    133  O         -9.5900  -23.4260   67.1650 O.2    72  MET72      -0.2867
    134  CB        -8.5290  -21.7020   69.6120 C.3    72  MET72       0.0387
    135  CG        -7.9870  -20.3280   69.9350 C.3    72  MET72       0.0595
    136  SD        -7.6030  -19.4200   68.4350 S.3    72  MET72      -0.1393
    137  CE        -6.9200  -17.9480   69.1330 C.3    72  MET72       0.0692
    138  N         -4.0770  -23.8850   61.1970 N.3    78  PHE78      -0.1241
    139  CA        -3.2710  -22.9380   61.9520 C.3    78  PHE78       0.1605
    140  C         -1.9620  -22.6420   61.2400 C.2    78  PHE78       0.2264
    141  O         -1.2200  -23.5600   60.8750 O.2    78  PHE78      -0.2867
    142  CB        -3.0100  -23.4810   63.3600 C.3    78  PHE78       0.0534
    143  CG        -4.2480  -23.5540   64.1950 C.ar   78  PHE78      -0.0203
    144  CD1       -5.1030  -24.6350   64.0900 C.ar   78  PHE78      -0.0042
    145  CD2       -4.5850  -22.5140   65.0410 C.ar   78  PHE78      -0.0042
    146  CE1       -6.2750  -24.6910   64.8380 C.ar   78  PHE78      -0.0003
    147  CE2       -5.7460  -22.5590   65.7920 C.ar   78  PHE78      -0.0003
    148  CZ        -6.5910  -23.6490   65.6970 C.ar   78  PHE78      -0.0000
    149  N         13.6620  -17.5910   70.6230 N.3    88  LYS88      -0.1245
    150  CA        12.5440  -17.8210   71.5290 C.3    88  LYS88       0.1561
    151  C         11.2490  -18.0820   70.7640 C.2    88  LYS88       0.2260
    152  O         10.4720  -18.9740   71.1350 O.2    88  LYS88      -0.2867
    153  CB        12.3810  -16.6420   72.4790 C.3    88  LYS88       0.0271
    154  CG        11.2390  -16.8210   73.4510 C.3    88  LYS88       0.0035
    155  CD        11.1730  -15.6950   74.4710 C.3    88  LYS88       0.0206
    156  CE        10.1520  -16.0110   75.5590 C.3    88  LYS88       0.1093
    157  NZ         8.8350  -16.4280   74.9890 N.3    88  LYS88      -0.1314
    158  N          8.8960  -21.3080   71.0560 N.3    92  ASP92      -0.1239
    159  CA         7.4860  -21.1700   71.3970 C.3    92  ASP92       0.1674
    160  C          6.5790  -21.9930   70.4900 C.2    92  ASP92       0.2266
    161  O          5.4250  -22.2250   70.8570 O.2    92  ASP92      -0.2867
    162  CB         7.0440  -19.7010   71.3220 C.3    92  ASP92       0.1410
    163  CG         7.5900  -18.8460   72.4640 C.2    92  ASP92       0.3668
    164  OD1        8.1190  -19.3900   73.4560 O.co2  92  ASP92      -0.2456
    165  OD2        7.4730  -17.6030   72.3600 O.co2  92  ASP92      -0.2456
    166  N          4.8600  -24.7040   72.2270 N.3    95  HIS95      -0.1226
    167  CA         3.7330  -24.2770   73.0480 C.3    95  HIS95       0.1752
    168  C          2.4780  -24.0720   72.2080 C.2    95  HIS95       0.2596
    169  O          1.3850  -24.5120   72.5890 O.2    95  HIS95      -0.2718
    170  CB         4.1100  -22.9930   73.7750 C.3    95  HIS95       0.0759
    171  CG         3.0590  -22.4880   74.7080 C.ar   95  HIS95       0.0818
    172  ND1        2.9310  -22.9500   76.0000 N.ar   95  HIS95      -0.2268
    173  CD2        2.1090  -21.5380   74.5510 C.ar   95  HIS95       0.1154
    174  CE1        1.9300  -22.3230   76.5900 C.ar   95  HIS95       0.1986
    175  NE2        1.4200  -21.4560   75.7360 N.ar   95  HIS95      -0.2212
    176  N          2.6170  -23.4040   71.0590 N.am   96  TYR96      -0.1976
    177  CA         1.4670  -23.1900   70.1820 C.3    96  TYR96       0.1639
    178  C          0.9300  -24.5090   69.6490 C.2    96  TYR96       0.2290
    179  O         -0.2830  -24.7210   69.6250 O.2    96  TYR96      -0.2864
    180  CB         1.8380  -22.2260   69.0440 C.3    96  TYR96       0.0560
    181  CG         1.9940  -20.8360   69.6010 C.ar   96  TYR96      -0.0198
    182  CD1        0.8820  -20.1430   70.0590 C.ar   96  TYR96      -0.0009
    183  CD2        3.2430  -20.2390   69.7250 C.ar   96  TYR96      -0.0009
    184  CE1        1.0020  -18.8880   70.6100 C.ar   96  TYR96       0.0417
    185  CE2        3.3730  -18.9790   70.2820 C.ar   96  TYR96       0.0417
    186  CZ         2.2430  -18.3150   70.7260 C.ar   96  TYR96       0.1957
    187  OH         2.3320  -17.0630   71.2930 O.3    96  TYR96      -0.2866
    188  N         -1.0320  -26.0120   72.3390 N.3    99  GLN99      -0.1231
    189  CA        -2.3310  -25.3810   72.5640 C.3    99  GLN99       0.1698
    190  C         -3.3360  -25.8230   71.5060 C.2    99  GLN99       0.2592
    191  O         -4.5030  -26.0870   71.8210 O.2    99  GLN99      -0.2718
    192  CB        -2.2100  -23.8500   72.5800 C.3    99  GLN99       0.0381
    193  CG        -1.3050  -23.2890   73.6660 C.3    99  GLN99       0.0905
    194  CD        -1.5730  -23.8940   75.0300 C.2    99  GLN99       0.2608
    195  OE1       -2.7000  -23.8760   75.5130 O.2    99  GLN99      -0.2717
    196  NE2       -0.5340  -24.4440   75.6570 N.am   99  GLN99      -0.0878
    197  N         -2.8920  -25.9350   70.2520 N.am  100  ILE100     -0.1980
    198  CA        -3.7640  -26.4390   69.1940 C.3   100  ILE100      0.1595
    199  C         -4.2280  -27.8460   69.5250 C.2   100  ILE100      0.2287
    200  O         -5.4180  -28.1700   69.4300 O.2   100  ILE100     -0.2864
    201  CB        -3.0380  -26.3950   67.8390 C.3   100  ILE100      0.0276
    202  CG1       -2.7680  -24.9450   67.4370 C.3   100  ILE100      0.0022
    203  CG2       -3.8640  -27.1090   66.7770 C.3   100  ILE100      0.0022
    204  CD1       -1.6950  -24.7930   66.3550 C.3   100  ILE100      0.0001
    205  N         -4.3550  -29.1670   72.4540 N.3   102  ARG102     -0.1231
    206  CA        -5.1640  -29.1560   73.6670 C.3   102  ARG102      0.1694
    207  C         -6.6130  -28.7960   73.3680 C.2   102  ARG102      0.2591
    208  O         -7.5340  -29.4230   73.9060 O.2   102  ARG102     -0.2718
    209  CB        -4.5780  -28.1810   74.6900 C.3   102  ARG102      0.0321
    210  CG        -5.4290  -28.0460   75.9430 C.3   102  ARG102      0.0489
    211  CD        -4.7560  -27.1700   76.9960 C.3   102  ARG102      0.2205
    212  NE        -4.6550  -25.7880   76.5390 N.pl3 102  ARG102     -0.0865
    213  CZ        -5.6470  -24.9080   76.6300 C.cat 102  ARG102      0.5346
    214  NH1       -6.8080  -25.2660   77.1760 N.pl3 102  ARG102      0.1354
    215  NH2       -5.4820  -23.6680   76.1800 N.pl3 102  ARG102      0.1354
    216  N         -6.8390  -27.7920   72.5200 N.am  103  VAL103     -0.1980
    217  CA        -8.2050  -27.3180   72.3220 C.3   103  VAL103      0.1595
    218  C         -8.9380  -28.1230   71.2500 C.2   103  VAL103      0.2287
    219  O        -10.1600  -28.2760   71.3290 O.2   103  VAL103     -0.2864
    220  CB        -8.2480  -25.8090   72.0040 C.3   103  VAL103      0.0276
    221  CG1       -7.5400  -25.0110   73.0970 C.3   103  VAL103      0.0022
    222  CG2       -7.6790  -25.5000   70.6290 C.3   103  VAL103      0.0022
@<TRIPOS>BOND
     1    30    29    2
     2   141   140    2
     3   138   139    1
     4   140   139    1
     5    29    28    1
     6   139   142    1
     7    28    27    1
     8    28    31    1
     9   142   143    1
    10    31    32    1
    11   144   143   ar
    12   144   146   ar
    13    32    33    1
    14   143   145   ar
    15     1     2    1
    16     4     3    2
    17   146   148   ar
    18    26    25    2
    19   145   147   ar
    20    50    51    1
    21    33    34    1
    22    25    24    1
    23   148   147   ar
    24     3     2    1
    25     3     8   am
    26     2     5    1
    27     7     5    1
    28   204   202    1
    29    34    35    1
    30     5     6    1
    31    24    23    1
    32   203   201    1
    33    51    52    1
    34    51    54    1
    35    53    52    2
    36     8     9    1
    37    56    54    1
    38     9    10    1
    39    55    54    1
    40   133   132    2
    41    52    57   am
    42   202   201    1
    43    23    19   am
    44    15    14    2
    45   201   198    1
    46    10    11    2
    47    10    12   am
    48    36    37    1
    49    36    42    1
    50   132   131    1
    51    37    38    1
    52    37    40    1
    53   136   137    1
    54   136   135    1
    55    12    13    1
    56    42    41    1
    57    57    58    1
    58    19    20    2
    59    19    18    1
    60   131   130    1
    61   131   134    1
    62    41    40    1
    63    61    58    1
    64    14    13    1
    65    14    17   am
    66   180   181    1
    67   180   177    1
    68    38    39    2
    69    38    43   am
    70   198   199    1
    71   198   197    1
    72    58    59    1
    73    13    16    1
    74   200   199    2
    75   181   183   ar
    76   181   182   ar
    77    18    17    1
    78    18    21    1
    79   134   135    1
    80   179   178    2
    81   178   177    1
    82   183   185   ar
    83    43    44    1
    84    45    46    2
    85    45    44    1
    86   182   184   ar
    87   177   176    1
    88   197   190   am
    89   185   186   ar
    90   160   161    2
    91   160   159    1
    92    44    47    1
    93   184   186   ar
    94   149   150    1
    95   222   220    1
    96   186   187    1
    97    22    21    1
    98   151   152    2
    99   151   150    1
   100    59    62   am
   101    59    60    2
   102   158   159    1
   103   176   168   am
   104    48    47    1
   105   218   219    2
   106   218   217    1
   107   120   119    1
   108    62    63    1
   109   162   159    1
   110   162   163    1
   111   190   191    2
   112   190   189    1
   113   150   153    1
   114    47    49    1
   115   125   124    2
   116   220   217    1
   117   220   221    1
   118   168   169    2
   119   168   167    1
   120   114   113    2
   121   166   167    1
   122   217   216    1
   123   188   189    1
   124   165   163   ar
   125   119   118    2
   126   119   121    1
   127   205   206    1
   128   163   164   ar
   129   118   117    1
   130   153   154    1
   131   216   207   am
   132   189   192    1
   133   192   193    1
   134    65    64    2
   135    63    64    1
   136   124   123    1
   137   167   170    1
   138   116   117    1
   139   116   115    1
   140    64    66   am
   141   207   206    1
   142   207   208    2
   143   113   112    1
   144   113   122   am
   145   154   155    1
   146   193   194    1
   147   206   209    1
   148   170   171    1
   149   123   122    1
   150   123   126    1
   151   112   115    1
   152   112   111    1
   153   155   156    1
   154   173   171   ar
   155   173   175   ar
   156    66    67    1
   157   209   210    1
   158   171   172   ar
   159   157   156    1
   160   194   195    2
   161   194   196   am
   162   126   127    1
   163   128   127   ar
   164    67    70    1
   165    67    68    1
   166    78    77    2
   167   175   174   ar
   168   127   129   ar
   169   210   211    1
   170   172   174   ar
   171    70    71    1
   172    68    75   am
   173    68    69    2
   174   215   213    1
   175    75    76    1
   176    92    90   ar
   177   212   213    2
   178   212   211    1
   179   213   214    1
   180    77    76    1
   181    77    84   am
   182    88    85    1
   183    88    89    1
   184   108   107    2
   185    71    72    1
   186    76    79    1
   187    85    84    1
   188    85    86    1
   189    90    89    1
   190    90    91   ar
   191    79    80    1
   192    73    72    2
   193    72    74   am
   194    83    81   ar
   195    93    86   am
   196    93    94    1
   197   107   106    1
   198    80    81    1
   199   104   103    1
   200    86    87    2
   201   101   103   ar
   202   101    99   ar
   203   103   102   ar
   204    81    82   ar
   205   105   106    1
   206   105    95   am
   207   109   106    1
   208   109   110    1
   209    94    95    1
   210    94    97    1
   211    99    98   ar
   212   102   100   ar
   213    95    96    2
   214    98   100   ar
   215    98    97    1
