@<TRIPOS>MOLECULE
tmp/5v9pA00.pdb
 184 178 0 0 0
SMALL
GASTEIGER

@<TRIPOS>ATOM
      1  N        -45.3330   45.0560   30.6670 N.3   221  TYR221     -0.1227
      2  CA       -45.0570   44.6650   29.2930 C.3   221  TYR221      0.1736
      3  C        -44.0340   45.6200   28.6800 C.2   221  TYR221      0.2596
      4  O        -43.4060   46.4290   29.3670 O.2   221  TYR221     -0.2718
      5  CB       -46.3570   44.6300   28.4810 C.3   221  TYR221      0.0548
      6  CG       -47.0050   45.9700   28.2260 C.ar  221  TYR221     -0.0200
      7  CD1      -47.9250   46.5020   29.1120 C.ar  221  TYR221     -0.0009
      8  CD2      -46.7320   46.6750   27.0750 C.ar  221  TYR221     -0.0009
      9  CE1      -48.5360   47.7120   28.8640 C.ar  221  TYR221      0.0417
     10  CE2      -47.3460   47.8920   26.8160 C.ar  221  TYR221      0.0417
     11  CZ       -48.2470   48.4080   27.7170 C.ar  221  TYR221      0.1957
     12  OH       -48.8500   49.6330   27.4790 O.3   221  TYR221     -0.2866
     13  N        -43.8530   45.5100   27.3690 N.am  222  GLY222     -0.1942
     14  CA       -43.0200   46.4400   26.6410 C.3   222  GLY222      0.2014
     15  C        -43.5480   46.6300   25.2370 C.2   222  GLY222      0.2638
     16  O        -43.9110   45.6640   24.5530 O.2   222  GLY222     -0.2714
     17  N        -43.6300   47.8860   24.8120 N.am  223  ALA223     -0.1977
     18  CA       -44.1270   48.2220   23.4860 C.3   223  ALA223      0.1597
     19  C        -43.6630   49.6310   23.1780 C.2   223  ALA223      0.2287
     20  O        -43.0280   50.2860   24.0100 O.2   223  ALA223     -0.2864
     21  CB       -45.6430   48.1080   23.4030 C.3   223  ALA223      0.0319
     22  N        -44.5720   52.9190    9.3300 N.3   278  MET278     -0.1245
     23  CA       -44.4490   51.4740    9.1730 C.3   278  MET278      0.1570
     24  C        -43.9510   51.1430    7.7650 C.2   278  MET278      0.2261
     25  O        -44.7100   50.7340    6.8870 O.2   278  MET278     -0.2867
     26  CB       -45.7830   50.7890    9.4770 C.3   278  MET278      0.0387
     27  CG       -47.0300   51.7100    9.4420 C.3   278  MET278      0.0595
     28  SD       -47.4420   52.6120    7.9030 S.3   278  MET278     -0.1393
     29  CE       -48.3560   51.4020    6.9340 C.3   278  MET278      0.0692
     30  N        -41.8330   46.6810   14.6500 N.3   282  TRP282     -0.1241
     31  CA       -41.9750   47.1030   16.0300 C.3   282  TRP282      0.1605
     32  C        -41.9070   45.8710   16.9160 C.2   282  TRP282      0.2264
     33  O        -42.3710   44.7960   16.5400 O.2   282  TRP282     -0.2867
     34  CB       -43.3160   47.8490   16.2570 C.3   282  TRP282      0.0550
     35  CG       -43.3740   49.1350   15.5250 C.ar  282  TRP282      0.0003
     36  CD1      -43.6310   49.3140   14.1960 C.ar  282  TRP282      0.0946
     37  CD2      -43.1110   50.4330   16.0580 C.ar  282  TRP282      0.0152
     38  NE1      -43.5380   50.6440   13.8720 N.ar  282  TRP282     -0.2442
     39  CE2      -43.2220   51.3490   15.0030 C.ar  282  TRP282      0.0810
     40  CE3      -42.7880   50.9090   17.3260 C.ar  282  TRP282      0.0012
     41  CZ2      -43.0290   52.7040   15.1780 C.ar  282  TRP282      0.0191
     42  CZ3      -42.6100   52.2580   17.4970 C.ar  282  TRP282      0.0001
     43  CH2      -42.7320   53.1380   16.4340 C.ar  282  TRP282      0.0015
     44  N        -42.3910   43.7870   20.6990 N.3   284  TYR284     -0.1227
     45  CA       -43.4110   43.6440   21.7360 C.3   284  TYR284      0.1736
     46  C        -42.9580   42.5410   22.6770 C.2   284  TYR284      0.2595
     47  O        -43.1520   41.3590   22.3860 O.2   284  TYR284     -0.2718
     48  CB       -44.7680   43.3150   21.1360 C.3   284  TYR284      0.0548
     49  CG       -45.2830   44.3770   20.2290 C.ar  284  TYR284     -0.0200
     50  CD1      -46.0430   45.3950   20.7150 C.ar  284  TYR284     -0.0009
     51  CD2      -44.9960   44.3740   18.8900 C.ar  284  TYR284     -0.0009
     52  CE1      -46.5160   46.3700   19.9040 C.ar  284  TYR284      0.0417
     53  CE2      -45.4720   45.3720   18.0650 C.ar  284  TYR284      0.0417
     54  CZ       -46.2320   46.3610   18.5910 C.ar  284  TYR284      0.1957
     55  OH       -46.7300   47.3690   17.8160 O.3   284  TYR284     -0.2866
     56  N        -42.3860   42.9260   23.8030 N.am  285  VAL285     -0.1980
     57  CA       -41.9760   41.9740   24.8270 C.3   285  VAL285      0.1595
     58  C        -43.1630   41.7740   25.7450 C.2   285  VAL285      0.2287
     59  O        -43.7950   42.7420   26.1680 O.2   285  VAL285     -0.2864
     60  CB       -40.7330   42.4640   25.5950 C.3   285  VAL285      0.0276
     61  CG1      -40.9690   43.7980   26.2130 C.3   285  VAL285      0.0022
     62  CG2      -40.3650   41.4890   26.6680 C.3   285  VAL285      0.0022
     63  N        -50.3890   40.0770   29.9670 N.3   290  SER290     -0.1202
     64  CA       -50.2460   41.3240   29.2320 C.3   290  SER290      0.2020
     65  C        -51.1380   41.2660   28.0060 C.2   290  SER290      0.2619
     66  O        -51.3170   40.2020   27.4090 O.2   290  SER290     -0.2717
     67  CB       -48.8010   41.5410   28.8150 C.3   290  SER290      0.2103
     68  OG       -48.3880   40.4900   27.9640 O.3   290  SER290     -0.2182
     69  N        -51.6900   42.4120   27.6220 N.am  291  SER291     -0.1937
     70  CA       -52.7980   42.4460   26.6780 C.3   291  SER291      0.2055
     71  C        -52.6900   43.6610   25.7740 C.2   291  SER291      0.2643
     72  O        -52.0290   44.6440   26.1020 O.2   291  SER291     -0.2714
     73  CB       -54.1330   42.4740   27.4220 C.3   291  SER291      0.2130
     74  OG       -54.0500   43.3690   28.5290 O.3   291  SER291     -0.2179
     75  N        -53.3590   43.5770   24.6290 N.am  292  PHE292     -0.1973
     76  CA       -53.5640   44.7140   23.7430 C.3   292  PHE292      0.1639
     77  C        -55.0440   44.8240   23.4100 C.2   292  PHE292      0.2290
     78  O        -55.7250   43.8170   23.2130 O.2   292  PHE292     -0.2864
     79  CB       -52.7560   44.6060   22.4490 C.3   292  PHE292      0.0560
     80  CG       -52.9680   43.3330   21.6980 C.ar  292  PHE292     -0.0200
     81  CD1      -52.4330   42.1420   22.1540 C.ar  292  PHE292     -0.0042
     82  CD2      -53.6800   43.3300   20.5150 C.ar  292  PHE292     -0.0042
     83  CE1      -52.6370   40.9530   21.4570 C.ar  292  PHE292     -0.0003
     84  CE2      -53.8840   42.1490   19.8110 C.ar  292  PHE292     -0.0003
     85  CZ       -53.3580   40.9630   20.2800 C.ar  292  PHE292     -0.0000
     86  N        -58.3960   47.0640   18.2660 N.3   295  HIS295     -0.1241
     87  CA       -57.9870   48.1210   17.3670 C.3   295  HIS295      0.1621
     88  C        -57.9650   47.5980   15.9470 C.2   295  HIS295      0.2264
     89  O        -57.9940   46.3960   15.6990 O.2   295  HIS295     -0.2867
     90  CB       -56.6170   48.6670   17.7410 C.3   295  HIS295      0.0745
     91  CG       -55.4980   47.7350   17.4440 C.ar  295  HIS295      0.0817
     92  ND1      -54.9850   46.8780   18.3880 N.ar  295  HIS295     -0.2268
     93  CD2      -54.7860   47.5220   16.3120 C.ar  295  HIS295      0.1154
     94  CE1      -54.0110   46.1660   17.8490 C.ar  295  HIS295      0.1986
     95  NE2      -53.8630   46.5440   16.5900 N.ar  295  HIS295     -0.2212
     96  N        -55.8360   48.7590   12.1360 N.3   297  GLU297     -0.1245
     97  CA       -54.5780   49.3920   11.8090 C.3   297  GLU297      0.1567
     98  C        -54.8390   50.7550   11.1850 C.2   297  GLU297      0.2260
     99  O        -55.8710   50.9850   10.5480 O.2   297  GLU297     -0.2867
    100  CB       -53.7640   48.4950   10.8840 C.3   297  GLU297      0.0388
    101  CG       -53.5020   47.1180   11.4760 C.3   297  GLU297      0.1160
    102  CD       -52.7450   47.1840   12.7840 C.2   297  GLU297      0.3649
    103  OE1      -51.7340   47.9100   12.8240 O.co2 297  GLU297     -0.2457
    104  OE2      -53.1530   46.5330   13.7710 O.co2 297  GLU297     -0.2457
    105  N        -51.7220   43.8810    9.1560 N.3   303  SER303     -0.1217
    106  CA       -50.6650   43.6910   10.1320 C.3   303  SER303      0.1889
    107  C        -50.1580   42.2660    9.9770 C.2   303  SER303      0.2288
    108  O        -50.9290   41.3560    9.6670 O.2   303  SER303     -0.2866
    109  CB       -51.1790   43.9390   11.5450 C.3   303  SER303      0.2089
    110  OG       -50.4660   43.1810   12.4950 O.3   303  SER303     -0.2183
    111  N        -47.5480   39.5830   12.2510 N.3   305  ASN305     -0.1240
    112  CA       -47.0060   39.5170   13.5980 C.3   305  ASN305      0.1653
    113  C        -46.3110   38.1840   13.7810 C.2   305  ASN305      0.2266
    114  O        -46.9580   37.1350   13.7360 O.2   305  ASN305     -0.2867
    115  CB       -48.1160   39.6680   14.6360 C.3   305  ASN305      0.1155
    116  CG       -49.0240   40.8270   14.3430 C.2   305  ASN305      0.2627
    117  OD1      -49.5700   40.9290   13.2510 O.2   305  ASN305     -0.2716
    118  ND2      -49.1940   41.7150   15.3160 N.am  305  ASN305     -0.0877
    119  N        -49.2250   33.4990   22.3600 N.3   313  LYS313     -0.1245
    120  CA       -49.9760   34.7400   22.3830 C.3   313  LYS313      0.1561
    121  C        -51.3860   34.4430   21.9030 C.2   313  LYS313      0.2260
    122  O        -51.5670   33.8710   20.8250 O.2   313  LYS313     -0.2867
    123  CB       -49.3030   35.7740   21.4910 C.3   313  LYS313      0.0271
    124  CG       -50.1400   36.9890   21.1950 C.3   313  LYS313      0.0035
    125  CD       -49.4140   38.2880   21.5160 C.3   313  LYS313      0.0206
    126  CE       -48.1610   38.4780   20.7230 C.3   313  LYS313      0.1093
    127  NZ       -47.3520   39.4960   21.4280 N.3   313  LYS313     -0.1314
    128  N        -55.1230   35.4700   20.5860 N.3   315  TRP315     -0.1241
    129  CA       -55.6560   36.5100   19.7330 C.3   315  TRP315      0.1605
    130  C        -57.1720   36.4170   19.6980 C.2   315  TRP315      0.2264
    131  O        -57.7550   35.3830   20.0100 O.2   315  TRP315     -0.2867
    132  CB       -55.1170   36.3870   18.3030 C.3   315  TRP315      0.0550
    133  CG       -53.7020   36.7850   18.1050 C.ar  315  TRP315      0.0003
    134  CD1      -52.6020   36.0750   18.4380 C.ar  315  TRP315      0.0946
    135  CD2      -53.2380   37.9790   17.4880 C.ar  315  TRP315      0.0152
    136  NE1      -51.4720   36.7590   18.0730 N.ar  315  TRP315     -0.2442
    137  CE2      -51.8450   37.9370   17.4890 C.ar  315  TRP315      0.0810
    138  CE3      -53.8710   39.0840   16.9410 C.ar  315  TRP315      0.0012
    139  CZ2      -51.0720   38.9570   16.9660 C.ar  315  TRP315      0.0191
    140  CZ3      -53.0990   40.0970   16.4220 C.ar  315  TRP315      0.0001
    141  CH2      -51.7200   40.0250   16.4310 C.ar  315  TRP315      0.0015
    142  N        -58.9530   43.5170   16.1820 N.3   383  HIS383     -0.1241
    143  CA       -58.3000   42.4110   16.8680 C.3   383  HIS383      0.1621
    144  C        -57.7850   42.8660   18.2200 C.2   383  HIS383      0.2264
    145  O        -57.5480   44.0500   18.4480 O.2   383  HIS383     -0.2867
    146  CB       -57.1600   41.8190   16.0420 C.3   383  HIS383      0.0745
    147  CG       -56.1750   42.8220   15.5410 C.ar  383  HIS383      0.0817
    148  ND1      -56.4020   43.6040   14.4300 N.ar  383  HIS383     -0.2268
    149  CD2      -54.9420   43.1490   15.9850 C.ar  383  HIS383      0.1154
    150  CE1      -55.3550   44.3820   14.2210 C.ar  383  HIS383      0.1986
    151  NE2      -54.4520   44.1250   15.1490 N.ar  383  HIS383     -0.2212
    152  N        -51.1770   37.7200   26.3000 N.3   387  ASN387     -0.1240
    153  CA       -50.0860   36.7570   26.2600 C.3   387  ASN387      0.1653
    154  C        -50.2500   35.6400   27.2950 C.2   387  ASN387      0.2266
    155  O        -50.6630   35.8690   28.4340 O.2   387  ASN387     -0.2867
    156  CB       -48.7670   37.4780   26.4930 C.3   387  ASN387      0.1155
    157  CG       -48.3600   38.2980   25.3290 C.2   387  ASN387      0.2627
    158  OD1      -47.8820   37.7730   24.3400 O.2   387  ASN387     -0.2716
    159  ND2      -48.5210   39.6060   25.4380 N.am  387  ASN387     -0.0877
    160  N        -42.0990   39.3900   20.2840 N.3   393  ALA393     -0.1245
    161  CA       -42.8260   39.4180   19.0260 C.3   393  ALA393      0.1562
    162  C        -42.4280   40.6480   18.2370 C.2   393  ALA393      0.2260
    163  O        -41.8940   41.6120   18.7790 O.2   393  ALA393     -0.2867
    164  CB       -44.3310   39.4380   19.2530 C.3   393  ALA393      0.0290
    165  N        -43.6830   42.9780   14.5630 N.3   395  ALA395     -0.1231
    166  CA       -44.8380   43.2100   13.7050 C.3   395  ALA395      0.1694
    167  C        -44.6100   44.3930   12.7740 C.2   395  ALA395      0.2592
    168  O        -43.8990   45.3320   13.1150 O.2   395  ALA395     -0.2718
    169  CB       -46.0960   43.4760   14.5450 C.3   395  ALA395      0.0304
    170  N        -45.2450   44.3440   11.5980 N.am  396  VAL396     -0.1966
    171  CA       -45.2540   45.4590   10.6560 C.3   396  VAL396      0.1727
    172  C        -46.6720   45.6290   10.1300 C.2   396  VAL396      0.2616
    173  O        -47.5120   44.7380   10.2590 O.2   396  VAL396     -0.2715
    174  CB       -44.2860   45.2680    9.4600 C.3   396  VAL396      0.0290
    175  CG1      -43.9340   46.5950    8.8310 C.3   396  VAL396      0.0023
    176  CG2      -43.0460   44.6180    9.8990 C.3   396  VAL396      0.0023
    177  N        -46.9420   46.7930    9.5440 N.am  397  ASN397     -0.1972
    178  CA       -48.0760   46.9410    8.6450 C.3   397  ASN397      0.1688
    179  C        -47.5990   46.7710    7.2090 C.2   397  ASN397      0.2292
    180  O        -46.4100   46.8680    6.9180 O.2   397  ASN397     -0.2864
    181  CB       -48.7530   48.3040    8.8130 C.3   397  ASN397      0.1181
    182  CG       -49.1960   48.5680   10.2400 C.2   397  ASN397      0.2629
    183  OD1      -48.4690   49.1860   11.0230 O.2   397  ASN397     -0.2716
    184  ND2      -50.3930   48.1040   10.5870 N.am  397  ASN397     -0.0877
@<TRIPOS>BOND
     1    25    24    2
     2   180   179    2
     3    29    28    1
     4   179   178    1
     5    24    23    1
     6    28    27    1
     7   178   181    1
     8   178   177    1
     9   181   182    1
    10   175   174    1
    11   105   106    1
    12    23    22    1
    13    23    26    1
    14    27    26    1
    15   174   176    1
    16   174   171    1
    17   177   172   am
    18   108   107    2
    19   107   106    1
    20   172   173    2
    21   172   171    1
    22   106   109    1
    23   182   184   am
    24   182   183    2
    25    99    98    2
    26   171   170    1
    27   100   101    1
    28   100    97    1
    29    98    97    1
    30   101   102    1
    31   109   110    1
    32   170   167   am
    33    97    96    1
    34   111   112    1
    35   167   168    2
    36   167   166    1
    37   102   103   ar
    38   102   104   ar
    39   117   116    2
    40   112   113    1
    41   112   115    1
    42   166   169    1
    43   166   165    1
    44   114   113    2
    45    38    36   ar
    46    38    39   ar
    47    36    35   ar
    48   150   148   ar
    49   150   151   ar
    50   116   115    1
    51   116   118   am
    52   148   147   ar
    53    30    31    1
    54    39    41   ar
    55    39    37   ar
    56   151   149   ar
    57    41    43   ar
    58    35    37   ar
    59    35    34    1
    60   147   149   ar
    61   147   146    1
    62    89    88    2
    63    88    87    1
    64    31    34    1
    65    31    32    1
    66   146   143    1
    67    37    40   ar
    68   142   143    1
    69    93    95   ar
    70    93    91   ar
    71   140   141   ar
    72   140   138   ar
    73   141   139   ar
    74    43    42   ar
    75    33    32    2
    76    95    94   ar
    77   143   144    1
    78   138   135   ar
    79   139   137   ar
    80    40    42   ar
    81    87    90    1
    82    87    86    1
    83    91    90    1
    84    91    92   ar
    85   135   137   ar
    86   135   133   ar
    87   137   136   ar
    88    55    54    1
    89    94    92   ar
    90    53    54   ar
    91    53    51   ar
    92   136   134   ar
    93   133   132    1
    94   133   134   ar
    95   144   145    2
    96   162   163    2
    97   162   161    1
    98   132   129    1
    99    54    52   ar
   100    51    49   ar
   101   161   164    1
   102   161   160    1
   103   130   129    1
   104   130   131    2
   105   129   128    1
   106    84    85   ar
   107    84    82   ar
   108    52    50   ar
   109    49    50   ar
   110    49    48    1
   111    85    83   ar
   112    82    80   ar
   113    44    45    1
   114   126   127    1
   115   126   125    1
   116   122   121    2
   117    48    45    1
   118   124   123    1
   119   124   125    1
   120    83    81   ar
   121   123   120    1
   122    80    81   ar
   123    80    79    1
   124    45    46    1
   125   121   120    1
   126   119   120    1
   127    47    46    2
   128    79    76    1
   129    46    56   am
   130    19    18    1
   131    19    20    2
   132    78    77    2
   133    21    18    1
   134    77    76    1
   135    18    17    1
   136    76    75    1
   137    56    57    1
   138   158   157    2
   139    16    15    2
   140    75    71   am
   141    17    15   am
   142    57    60    1
   143    57    58    1
   144    15    14    1
   145   157   159   am
   146   157   156    1
   147    60    61    1
   148    60    62    1
   149    58    59    2
   150    71    72    2
   151    71    70    1
   152   153   152    1
   153   153   156    1
   154   153   154    1
   155    14    13    1
   156    70    73    1
   157    70    69    1
   158    10     8   ar
   159    10    11   ar
   160     8     6   ar
   161   154   155    2
   162    13     3   am
   163    66    65    2
   164    73    74    1
   165    12    11    1
   166    69    65   am
   167    11     9   ar
   168    68    67    1
   169    65    64    1
   170     6     5    1
   171     6     7   ar
   172     5     2    1
   173     3     2    1
   174     3     4    2
   175    67    64    1
   176     9     7   ar
   177    64    63    1
   178     2     1    1
