@<TRIPOS>MOLECULE
tmp/5v9tB00.pdb
 188 183 0 0 0
SMALL
GASTEIGER

@<TRIPOS>ATOM
      1  N        -16.6330   62.3750   -0.6490 N.3   237  TYR237     -0.1227
      2  CA       -16.4040   61.9530    0.7260 C.3   237  TYR237      0.1736
      3  C        -17.7610   61.7080    1.3730 C.2   237  TYR237      0.2596
      4  O        -18.8050   61.8180    0.7250 O.2   237  TYR237     -0.2718
      5  CB       -15.5710   62.9820    1.5080 C.3   237  TYR237      0.0548
      6  CG       -16.2840   64.2850    1.8830 C.ar  237  TYR237     -0.0200
      7  CD1      -16.2020   65.4160    1.0690 C.ar  237  TYR237     -0.0009
      8  CD2      -17.0210   64.3850    3.0570 C.ar  237  TYR237     -0.0009
      9  CE1      -16.8440   66.5880    1.4110 C.ar  237  TYR237      0.0417
     10  CE2      -17.6690   65.5600    3.4000 C.ar  237  TYR237      0.0417
     11  CZ       -17.5780   66.6530    2.5750 C.ar  237  TYR237      0.1957
     12  OH       -18.2230   67.8220    2.9160 O.3   237  TYR237     -0.2866
     13  N        -17.7360   61.3610    2.6580 N.am  238  GLY238     -0.1942
     14  CA       -18.9500   61.1720    3.4280 C.3   238  GLY238      0.2014
     15  C        -18.6810   61.6010    4.8470 C.2   238  GLY238      0.2639
     16  O        -17.6510   61.2190    5.4160 O.2   238  GLY238     -0.2714
     17  N        -19.5650   62.4160    5.4220 N.am  239  ALA239     -0.1963
     18  CA       -19.2810   63.0660    6.6940 C.3   239  ALA239      0.1728
     19  C        -20.5630   63.2190    7.4930 C.2   239  ALA239      0.2616
     20  O        -21.6660   62.9660    6.9980 O.2   239  ALA239     -0.2715
     21  CB       -18.6310   64.4350    6.4840 C.3   239  ALA239      0.0334
     22  N        -20.3970   63.6420    8.7430 N.am  240  ASP240     -0.1971
     23  CA       -21.5080   63.9060    9.6480 C.3   240  ASP240      0.1709
     24  C        -22.5470   62.7990    9.5200 C.2   240  ASP240      0.2293
     25  O        -23.6710   62.9900    9.0600 O.2   240  ASP240     -0.2864
     26  CB       -22.0990   65.2870    9.3880 C.3   240  ASP240      0.1436
     27  CG       -21.0810   66.3870    9.5790 C.2   240  ASP240      0.3671
     28  OD1      -20.1810   66.2010   10.4210 O.co2 240  ASP240     -0.2456
     29  OD2      -21.1650   67.4180    8.8810 O.co2 240  ASP240     -0.2456
     30  N        -19.7720   60.1120   15.4790 N.3   298  TRP298     -0.1241
     31  CA       -20.0620   60.4250   14.0960 C.3   298  TRP298      0.1605
     32  C        -19.0400   59.7140   13.2350 C.2   298  TRP298      0.2264
     33  O        -17.9530   59.4050   13.6980 O.2   298  TRP298     -0.2867
     34  CB       -20.0270   61.9520   13.8500 C.3   298  TRP298      0.0550
     35  CG       -21.0800   62.6930   14.6310 C.ar  298  TRP298      0.0003
     36  CD1      -21.0690   63.0130   15.9690 C.ar  298  TRP298      0.0946
     37  CD2      -22.3230   63.1670   14.1210 C.ar  298  TRP298      0.0152
     38  NE1      -22.2270   63.6610   16.3050 N.ar  298  TRP298     -0.2442
     39  CE2      -23.0170   63.7630   15.1910 C.ar  298  TRP298      0.0810
     40  CE3      -22.9240   63.1360   12.8590 C.ar  298  TRP298      0.0012
     41  CZ2      -24.2690   64.3350   15.0310 C.ar  298  TRP298      0.0191
     42  CZ3      -24.1580   63.6990   12.7050 C.ar  298  TRP298      0.0001
     43  CH2      -24.8190   64.2940   13.7820 C.ar  298  TRP298      0.0015
     44  N        -16.8380   59.2640    9.5620 N.3   300  TYR300     -0.1227
     45  CA       -16.2360   60.0680    8.4980 C.3   300  TYR300      0.1736
     46  C        -15.5010   59.1350    7.5400 C.2   300  TYR300      0.2595
     47  O        -14.3820   58.6890    7.8220 O.2   300  TYR300     -0.2718
     48  CB       -15.3210   61.1430    9.0960 C.3   300  TYR300      0.0548
     49  CG       -16.0610   62.2220    9.8720 C.ar  300  TYR300     -0.0200
     50  CD1      -16.5700   63.3440    9.2350 C.ar  300  TYR300     -0.0009
     51  CD2      -16.2560   62.1100   11.2360 C.ar  300  TYR300     -0.0009
     52  CE1      -17.2590   64.3180    9.9400 C.ar  300  TYR300      0.0417
     53  CE2      -16.9390   63.0860   11.9440 C.ar  300  TYR300      0.0417
     54  CZ       -17.4350   64.1800   11.2970 C.ar  300  TYR300      0.1957
     55  OH       -18.1120   65.1290   12.0370 O.3   300  TYR300     -0.2866
     56  N        -16.1250   58.8450    6.4050 N.am  301  VAL301     -0.1966
     57  CA       -15.5310   57.9690    5.3970 C.3   301  VAL301      0.1727
     58  C        -14.6930   58.8360    4.4550 C.2   301  VAL301      0.2616
     59  O        -15.2200   59.7410    3.7880 O.2   301  VAL301     -0.2715
     60  CB       -16.6100   57.1570    4.6420 C.3   301  VAL301      0.0290
     61  CG1      -17.7730   58.0280    4.1980 C.3   301  VAL301      0.0023
     62  CG2      -16.0160   56.4600    3.4220 C.3   301  VAL301      0.0023
     63  N        -13.4020   58.5430    4.3640 N.am  302  GLY302     -0.1955
     64  CA       -12.4600   59.4510    3.7570 C.3   302  GLY302      0.1869
     65  C        -11.8710   58.8800    2.4830 C.2   302  GLY302      0.2309
     66  O        -11.8320   57.6650    2.2810 O.2   302  GLY302     -0.2863
     67  N         -9.9030   64.1900    0.0800 N.3   306  SER306     -0.1202
     68  CA       -11.0170   64.6030    0.9190 C.3   306  SER306      0.2020
     69  C        -10.4720   65.4650    2.0530 C.2   306  SER306      0.2619
     70  O         -9.4520   65.1310    2.6630 O.2   306  SER306     -0.2717
     71  CB       -11.7520   63.3900    1.4850 C.3   306  SER306      0.2103
     72  OG       -10.9280   62.6750    2.3810 O.3   306  SER306     -0.2182
     73  N        -11.1550   66.5750    2.3400 N.am  307  SER307     -0.1937
     74  CA       -10.6250   67.5910    3.2350 C.3   307  SER307      0.2055
     75  C        -11.6970   68.0640    4.1980 C.2   307  SER307      0.2643
     76  O        -12.8950   67.9880    3.9140 O.2   307  SER307     -0.2714
     77  CB       -10.1020   68.7880    2.4390 C.3   307  SER307      0.2130
     78  OG       -11.0970   69.2620    1.5490 O.3   307  SER307     -0.2179
     79  N        -11.2470   68.5520    5.3490 N.am  308  PHE308     -0.1973
     80  CA       -12.0990   69.3210    6.2380 C.3   308  PHE308      0.1639
     81  C        -11.4280   70.6490    6.5580 C.2   308  PHE308      0.2290
     82  O        -10.1990   70.7380    6.6480 O.2   308  PHE308     -0.2864
     83  CB       -12.4270   68.5610    7.5230 C.3   308  PHE308      0.0560
     84  CG       -11.2310   68.1300    8.3050 C.ar  308  PHE308     -0.0200
     85  CD1      -10.5290   66.9960    7.9390 C.ar  308  PHE308     -0.0042
     86  CD2      -10.8280   68.8370    9.4230 C.ar  308  PHE308     -0.0042
     87  CE1       -9.4300   66.5760    8.6650 C.ar  308  PHE308     -0.0003
     88  CE2       -9.7320   68.4270   10.1510 C.ar  308  PHE308     -0.0003
     89  CZ        -9.0340   67.2840    9.7700 C.ar  308  PHE308     -0.0000
     90  N        -11.6440   74.6780   11.8410 N.3   311  HIS311     -0.1241
     91  CA       -12.8490   74.7310   12.6460 C.3   311  HIS311      0.1621
     92  C        -12.5210   74.3820   14.0850 C.2   311  HIS311      0.2264
     93  O        -11.4710   73.8190   14.3860 O.2   311  HIS311     -0.2867
     94  CB       -13.9210   73.7900   12.0970 C.3   311  HIS311      0.0745
     95  CG       -13.7670   72.3740   12.5360 C.ar  311  HIS311      0.0817
     96  ND1      -13.2600   71.3970   11.7110 N.ar  311  HIS311     -0.2268
     97  CD2      -14.0900   71.7610   13.6960 C.ar  311  HIS311      0.1154
     98  CE1      -13.2590   70.2450   12.3510 C.ar  311  HIS311      0.1986
     99  NE2      -13.7530   70.4380   13.5600 N.ar  311  HIS311     -0.2212
    100  N        -14.6840   73.1110   17.9740 N.3   313  GLU313     -0.1245
    101  CA       -15.7850   72.2690   18.4090 C.3   313  GLU313      0.1567
    102  C        -16.8490   73.1080   19.0950 C.2   313  GLU313      0.2260
    103  O        -16.5370   74.0010   19.8920 O.2   313  GLU313     -0.2867
    104  CB       -15.2910   71.1580   19.3420 C.3   313  GLU313      0.0388
    105  CG       -14.2710   70.2340   18.6860 C.3   313  GLU313      0.1160
    106  CD       -14.7150   69.7370   17.3190 C.2   313  GLU313      0.3649
    107  OE1      -15.9080   69.4200   17.1610 O.co2 313  GLU313     -0.2457
    108  OE2      -13.8830   69.6680   16.3940 O.co2 313  GLU313     -0.2457
    109  N        -12.3730   67.1690   21.1320 N.3   319  SER319     -0.1217
    110  CA       -12.7540   66.2030   20.1280 C.3   319  SER319      0.1889
    111  C        -11.7610   65.0560   20.2490 C.2   319  SER319      0.2288
    112  O        -10.6170   65.2640   20.6630 O.2   319  SER319     -0.2866
    113  CB       -12.7400   66.8360   18.7290 C.3   319  SER319      0.2089
    114  OG       -12.1450   65.9920   17.7630 O.3   319  SER319     -0.2183
    115  N        -10.6840   61.4810   17.8820 N.3   321  ASN321     -0.1240
    116  CA       -10.9400   60.8350   16.6040 C.3   321  ASN321      0.1653
    117  C        -10.0890   59.5820   16.4970 C.2   321  ASN321      0.2266
    118  O         -8.8640   59.6380   16.6280 O.2   321  ASN321     -0.2867
    119  CB       -10.6640   61.7820   15.4350 C.3   321  ASN321      0.1155
    120  CG       -11.2160   63.1780   15.6750 C.2   321  ASN321      0.2627
    121  OD1      -11.0800   63.7370   16.7600 O.2   321  ASN321     -0.2716
    122  ND2      -11.8500   63.7410   14.6580 N.am  321  ASN321     -0.0877
    123  N         -4.7850   59.8740    7.6730 N.3   329  LYS329     -0.1245
    124  CA        -5.4530   61.1670    7.7040 C.3   329  LYS329      0.1561
    125  C         -4.4710   62.2080    8.2220 C.2   329  LYS329      0.2260
    126  O         -3.9660   62.0850    9.3430 O.2   329  LYS329     -0.2867
    127  CB        -6.6940   61.1090    8.5930 C.3   329  LYS329      0.0271
    128  CG        -7.2500   62.4630    8.9810 C.3   329  LYS329      0.0035
    129  CD        -8.7510   62.4990    8.7980 C.3   329  LYS329      0.0206
    130  CE        -9.4750   61.5020    9.6770 C.3   329  LYS329      0.1093
    131  NZ       -10.8630   61.3410    9.1960 N.3   329  LYS329     -0.1314
    132  N         -3.3620   65.8920    9.5920 N.3   331  TRP331     -0.1241
    133  CA        -3.9210   66.9400   10.4280 C.3   331  TRP331      0.1605
    134  C         -3.0780   68.2070   10.3540 C.2   331  TRP331      0.2264
    135  O         -1.9330   68.2070    9.8970 O.2   331  TRP331     -0.2867
    136  CB        -4.0260   66.4810   11.8820 C.3   331  TRP331      0.0550
    137  CG        -5.0670   65.4400   12.1100 C.ar  331  TRP331      0.0003
    138  CD1       -4.9760   64.1080   11.8310 C.ar  331  TRP331      0.0946
    139  CD2       -6.3610   65.6440   12.6730 C.ar  331  TRP331      0.0152
    140  NE1       -6.1440   63.4640   12.1870 N.ar  331  TRP331     -0.2442
    141  CE2       -7.0110   64.3900   12.7020 C.ar  331  TRP331      0.0810
    142  CE3       -7.0370   66.7640   13.1540 C.ar  331  TRP331      0.0012
    143  CZ2       -8.2950   64.2300   13.1920 C.ar  331  TRP331      0.0191
    144  CZ3       -8.3200   66.6020   13.6480 C.ar  331  TRP331      0.0001
    145  CH2       -8.9340   65.3440   13.6630 C.ar  331  TRP331      0.0015
    146  N         -8.3830   73.4820   13.9040 N.3   399  HIS399     -0.1241
    147  CA        -7.6930   72.3930   13.2310 C.3   399  HIS399      0.1621
    148  C         -8.3390   72.1150   11.8860 C.2   399  HIS399      0.2264
    149  O         -9.5080   72.4320   11.6550 O.2   399  HIS399     -0.2867
    150  CB        -7.6930   71.1280   14.0750 C.3   399  HIS399      0.0745
    151  CG        -9.0590   70.6350   14.4100 C.ar  399  HIS399      0.0817
    152  ND1       -9.6510   70.8450   15.6370 N.ar  399  HIS399     -0.2268
    153  CD2       -9.9550   69.9470   13.6740 C.ar  399  HIS399      0.1154
    154  CE1      -10.8500   70.3000   15.6440 C.ar  399  HIS399      0.1986
    155  NE2      -11.0600   69.7480   14.4640 N.ar  399  HIS399     -0.2212
    156  N         -7.2140   63.6560    3.8810 N.3   403  ASN403     -0.1240
    157  CA        -6.9650   62.2250    3.9690 C.3   403  ASN403      0.1653
    158  C         -6.0240   61.7890    2.8530 C.2   403  ASN403      0.2266
    159  O         -6.1600   62.2430    1.7090 O.2   403  ASN403     -0.2867
    160  CB        -8.2690   61.4300    3.8820 C.3   403  ASN403      0.1155
    161  CG        -9.1510   61.6000    5.1140 C.2   403  ASN403      0.2627
    162  OD1       -8.9820   60.9060    6.1140 O.2   403  ASN403     -0.2716
    163  ND2      -10.1070   62.5050    5.0310 N.am  403  ASN403     -0.0877
    164  N        -13.2200   56.8700    9.6780 N.3   409  ALA409     -0.1245
    165  CA       -12.9130   57.4670   10.9660 C.3   409  ALA409      0.1562
    166  C        -14.1800   57.6380   11.7870 C.2   409  ALA409      0.2260
    167  O        -15.2940   57.6700   11.2580 O.2   409  ALA409     -0.2867
    168  CB       -12.2440   58.8200   10.7890 C.3   409  ALA409      0.0290
    169  N        -15.4660   59.9280   15.3240 N.3   411  ALA411     -0.1231
    170  CA       -15.0850   61.0410   16.1830 C.3   411  ALA411      0.1694
    171  C        -16.1970   61.3820   17.1650 C.2   411  ALA411      0.2592
    172  O        -17.3680   61.0960   16.9180 O.2   411  ALA411     -0.2718
    173  CB       -14.7630   62.2620   15.3310 C.3   411  ALA411      0.0304
    174  N        -15.8190   62.0170   18.2760 N.am  412  VAL412     -0.1966
    175  CA       -16.7660   62.3720   19.3290 C.3   412  VAL412      0.1727
    176  C        -16.2560   63.6090   20.0480 C.2   412  VAL412      0.2616
    177  O        -15.0500   63.8210   20.1720 O.2   412  VAL412     -0.2715
    178  CB       -16.9670   61.2260   20.3520 C.3   412  VAL412      0.0290
    179  CG1      -18.1690   61.5060   21.2390 C.3   412  VAL412      0.0023
    180  CG2      -17.1600   59.9170   19.6650 C.3   412  VAL412      0.0023
    181  N        -17.1800   64.4230   20.5300 N.am  413  ASN413     -0.1972
    182  CA       -16.8360   65.5060   21.4360 C.3   413  ASN413      0.1688
    183  C        -16.9440   65.0210   22.8740 C.2   413  ASN413      0.2292
    184  O        -17.6320   64.0490   23.1730 O.2   413  ASN413     -0.2864
    185  CB       -17.7430   66.7150   21.2140 C.3   413  ASN413      0.1181
    186  CG       -17.9050   67.0470   19.7540 C.2   413  ASN413      0.2629
    187  OD1      -18.7180   66.4470   19.0520 O.2   413  ASN413     -0.2716
    188  ND2      -17.1220   67.9960   19.2840 N.am  413  ASN413     -0.0877
@<TRIPOS>BOND
     1     1     2    1
     2    67    68    1
     3     4     3    2
     4     2     3    1
     5     2     5    1
     6    68    71    1
     7    68    69    1
     8     7     9   ar
     9     7     6   ar
    10     3    13   am
    11     9    11   ar
    12    71    72    1
    13     5     6    1
    14    78    77    1
    15   159   158    2
    16     6     8   ar
    17    69    73   am
    18    69    70    2
    19    66    65    2
    20    73    74    1
    21    77    74    1
    22    65    64    1
    23    11    12    1
    24    11    10   ar
    25    13    14    1
    26   158   157    1
    27     8    10   ar
    28    74    75    1
    29    62    60    1
    30    14    15    1
    31    64    63    1
    32    59    58    2
    33   156   157    1
    34   160   157    1
    35   160   161    1
    36    76    75    2
    37    75    79   am
    38    61    60    1
    39    63    58   am
    40    58    57    1
    41    60    57    1
    42    15    16    2
    43    15    17   am
    44   163   161   am
    45   161   162    2
    46    79    80    1
    47    57    56    1
    48    17    18    1
    49    80    81    1
    50    80    83    1
    51    56    46   am
    52    21    18    1
    53    81    82    2
    54    18    19    1
    55    20    19    2
    56    19    22   am
    57    83    84    1
    58    46    47    2
    59    46    45    1
    60   123   124    1
    61   124   125    1
    62   124   127    1
    63    85    84   ar
    64    85    87   ar
    65   125   126    2
    66    84    86   ar
    67    45    48    1
    68    45    44    1
    69   127   128    1
    70    87    89   ar
    71    22    23    1
    72   129   128    1
    73   129   130    1
    74    29    27   ar
    75    25    24    2
    76    48    49    1
    77   131   130    1
    78    50    49   ar
    79    50    52   ar
    80    26    27    1
    81    26    23    1
    82    86    88   ar
    83    24    23    1
    84    27    28   ar
    85   132   133    1
    86   164   165    1
    87    89    88   ar
    88    49    51   ar
    89   135   134    2
    90    52    54   ar
    91   134   133    1
    92   133   136    1
    93   168   165    1
    94   165   166    1
    95    51    53   ar
    96   167   166    2
    97    54    53   ar
    98    54    55    1
    99   149   148    2
   100    96    98   ar
   101    96    95   ar
   102   138   137   ar
   103   138   140   ar
   104    90    91    1
   105   136   137    1
   106   148   147    1
   107    94    95    1
   108    94    91    1
   109   137   139   ar
   110   140   141   ar
   111    98    99   ar
   112    95    97   ar
   113    91    92    1
   114   139   141   ar
   115   139   142   ar
   116   141   143   ar
   117    42    40   ar
   118    42    43   ar
   119    40    37   ar
   120   142   144   ar
   121   143   145   ar
   122   147   146    1
   123   147   150    1
   124    32    33    2
   125    32    31    1
   126    99    97   ar
   127   144   145   ar
   128   153   151   ar
   129   153   155   ar
   130    43    41   ar
   131    34    31    1
   132    34    35    1
   133   150   151    1
   134    92    93    2
   135    31    30    1
   136    37    35   ar
   137    37    39   ar
   138   151   152   ar
   139   155   154   ar
   140    35    36   ar
   141   122   120   am
   142    41    39   ar
   143    39    38   ar
   144   169   170    1
   145   173   170    1
   146   119   120    1
   147   119   116    1
   148   152   154   ar
   149   120   121    2
   150    36    38   ar
   151   170   171    1
   152   108   106   ar
   153   117   116    1
   154   117   118    2
   155   116   115    1
   156   172   171    2
   157   107   106   ar
   158   171   174   am
   159   106   105    1
   160   114   113    1
   161   100   101    1
   162   174   175    1
   163   101   102    1
   164   101   104    1
   165   105   104    1
   166   113   110    1
   167   187   186    2
   168   102   103    2
   169   188   186   am
   170   175   176    1
   171   175   178    1
   172   180   178    1
   173   186   185    1
   174   176   177    2
   175   176   181   am
   176   110   111    1
   177   110   109    1
   178   111   112    2
   179   178   179    1
   180   181   182    1
   181   185   182    1
   182   182   183    1
   183   183   184    2
