@<TRIPOS>MOLECULE
tmp/5v9xA01.pdb
 109 101 0 0 0
SMALL
GASTEIGER

@<TRIPOS>ATOM
      1  N         21.5710  -21.9540   21.0480 N.3   164  ALA164     -0.1245
      2  CA        22.7700  -21.9050   20.2200 C.3   164  ALA164      0.1562
      3  C         23.7630  -20.8400   20.6660 C.2   164  ALA164      0.2260
      4  O         24.9200  -20.8780   20.2310 O.2   164  ALA164     -0.2867
      5  CB        22.3850  -21.6750   18.7580 C.3   164  ALA164      0.0290
      6  N         27.8260  -19.3910   25.1770 N.3   168  THR168     -0.1203
      7  CA        28.9750  -18.8560   24.4600 C.3   168  THR168      0.1994
      8  C         29.1130  -17.3640   24.7230 C.2   168  THR168      0.2618
      9  O         28.1710  -16.6950   25.1590 O.2   168  THR168     -0.2717
     10  CB        28.8650  -19.0900   22.9470 C.3   168  THR168      0.1784
     11  OG1       27.6620  -18.4840   22.4540 O.3   168  THR168     -0.2211
     12  CG2       28.8520  -20.5780   22.6310 C.3   168  THR168      0.0376
     13  N         30.3130  -16.8480   24.4400 N.am  169  LYS169     -0.1965
     14  CA        30.5360  -15.4090   24.4910 C.3   169  LYS169      0.1728
     15  C         29.7370  -14.6730   23.4270 C.2   169  LYS169      0.2616
     16  O         29.5420  -13.4590   23.5430 O.2   169  LYS169     -0.2715
     17  CB        32.0230  -15.0920   24.3350 C.3   169  LYS169      0.0311
     18  CG        32.8890  -15.6330   25.4530 C.3   169  LYS169      0.0038
     19  CD        34.3050  -15.0960   25.3610 C.3   169  LYS169      0.0206
     20  CE        35.2190  -15.8050   26.3450 C.3   169  LYS169      0.1093
     21  NZ        36.5910  -15.2320   26.3480 N.3   169  LYS169     -0.1314
     22  N         29.2810  -15.3750   22.3880 N.am  170  ARG170     -0.1977
     23  CA        28.3740  -14.7590   21.4300 C.3   170  ARG170      0.1597
     24  C         27.0450  -14.3970   22.0890 C.2   170  ARG170      0.2287
     25  O         26.4680  -13.3450   21.7960 O.2   170  ARG170     -0.2864
     26  CB        28.1580  -15.6970   20.2420 C.3   170  ARG170      0.0334
     27  CG        27.4710  -15.0500   19.0500 C.3   170  ARG170      0.0492
     28  CD        27.2590  -16.0550   17.9330 C.3   170  ARG170      0.2205
     29  NE        26.5570  -15.4670   16.7960 N.pl3 170  ARG170     -0.0865
     30  CZ        25.8840  -16.1700   15.8900 C.cat 170  ARG170      0.5346
     31  NH1       25.8130  -17.4910   15.9920 N.pl3 170  ARG170      0.1354
     32  NH2       25.2730  -15.5520   14.8860 N.pl3 170  ARG170      0.1354
     33  N         31.8350  -11.4930   18.7680 N.3   485  ALA485     -0.1231
     34  CA        32.4950  -12.4140   19.6830 C.3   485  ALA485      0.1694
     35  C         33.1840  -13.5790   18.9880 C.2   485  ALA485      0.2592
     36  O         34.0870  -14.1810   19.5790 O.2   485  ALA485     -0.2718
     37  CB        31.4870  -12.9670   20.6970 C.3   485  ALA485      0.0304
     38  N         32.7900  -13.9120   17.7660 N.am  486  ILE486     -0.1966
     39  CA        33.4000  -15.0530   17.0730 C.3   486  ILE486      0.1712
     40  C         34.8710  -14.7510   16.8060 C.2   486  ILE486      0.2458
     41  O         35.1910  -13.6830   16.2570 O.2   486  ILE486     -0.2730
     42  CB        32.6510  -15.3520   15.7750 C.3   486  ILE486      0.0289
     43  CG1       31.2440  -15.8720   16.0850 C.3   486  ILE486      0.0022
     44  CG2       33.4180  -16.3650   14.9370 C.3   486  ILE486      0.0023
     45  CD1       30.3760  -16.0640   14.8610 C.3   486  ILE486      0.0001
     46  N         35.7900  -15.6360   17.1760 N.am  487  PRO487     -0.2727
     47  CA        37.2150  -15.3320   17.0290 C.3   487  PRO487      0.1402
     48  C         37.7370  -15.6160   15.6310 C.2   487  PRO487      0.2269
     49  O         37.2090  -16.4500   14.8910 O.2   487  PRO487     -0.2865
     50  CB        37.8720  -16.2640   18.0530 C.3   487  PRO487      0.0296
     51  CG        36.9580  -17.4420   18.0980 C.3   487  PRO487      0.0237
     52  CD        35.5640  -16.9030   17.8960 C.3   487  PRO487      0.0939
     53  N         40.0180  -17.5440   13.7660 N.3   489  ARG489     -0.1245
     54  CA        40.8330  -18.7470   13.7820 C.3   489  ARG489      0.1563
     55  C         41.5120  -18.9320   12.4310 C.2   489  ARG489      0.2260
     56  O         41.1090  -18.3520   11.4200 O.2   489  ARG489     -0.2867
     57  CB        39.9910  -19.9790   14.1250 C.3   489  ARG489      0.0307
     58  CG        40.0980  -20.4050   15.5750 C.3   489  ARG489      0.0489
     59  CD        38.7440  -20.4110   16.2500 C.3   489  ARG489      0.2205
     60  NE        38.8520  -20.6880   17.6800 N.pl3 489  ARG489     -0.0865
     61  CZ        37.8100  -20.8280   18.4940 C.cat 489  ARG489      0.5346
     62  NH1       36.5740  -20.7210   18.0200 N.pl3 489  ARG489      0.1354
     63  NH2       38.0030  -21.0770   19.7820 N.pl3 489  ARG489      0.1354
     64  N         36.8910  -25.3050   19.1730 N.3   525  SER525     -0.1217
     65  CA        36.3360  -24.9870   20.4820 C.3   525  SER525      0.1889
     66  C         36.6860  -26.0130   21.5510 C.2   525  SER525      0.2288
     67  O         37.8670  -26.3300   21.7430 O.2   525  SER525     -0.2866
     68  CB        34.8130  -24.8210   20.3940 C.3   525  SER525      0.2089
     69  OG        34.4950  -23.6470   19.6640 O.3   525  SER525     -0.2183
     70  N         44.0100  -18.4460   23.4460 N.3   678  ARG678     -0.1245
     71  CA        42.8600  -17.7770   24.0370 C.3   678  ARG678      0.1563
     72  C         43.2140  -16.4050   24.5970 C.2   678  ARG678      0.2260
     73  O         42.3210  -15.5640   24.7430 O.2   678  ARG678     -0.2867
     74  CB        42.2380  -18.6620   25.1180 C.3   678  ARG678      0.0307
     75  CG        41.7350  -20.0050   24.5920 C.3   678  ARG678      0.0489
     76  CD        40.7340  -19.8230   23.4560 C.3   678  ARG678      0.2205
     77  NE        40.4120  -21.0820   22.7890 N.pl3 678  ARG678     -0.0865
     78  CZ        39.3060  -21.7870   23.0070 C.cat 678  ARG678      0.5346
     79  NH1       38.4030  -21.3560   23.8780 N.pl3 678  ARG678      0.1354
     80  NH2       39.0990  -22.9230   22.3510 N.pl3 678  ARG678      0.1354
     81  N         42.8040  -14.3370   21.2500 N.3   681  GLU681     -0.1245
     82  CA        41.3970  -14.1120   20.9300 C.3   681  GLU681      0.1567
     83  C         40.7520  -13.1510   21.9240 C.2   681  GLU681      0.2260
     84  O         39.9110  -12.3270   21.5450 O.2   681  GLU681     -0.2867
     85  CB        40.6430  -15.4440   20.9020 C.3   681  GLU681      0.0388
     86  CG        41.1410  -16.4430   19.8610 C.3   681  GLU681      0.1160
     87  CD        40.4420  -17.7910   19.9630 C.2   681  GLU681      0.3649
     88  OE1       39.5970  -17.9580   20.8700 O.co2 681  GLU681     -0.2457
     89  OE2       40.7370  -18.6860   19.1400 O.co2 681  GLU681     -0.2457
     90  N         39.2860   -9.4550   20.9570 N.3   685  ARG685     -0.1245
     91  CA        37.8680   -9.2210   21.2160 C.3   685  ARG685      0.1563
     92  C         37.6600   -8.0080   22.1160 C.2   685  ARG685      0.2260
     93  O         36.6790   -7.2720   21.9520 O.2   685  ARG685     -0.2867
     94  CB        37.2380  -10.4730   21.8360 C.3   685  ARG685      0.0307
     95  CG        35.7260  -10.4040   22.0020 C.3   685  ARG685      0.0489
     96  CD        35.1270  -11.7530   22.3870 C.3   685  ARG685      0.2205
     97  NE        36.1380  -12.7270   22.7880 N.pl3 685  ARG685     -0.0865
     98  CZ        36.2940  -13.9210   22.2230 C.cat 685  ARG685      0.5346
     99  NH1       35.4940  -14.2990   21.2380 N.pl3 685  ARG685      0.1354
    100  NH2       37.2420  -14.7460   22.6500 N.pl3 685  ARG685      0.1354
    101  N         38.5720  -18.3900   30.7760 N.3   729  GLU729     -0.1245
    102  CA        37.9720  -19.1590   29.6890 C.3   729  GLU729      0.1567
    103  C         38.5480  -20.5680   29.6180 C.2   729  GLU729      0.2260
    104  O         37.8010  -21.5390   29.4500 O.2   729  GLU729     -0.2867
    105  CB        38.1660  -18.4410   28.3530 C.3   729  GLU729      0.0388
    106  CG        37.5800  -19.2140   27.1750 C.3   729  GLU729      0.1160
    107  CD        37.7450  -18.5090   25.8420 C.2   729  GLU729      0.3649
    108  OE1       38.4210  -17.4610   25.7940 O.co2 729  GLU729     -0.2457
    109  OE2       37.1940  -19.0090   24.8380 O.co2 729  GLU729     -0.2457
@<TRIPOS>BOND
     1    56    55    2
     2    55    54    1
     3    53    54    1
     4    54    57    1
     5    57    58    1
     6    45    43    1
     7    32    30    1
     8    49    48    2
     9    44    42    1
    10    58    59    1
    11    48    47    1
    12    42    43    1
    13    42    39    1
    14    30    31    1
    15    30    29    2
    16    59    60    1
    17    41    40    2
    18    29    28    1
    19    40    39    1
    20    40    46   am
    21    47    46    1
    22    47    50    1
    23    39    38    1
    24    46    52    1
    25    60    61    2
    26    38    35   am
    27    52    51    1
    28    28    27    1
    29    62    61    1
    30    50    51    1
    31    61    63    1
    32     5     2    1
    33    33    34    1
    34    35    36    2
    35    35    34    1
    36    27    26    1
    37    89    87   ar
    38    64    65    1
    39    69    68    1
    40    34    37    1
    41    86    87    1
    42    86    85    1
    43    87    88   ar
    44     2     3    1
    45     2     1    1
    46     4     3    2
    47    26    23    1
    48    68    65    1
    49    65    66    1
    50    85    82    1
    51    82    81    1
    52    82    83    1
    53    90    91    1
    54    91    94    1
    55    91    92    1
    56    99    98    1
    57    23    24    1
    58    23    22    1
    59    84    83    2
    60    66    67    2
    61    25    24    2
    62    94    95    1
    63    93    92    2
    64    95    96    1
    65    98   100    1
    66    98    97    2
    67    80    78    1
    68    96    97    1
    69    22    15   am
    70    11    10    1
    71    12    10    1
    72    77    78    2
    73    77    76    1
    74    10     7    1
    75    78    79    1
    76    15    16    2
    77    15    14    1
    78    70    71    1
    79    76    75    1
    80    71    72    1
    81    71    74    1
    82    17    14    1
    83    17    18    1
    84    13    14    1
    85    13     8   am
    86     7     8    1
    87     7     6    1
    88    75    74    1
    89    72    73    2
    90     8     9    2
    91   109   107   ar
    92    19    18    1
    93    19    20    1
    94   108   107   ar
    95   107   106    1
    96    20    21    1
    97   106   105    1
    98   105   102    1
    99   104   103    2
   100   103   102    1
   101   102   101    1
