@<TRIPOS>MOLECULE
tmp/5v9xA00.pdb
 190 179 0 0 0
SMALL
GASTEIGER

@<TRIPOS>ATOM
      1  N         -6.2430  -17.9880   11.3620 N.3    15  PHE15      -0.1241
      2  CA        -5.5690  -19.1670   11.8960 C.3    15  PHE15       0.1605
      3  C         -6.4590  -20.4000   11.8190 C.2    15  PHE15       0.2264
      4  O         -5.9590  -21.5150   11.6290 O.2    15  PHE15      -0.2867
      5  CB        -5.1240  -18.9140   13.3390 C.3    15  PHE15       0.0534
      6  CG        -4.1810  -19.9580   13.8760 C.ar   15  PHE15      -0.0203
      7  CD1       -4.6640  -21.1250   14.4480 C.ar   15  PHE15      -0.0042
      8  CD2       -2.8110  -19.7710   13.8070 C.ar   15  PHE15      -0.0042
      9  CE1       -3.8000  -22.0850   14.9340 C.ar   15  PHE15      -0.0003
     10  CE2       -1.9400  -20.7290   14.2970 C.ar   15  PHE15      -0.0003
     11  CZ        -2.4360  -21.8870   14.8610 C.ar   15  PHE15      -0.0000
     12  N         -4.8720  -23.7070    9.8250 N.3    19  PHE19      -0.1227
     13  CA        -4.4290  -24.8950   10.5370 C.3    19  PHE19       0.1736
     14  C         -5.6160  -25.5660   11.2110 C.2    19  PHE19       0.2595
     15  O         -6.5930  -24.9100   11.5820 O.2    19  PHE19      -0.2718
     16  CB        -3.3580  -24.5540   11.5810 C.3    19  PHE19       0.0547
     17  CG        -2.2480  -23.6990   11.0450 C.ar   19  PHE19      -0.0202
     18  CD1       -1.2360  -24.2550   10.2820 C.ar   19  PHE19      -0.0042
     19  CD2       -2.2210  -22.3380   11.2950 C.ar   19  PHE19      -0.0042
     20  CE1       -0.2110  -23.4710    9.7830 C.ar   19  PHE19      -0.0003
     21  CE2       -1.2000  -21.5490   10.7990 C.ar   19  PHE19      -0.0003
     22  CZ        -0.1940  -22.1170   10.0420 C.ar   19  PHE19      -0.0000
     23  N         -5.5190  -26.8890   11.3620 N.am   20  ALA20      -0.1966
     24  CA        -6.5950  -27.6470   11.9920 C.3    20  ALA20       0.1728
     25  C         -6.8520  -27.1570   13.4110 C.2    20  ALA20       0.2616
     26  O         -8.0010  -26.9150   13.7990 O.2    20  ALA20      -0.2715
     27  CB        -6.2580  -29.1380   11.9880 C.3    20  ALA20       0.0334
     28  N         -5.7900  -26.9970   14.1980 N.am   21  ALA21      -0.1977
     29  CA        -5.9000  -26.5130   15.5660 C.3    21  ALA21       0.1597
     30  C         -4.5230  -26.0710   16.0300 C.2    21  ALA21       0.2287
     31  O         -3.5140  -26.5990   15.5490 O.2    21  ALA21      -0.2864
     32  CB        -6.4520  -27.5990   16.5010 C.3    21  ALA21       0.0319
     33  N         -1.1860  -25.9520   18.2690 N.3    23  THR23      -0.1218
     34  CA        -0.4880  -26.9760   19.0290 C.3    23  THR23       0.1862
     35  C         -0.4150  -26.5750   20.4950 C.2    23  THR23       0.2287
     36  O         -0.5500  -25.3950   20.8320 O.2    23  THR23      -0.2866
     37  CB         0.9190  -27.1860   18.4700 C.3    23  THR23       0.1770
     38  OG1        1.6970  -25.9950   18.6530 O.3    23  THR23      -0.2211
     39  CG2        0.8610  -27.5320   16.9890 C.3    23  THR23       0.0375
     40  N          1.7650  -23.6800   21.2170 N.3    26  GLN26      -0.1245
     41  CA         1.1910  -22.3990   20.8170 C.3    26  GLN26       0.1566
     42  C          0.1760  -21.9050   21.8420 C.2    26  GLN26       0.2260
     43  O          0.2090  -20.7370   22.2490 O.2    26  GLN26      -0.2867
     44  CB         0.5440  -22.5210   19.4370 C.3    26  GLN26       0.0367
     45  CG         1.5390  -22.5680   18.2940 C.3    26  GLN26       0.0905
     46  CD         0.8950  -22.9510   16.9790 C.2    26  GLN26       0.2608
     47  OE1       -0.1300  -23.6320   16.9540 O.2    26  GLN26      -0.2717
     48  NE2        1.4910  -22.5120   15.8770 N.am   26  GLN26      -0.0878
     49  N          9.3760  -29.5180   20.3960 N.3    44  PRO44      -0.2102
     50  CA        10.1320  -30.0950   19.2720 C.3    44  PRO44       0.1504
     51  C         10.0480  -29.2860   17.9850 C.2    44  PRO44       0.2576
     52  O          9.3790  -28.2500   17.9300 O.2    44  PRO44      -0.2718
     53  CB         9.4940  -31.4800   19.1010 C.3    44  PRO44       0.0282
     54  CG         8.1600  -31.3840   19.7600 C.3    44  PRO44       0.0208
     55  CD         8.3530  -30.4460   20.9050 C.3    44  PRO44       0.0893
     56  N         10.7190  -29.7670   16.9340 N.am   45  THR45      -0.1939
     57  CA        10.8660  -28.9740   15.7160 C.3    45  THR45       0.2028
     58  C          9.5510  -28.8280   14.9600 C.2    45  THR45       0.2642
     59  O          9.3590  -27.8400   14.2420 O.2    45  THR45      -0.2714
     60  CB        11.9330  -29.5910   14.8120 C.3    45  THR45       0.1808
     61  OG1       11.6910  -30.9960   14.6700 O.3    45  THR45      -0.2208
     62  CG2       13.3210  -29.3750   15.4030 C.3    45  THR45       0.0379
     63  N          8.6400  -29.7850   15.1010 N.am   46  GLY46      -0.1954
     64  CA         7.3480  -29.6790   14.4530 C.3    46  GLY46       0.1869
     65  C          6.2630  -29.1940   15.3900 C.2    46  GLY46       0.2309
     66  O          5.2770  -29.8990   15.6260 O.2    46  GLY46      -0.2863
     67  N          5.4960  -25.3790   15.5830 N.3    48  GLY48      -0.1210
     68  CA         5.0120  -24.0590   15.2350 C.3    48  GLY48       0.1956
     69  C          5.3970  -23.0060   16.2500 C.2    48  GLY48       0.2612
     70  O          4.5570  -22.2040   16.6710 O.2    48  GLY48      -0.2717
     71  N          6.6650  -23.0030   16.6640 N.am   49  LYS49      -0.1965
     72  CA         7.1230  -22.0220   17.6380 C.3    49  LYS49       0.1728
     73  C          7.2210  -20.6240   17.0430 C.2    49  LYS49       0.2617
     74  O          7.1890  -19.6430   17.7940 O.2    49  LYS49      -0.2715
     75  CB         8.4680  -22.4550   18.2220 C.3    49  LYS49       0.0311
     76  CG         8.4010  -23.7600   19.0090 C.3    49  LYS49       0.0038
     77  CD         9.6810  -24.0100   19.7980 C.3    49  LYS49       0.0206
     78  CE        10.8480  -24.3730   18.8930 C.3    49  LYS49       0.1093
     79  NZ        10.6570  -25.7060   18.2570 N.3    49  LYS49      -0.1314
     80  N          7.3310  -20.5100   15.7170 N.am   50  THR50      -0.1937
     81  CA         7.3780  -19.1950   15.0800 C.3    50  THR50       0.2028
     82  C          6.0960  -18.4130   15.3380 C.2    50  THR50       0.2642
     83  O          6.1350  -17.2760   15.8220 O.2    50  THR50      -0.2714
     84  CB         7.6120  -19.3430   13.5750 C.3    50  THR50       0.1808
     85  OG1        8.8700  -19.9870   13.3410 O.3    50  THR50      -0.2208
     86  CG2        7.6000  -17.9810   12.8930 C.3    50  THR50       0.0379
     87  N          4.9440  -19.0060   15.0080 N.am   51  LEU51      -0.1977
     88  CA         3.6760  -18.3240   15.2470 C.3    51  LEU51       0.1596
     89  C          3.3860  -18.1850   16.7340 C.2    51  LEU51       0.2287
     90  O          2.6670  -17.2650   17.1390 O.2    51  LEU51      -0.2864
     91  CB         2.5340  -19.0610   14.5510 C.3    51  LEU51       0.0297
     92  CG         2.4840  -18.9580   13.0250 C.3    51  LEU51       0.0022
     93  CD1        1.3450  -19.7910   12.4680 C.3    51  LEU51       0.0001
     94  CD2        2.3700  -17.5110   12.5740 C.3    51  LEU51       0.0001
     95  N          8.4610  -16.7890    5.4790 N.3    85  ASN85      -0.1240
     96  CA         7.3530  -17.5050    6.1000 C.3    85  ASN85       0.1653
     97  C          6.3780  -16.5880    6.8250 C.2    85  ASN85       0.2266
     98  O          5.2430  -17.0010    7.0880 O.2    85  ASN85      -0.2867
     99  CB         7.8830  -18.5590    7.0710 C.3    85  ASN85       0.1155
    100  CG         8.2350  -19.8590    6.3770 C.2    85  ASN85       0.2627
    101  OD1        9.2990  -19.9870    5.7740 O.2    85  ASN85      -0.2716
    102  ND2        7.3340  -20.8350    6.4570 N.am   85  ASN85      -0.0877
    103  N         15.2250  -16.5020   18.7410 N.3   160  ASP160     -0.1225
    104  CA        15.0330  -17.8500   18.2270 C.3   160  ASP160      0.1805
    105  C         16.3100  -18.6640   18.3900 C.2   160  ASP160      0.2597
    106  O         17.4210  -18.1360   18.3010 O.2   160  ASP160     -0.2718
    107  CB        14.6280  -17.8010   16.7570 C.3   160  ASP160      0.1424
    108  CG        13.8110  -19.0000   16.3330 C.2   160  ASP160      0.3668
    109  OD1       13.8780  -20.0430   17.0170 O.co2 160  ASP160     -0.2456
    110  OD2       13.1010  -18.8970   15.3110 O.co2 160  ASP160     -0.2456
    111  N         16.1360  -19.9630   18.6230 N.am  161  GLU161     -0.1979
    112  CA        17.2490  -20.8910   18.8190 C.3   161  GLU161      0.1602
    113  C         18.1850  -20.3930   19.9190 C.2   161  GLU161      0.2287
    114  O         19.4030  -20.3140   19.7500 O.2   161  GLU161     -0.2864
    115  CB        18.0070  -21.1230   17.5100 C.3   161  GLU161      0.0415
    116  CG        17.1170  -21.4420   16.3180 C.3   161  GLU161      0.1163
    117  CD        16.2840  -22.6950   16.5150 C.2   161  GLU161      0.3649
    118  OE1       16.6770  -23.5620   17.3280 O.co2 161  GLU161     -0.2457
    119  OE2       15.2300  -22.8140   15.8520 O.co2 161  GLU161     -0.2457
    120  N         12.9500  -19.3820   21.9280 N.3   194  LEU194     -0.1245
    121  CA        12.4710  -20.5890   21.2700 C.3   194  LEU194      0.1561
    122  C         13.6250  -21.5640   21.0920 C.2   194  LEU194      0.2260
    123  O         14.7290  -21.1620   20.7180 O.2   194  LEU194     -0.2867
    124  CB        11.8590  -20.2680   19.9000 C.3   194  LEU194      0.0270
    125  CG        10.8880  -19.0900   19.8390 C.3   194  LEU194      0.0019
    126  CD1       10.5540  -18.7380   18.3990 C.3   194  LEU194      0.0001
    127  CD2        9.6310  -19.4130   20.6200 C.3   194  LEU194      0.0001
    128  N         14.0730  -26.2230   20.5500 N.3   196  ALA196     -0.1245
    129  CA        13.6820  -27.6080   20.7580 C.3   196  ALA196      0.1562
    130  C         14.6350  -28.3600   21.6750 C.2   196  ALA196      0.2260
    131  O         14.3340  -29.4950   22.0620 O.2   196  ALA196     -0.2867
    132  CB        13.5950  -28.3350   19.4140 C.3   196  ALA196      0.0290
    133  N         16.0650  -23.9780   12.4250 N.3   331  GLY331     -0.1225
    134  CA        14.9310  -23.1240   12.1360 C.3   331  GLY331      0.1811
    135  C         14.2600  -23.2340   10.7850 C.2   331  GLY331      0.2280
    136  O         13.0300  -23.1380   10.7170 O.2   331  GLY331     -0.2866
    137  N         12.3290  -23.9510    7.4250 N.3   333  ASP333     -0.1239
    138  CA        11.1010  -24.7220    7.2420 C.3   333  ASP333      0.1674
    139  C         10.9530  -25.0420    5.7560 C.2   333  ASP333      0.2266
    140  O         10.1840  -24.4030    5.0330 O.2   333  ASP333     -0.2867
    141  CB         9.9010  -23.9520    7.7860 C.3   333  ASP333      0.1410
    142  CG         8.5920  -24.6470    7.5010 C.2   333  ASP333      0.3668
    143  OD1        8.4620  -25.8390    7.8540 O.co2 333  ASP333     -0.2456
    144  OD2        7.6930  -24.0010    6.9210 O.co2 333  ASP333     -0.2456
    145  N         18.6640  -30.9820   15.9760 N.3   354  GLN354     -0.1245
    146  CA        18.2990  -29.8070   15.1940 C.3   354  GLN354      0.1566
    147  C         18.4790  -30.0530   13.7000 C.2   354  GLN354      0.2260
    148  O         17.6300  -29.6520   12.8950 O.2   354  GLN354     -0.2867
    149  CB        19.1260  -28.6030   15.6470 C.3   354  GLN354      0.0367
    150  CG        18.7700  -28.0940   17.0370 C.3   354  GLN354      0.0905
    151  CD        17.4410  -27.3560   17.0740 C.2   354  GLN354      0.2608
    152  OE1       16.7450  -27.2440   16.0600 O.2   354  GLN354     -0.2717
    153  NE2       17.0830  -26.8440   18.2470 N.am  354  GLN354     -0.0878
    154  N         15.2720  -30.7180   10.3030 N.3   358  ARG358     -0.1245
    155  CA        14.9520  -30.0470    9.0460 C.3   358  ARG358      0.1563
    156  C         14.0580  -30.9090    8.1640 C.2   358  ARG358      0.2260
    157  O         13.2530  -30.3790    7.3900 O.2   358  ARG358     -0.2867
    158  CB        16.2290  -29.6820    8.2840 C.3   358  ARG358      0.0307
    159  CG        17.2200  -28.7950    9.0330 C.3   358  ARG358      0.0489
    160  CD        16.5310  -27.6600    9.7600 C.3   358  ARG358      0.2205
    161  NE        16.2680  -28.0000   11.1530 N.pl3 358  ARG358     -0.0865
    162  CZ        15.3380  -27.4190   11.9000 C.cat 358  ARG358      0.5346
    163  NH1       14.5690  -26.4710   11.3850 N.pl3 358  ARG358      0.1354
    164  NH2       15.1720  -27.7930   13.1610 N.pl3 358  ARG358      0.1354
    165  N          9.4440  -31.2800    8.3010 N.3   361  HIS361     -0.1226
    166  CA         9.2630  -30.0920    9.1350 C.3   361  HIS361      0.1752
    167  C          7.8040  -29.6250    9.1260 C.2   361  HIS361      0.2596
    168  O          7.4760  -28.4960    8.7620 O.2   361  HIS361     -0.2718
    169  CB        10.2050  -28.9900    8.6730 C.3   361  HIS361      0.0759
    170  CG        10.5680  -28.0210    9.7520 C.ar  361  HIS361      0.0818
    171  ND1        9.9890  -26.7750    9.8610 N.ar  361  HIS361     -0.2268
    172  CD2       11.4460  -28.1200   10.7780 C.ar  361  HIS361      0.1154
    173  CE1       10.4990  -26.1470   10.9040 C.ar  361  HIS361      0.1986
    174  NE2       11.3850  -26.9410   11.4780 N.ar  361  HIS361     -0.2212
    175  N          6.9230  -30.5300    9.5450 N.am  362  GLN362     -0.1965
    176  CA         5.5040  -30.2390    9.6890 C.3   362  GLN362      0.1733
    177  C          5.0150  -30.8660   10.9860 C.2   362  GLN362      0.2616
    178  O          5.6270  -31.7960   11.5170 O.2   362  GLN362     -0.2715
    179  CB         4.6760  -30.7620    8.5020 C.3   362  GLN362      0.0408
    180  CG         5.1160  -30.2450    7.1400 C.3   362  GLN362      0.0908
    181  CD         6.1900  -31.1070    6.5070 C.2   362  GLN362      0.2608
    182  OE1        6.0820  -32.3340    6.4800 O.2   362  GLN362     -0.2717
    183  NE2        7.2390  -30.4700    5.9970 N.am  362  GLN362     -0.0878
    184  N          3.8990  -30.3450   11.4930 N.am  363  VAL363     -0.1977
    185  CA         3.3660  -30.8020   12.7730 C.3   363  VAL363      0.1596
    186  C          2.9240  -32.2540   12.6400 C.2   363  VAL363      0.2287
    187  O          2.0880  -32.5890   11.7930 O.2   363  VAL363     -0.2864
    188  CB         2.2090  -29.9080   13.2380 C.3   363  VAL363      0.0276
    189  CG1        1.6070  -30.4430   14.5260 C.3   363  VAL363      0.0022
    190  CG2        2.6920  -28.4780   13.4300 C.3   363  VAL363      0.0022
@<TRIPOS>BOND
     1   140   139    2
     2    95    96    1
     3   139   138    1
     4   101   100    2
     5   183   181   am
     6    96    97    1
     7    96    99    1
     8   100   102   am
     9   100    99    1
    10   182   181    2
    11   181   180    1
    12    97    98    2
    13   144   142   ar
    14   180   179    1
    15   138   137    1
    16   138   141    1
    17   157   156    2
    18   142   141    1
    19   142   143   ar
    20   156   155    1
    21   158   159    1
    22   158   155    1
    23   165   166    1
    24   179   176    1
    25   169   166    1
    26   169   170    1
    27   168   167    2
    28   159   160    1
    29   155   154    1
    30   167   166    1
    31   167   175   am
    32   175   176    1
    33   176   177    1
    34   170   171   ar
    35   170   172   ar
    36   160   161    1
    37    20    22   ar
    38    20    18   ar
    39    12    13    1
    40   171   173   ar
    41    22    21   ar
    42    18    17   ar
    43    13    14    1
    44    13    16    1
    45   136   135    2
    46   172   174   ar
    47   135   134    1
    48    21    19   ar
    49   173   174   ar
    50   177   184   am
    51   177   178    2
    52    17    19   ar
    53    17    16    1
    54   161   162    2
    55    14    23   am
    56    14    15    2
    57     1     2    1
    58    23    24    1
    59   163   162    1
    60   184   185    1
    61     4     3    2
    62   187   186    2
    63     3     2    1
    64     2     5    1
    65   162   164    1
    66    27    24    1
    67    24    25    1
    68   134   133    1
    69    93    92    1
    70    94    92    1
    71   186   185    1
    72   185   188    1
    73    86    84    1
    74   148   147    2
    75    92    91    1
    76   188   190    1
    77   188   189    1
    78     5     6    1
    79    85    84    1
    80    25    26    2
    81    25    28   am
    82    84    81    1
    83   147   146    1
    84     8     6   ar
    85     8    10   ar
    86     6     7   ar
    87    28    29    1
    88    59    58    2
    89    10    11   ar
    90     7     9   ar
    91    64    63    1
    92    64    65    1
    93    91    88    1
    94    61    60    1
    95    60    62    1
    96    60    57    1
    97    11     9   ar
    98    58    63   am
    99    58    57    1
   100    87    88    1
   101    87    82   am
   102    81    82    1
   103    81    80    1
   104   146   149    1
   105   146   145    1
   106    68    67    1
   107    68    69    1
   108    88    89    1
   109   110   108   ar
   110    82    83    2
   111    65    66    2
   112    31    30    2
   113    29    30    1
   114    29    32    1
   115   149   150    1
   116    57    56    1
   117    80    73   am
   118   119   117   ar
   119    48    46   am
   120   152   151    2
   121    69    71   am
   122    69    70    2
   123   116   117    1
   124   116   115    1
   125   108   107    1
   126   108   109   ar
   127   117   118   ar
   128    71    72    1
   129    89    90    2
   130   107   104    1
   131    56    51   am
   132    47    46    2
   133    46    45    1
   134    39    37    1
   135   150   151    1
   136    73    72    1
   137    73    74    2
   138   151   153   am
   139   115   112    1
   140    72    75    1
   141    52    51    2
   142    51    50    1
   143    75    76    1
   144   104   105    1
   145   104   103    1
   146    79    78    1
   147    33    34    1
   148    45    44    1
   149   106   105    2
   150   105   111   am
   151   126   125    1
   152    37    38    1
   153    37    34    1
   154   111   112    1
   155   112   113    1
   156    78    77    1
   157    76    77    1
   158    34    35    1
   159    53    50    1
   160    53    54    1
   161    50    49    1
   162   132   129    1
   163    44    41    1
   164   114   113    2
   165    54    55    1
   166   125   124    1
   167   125   127    1
   168   124   121    1
   169    49    55    1
   170    35    36    2
   171   128   129    1
   172   123   122    2
   173   129   130    1
   174    41    40    1
   175    41    42    1
   176   122   121    1
   177   121   120    1
   178   130   131    2
   179    42    43    2
