@<TRIPOS>MOLECULE
tmp/5va8D02.pdb
 79 77 0 0 0
SMALL
GASTEIGER

@<TRIPOS>ATOM
      1  N        -11.9040    2.3630  -41.9370 N.3    95  PRO95      -0.2103
      2  CA       -12.0350    1.6830  -43.2230 C.3    95  PRO95       0.1489
      3  C        -12.9310    0.4640  -43.1090 C.2    95  PRO95       0.2418
      4  O        -13.0820   -0.1050  -42.0180 O.2    95  PRO95      -0.2734
      5  CB       -10.5930    1.2720  -43.5400 C.3    95  PRO95       0.0282
      6  CG       -10.0080    1.0160  -42.1800 C.3    95  PRO95       0.0208
      7  CD       -10.5970    2.0960  -41.3050 C.3    95  PRO95       0.0893
      8  N        -13.5140    0.0220  -44.2180 N.am   96  PRO96      -0.2718
      9  CA       -14.3380   -1.1890  -44.2070 C.3    96  PRO96       0.1535
     10  C        -13.5030   -2.4600  -44.2480 C.2    96  PRO96       0.2599
     11  O        -12.3450   -2.4720  -44.6760 O.2    96  PRO96      -0.2715
     12  CB       -15.1580   -1.0520  -45.4930 C.3    96  PRO96       0.0310
     13  CG       -14.2200   -0.3450  -46.4160 C.3    96  PRO96       0.0237
     14  CD       -13.4790    0.6480  -45.5510 C.3    96  PRO96       0.0939
     15  N        -14.1300   -3.5500  -43.8170 N.am   97  GLY97      -0.1955
     16  CA       -13.5170   -4.8590  -43.9520 C.3    97  GLY97       0.1869
     17  C        -14.3260   -5.9030  -43.2170 C.2    97  GLY97       0.2309
     18  O        -15.2920   -5.5980  -42.5060 O.2    97  GLY97      -0.2863
     19  N        -10.4110   -9.8340  -40.4770 N.3   101  ASN101     -0.1225
     20  CA        -9.2080   -9.1600  -40.9400 C.3   101  ASN101      0.1785
     21  C         -8.8720   -7.9050  -40.1440 C.2   101  ASN101      0.2597
     22  O         -7.8790   -7.2450  -40.4610 O.2   101  ASN101     -0.2718
     23  CB        -9.3450   -8.7960  -42.4240 C.3   101  ASN101      0.1169
     24  CG        -9.4160  -10.0130  -43.3140 C.2   101  ASN101      0.2627
     25  OD1       -8.7570  -11.0170  -43.0620 O.2   101  ASN101     -0.2716
     26  ND2      -10.2260   -9.9320  -44.3650 N.am  101  ASN101     -0.0877
     27  N         -9.6720   -7.5460  -39.1340 N.am  102  PHE102     -0.1962
     28  CA        -9.3360   -6.4000  -38.2980 C.3   102  PHE102      0.1771
     29  C         -8.0990   -6.7220  -37.4650 C.2   102  PHE102      0.2620
     30  O         -8.0670   -7.7280  -36.7500 O.2   102  PHE102     -0.2715
     31  CB       -10.4970   -6.0350  -37.3650 C.3   102  PHE102      0.0574
     32  CG       -11.7430   -5.5460  -38.0680 C.ar  102  PHE102     -0.0200
     33  CD1      -11.7030   -5.0890  -39.3790 C.ar  102  PHE102     -0.0042
     34  CD2      -12.9640   -5.5340  -37.3950 C.ar  102  PHE102     -0.0042
     35  CE1      -12.8630   -4.6390  -40.0040 C.ar  102  PHE102     -0.0003
     36  CE2      -14.1230   -5.0920  -38.0150 C.ar  102  PHE102     -0.0003
     37  CZ       -14.0740   -4.6460  -39.3210 C.ar  102  PHE102     -0.0000
     38  N         -7.0840   -5.8700  -37.5580 N.am  103  THR103     -0.1951
     39  CA        -5.8910   -6.0110  -36.7400 C.3   103  THR103      0.1897
     40  C         -6.0420   -5.2270  -35.4410 C.2   103  THR103      0.2313
     41  O         -6.9490   -4.4060  -35.2780 O.2   103  THR103     -0.2863
     42  CB        -4.6610   -5.5160  -37.4890 C.3   103  THR103      0.1794
     43  OG1       -4.7880   -4.1030  -37.7050 O.3   103  THR103     -0.2208
     44  CG2       -4.5150   -6.2340  -38.8320 C.3   103  THR103      0.0378
     45  N         -3.9980   -2.8930  -34.5370 N.3   105  ASP105     -0.1225
     46  CA        -3.7860   -1.5050  -34.9350 C.3   105  ASP105      0.1805
     47  C         -5.0410   -0.8990  -35.5470 C.2   105  ASP105      0.2597
     48  O         -5.3030    0.2970  -35.3680 O.2   105  ASP105     -0.2718
     49  CB        -2.6210   -1.4070  -35.9190 C.3   105  ASP105      0.1424
     50  CG        -1.2830   -1.6870  -35.2730 C.2   105  ASP105      0.3668
     51  OD1       -1.1850   -1.6080  -34.0260 O.co2 105  ASP105     -0.2456
     52  OD2       -0.3220   -1.9750  -36.0200 O.co2 105  ASP105     -0.2456
     53  N         -5.8130   -1.6970  -36.3000 N.am  106  ASP106     -0.1974
     54  CA        -7.0870   -1.2130  -36.8280 C.3   106  ASP106      0.1709
     55  C         -7.9950   -0.7580  -35.6980 C.2   106  ASP106      0.2293
     56  O         -8.6070    0.3150  -35.7660 O.2   106  ASP106     -0.2864
     57  CB        -7.8050   -2.3070  -37.6300 C.3   106  ASP106      0.1436
     58  CG        -7.2430   -2.5010  -39.0280 C.2   106  ASP106      0.3671
     59  OD1       -6.6310   -1.5620  -39.5900 O.co2 106  ASP106     -0.2456
     60  OD2       -7.4570   -3.6060  -39.5710 O.co2 106  ASP106     -0.2456
     61  N         -6.7320    2.4490  -33.9960 N.3   109  ARG109     -0.1245
     62  CA        -6.9600    3.5980  -34.8700 C.3   109  ARG109      0.1563
     63  C         -8.4100    4.0600  -34.8090 C.2   109  ARG109      0.2260
     64  O         -8.6840    5.2610  -34.7000 O.2   109  ARG109     -0.2867
     65  CB        -6.5760    3.2600  -36.3080 C.3   109  ARG109      0.0307
     66  CG        -5.0940    3.4510  -36.6100 C.3   109  ARG109      0.0489
     67  CD        -4.8110    3.2930  -38.1030 C.3   109  ARG109      0.2205
     68  NE        -4.9810    1.9150  -38.5620 N.pl3 109  ARG109     -0.0865
     69  CZ        -4.0000    1.0180  -38.6030 C.cat 109  ARG109      0.5346
     70  NH1       -2.7810    1.3490  -38.2020 N.pl3 109  ARG109      0.1354
     71  NH2       -4.2380   -0.2130  -39.0400 N.pl3 109  ARG109      0.1354
     72  N        -15.5430   -1.7330  -37.4110 N.3   154  LEU154     -0.1245
     73  CA       -14.7330   -0.8150  -36.6140 C.3   154  LEU154      0.1561
     74  C        -15.5390    0.3990  -36.1680 C.2   154  LEU154      0.2260
     75  O        -15.3100    0.9300  -35.0730 O.2   154  LEU154     -0.2867
     76  CB       -13.4920   -0.3830  -37.4020 C.3   154  LEU154      0.0270
     77  CG       -12.4790   -1.4850  -37.7140 C.3   154  LEU154      0.0019
     78  CD1      -11.4710   -0.9910  -38.7500 C.3   154  LEU154      0.0001
     79  CD2      -11.7480   -1.9350  -36.4490 C.3   154  LEU154      0.0001
@<TRIPOS>BOND
     1    13    14    1
     2    13    12    1
     3    14     8    1
     4    12     9    1
     5    11    10    2
     6    26    24   am
     7    10     9    1
     8    10    15   am
     9     8     9    1
    10     8     3   am
    11    16    15    1
    12    16    17    1
    13     5     2    1
    14     5     6    1
    15    24    25    2
    16    24    23    1
    17     2     3    1
    18     2     1    1
    19    17    18    2
    20     3     4    2
    21    23    20    1
    22     6     7    1
    23     1     7    1
    24    20    19    1
    25    20    21    1
    26    22    21    2
    27    21    27   am
    28    35    33   ar
    29    35    37   ar
    30    59    58   ar
    31    60    58   ar
    32    33    32   ar
    33    37    36   ar
    34    27    28    1
    35    71    69    1
    36    58    57    1
    37    44    42    1
    38    78    77    1
    39    69    68    2
    40    69    70    1
    41    68    67    1
    42    28    29    1
    43    28    31    1
    44    67    66    1
    45    32    34   ar
    46    32    31    1
    47    36    34   ar
    48    77    76    1
    49    77    79    1
    50    43    42    1
    51    57    54    1
    52    38    29   am
    53    38    39    1
    54    42    39    1
    55    29    30    2
    56    72    73    1
    57    76    73    1
    58    54    53    1
    59    54    55    1
    60    39    40    1
    61    73    74    1
    62    66    65    1
    63    65    62    1
    64    53    47   am
    65    74    75    2
    66    52    50   ar
    67    49    50    1
    68    49    46    1
    69    56    55    2
    70    47    48    2
    71    47    46    1
    72    40    41    2
    73    50    51   ar
    74    46    45    1
    75    62    63    1
    76    62    61    1
    77    63    64    2
