@<TRIPOS>MOLECULE
tmp/5va8D01.pdb
 149 140 0 0 0
SMALL
GASTEIGER

@<TRIPOS>ATOM
      1  N        -13.7230    8.5590  -40.5610 N.3    93  GLY93      -0.1210
      2  CA       -14.2220    7.2760  -40.1240 C.3    93  GLY93       0.1940
      3  C        -13.3050    6.1240  -40.4860 C.2    93  GLY93       0.2453
      4  O        -12.3540    6.2740  -41.2610 O.2    93  GLY93      -0.2732
      5  N        -13.5780    4.9430  -39.9390 N.am   94  PRO94      -0.2728
      6  CA       -12.6610    3.8080  -40.1300 C.3    94  PRO94       0.1401
      7  C        -12.8830    3.1280  -41.4680 C.2    94  PRO94       0.2269
      8  O        -13.9370    3.2910  -42.1010 O.2    94  PRO94      -0.2865
      9  CB       -13.0000    2.8720  -38.9570 C.3    94  PRO94       0.0296
     10  CG       -14.3860    3.2250  -38.5740 C.3    94  PRO94       0.0237
     11  CD       -14.6030    4.6740  -38.9170 C.3    94  PRO94       0.0939
     12  N        -21.7290   10.9420  -34.9200 N.3   141  THR141     -0.1203
     13  CA       -21.4200    9.5180  -34.8520 C.3   141  THR141      0.1994
     14  C        -21.8950    8.8140  -36.1200 C.2   141  THR141      0.2619
     15  O        -21.3550    9.0880  -37.1940 O.2   141  THR141     -0.2717
     16  CB       -21.9950    8.8830  -33.5750 C.3   141  THR141      0.1784
     17  OG1      -23.4220    8.9920  -33.5450 O.3   141  THR141     -0.2211
     18  CG2      -21.4340    9.6010  -32.3490 C.3   141  THR141      0.0376
     19  N        -22.8840    7.9250  -36.0250 N.am  142  SER142     -0.1937
     20  CA       -23.2880    7.1010  -37.1610 C.3   142  SER142      0.2055
     21  C        -24.5520    6.3330  -36.8120 C.2   142  SER142      0.2644
     22  O        -24.8050    6.0380  -35.6410 O.2   142  SER142     -0.2714
     23  CB       -22.1900    6.0980  -37.5470 C.3   142  SER142      0.2130
     24  OG       -22.6020    5.3180  -38.6640 O.3   142  SER142     -0.2179
     25  N        -25.3140    5.9730  -37.8510 N.am  143  SER143     -0.1935
     26  CA       -26.3890    5.0020  -37.6800 C.3   143  SER143      0.2055
     27  C        -25.8620    3.6600  -37.1980 C.2   143  SER143      0.2643
     28  O        -26.6490    2.8360  -36.7060 O.2   143  SER143     -0.2714
     29  CB       -27.1500    4.8180  -38.9960 C.3   143  SER143      0.2130
     30  OG       -26.3700    4.0960  -39.9300 O.3   143  SER143     -0.2179
     31  N        -24.5430    3.4350  -37.3090 N.am  144  SER144     -0.1949
     32  CA       -23.9390    2.1660  -36.9230 C.3   144  SER144      0.1924
     33  C        -24.1420    1.8470  -35.4480 C.2   144  SER144      0.2314
     34  O        -24.0310    0.6800  -35.0650 O.2   144  SER144     -0.2863
     35  CB       -22.4400    2.1750  -37.2340 C.3   144  SER144      0.2116
     36  OG       -21.7610    3.0760  -36.3780 O.3   144  SER144     -0.2180
     37  N        -23.5000   -1.7690  -39.3360 N.3   149  ILE149     -0.1245
     38  CA       -23.2740   -1.7350  -40.7770 C.3   149  ILE149      0.1561
     39  C        -22.3270   -2.8730  -41.1270 C.2   149  ILE149      0.2260
     40  O        -21.2590   -3.0050  -40.5190 O.2   149  ILE149     -0.2867
     41  CB       -22.7120   -0.3670  -41.2030 C.3   149  ILE149      0.0252
     42  CG1      -23.7370    0.7250  -40.8610 C.3   149  ILE149      0.0019
     43  CG2      -22.3570   -0.3430  -42.6970 C.3   149  ILE149      0.0019
     44  CD1      -23.2220    2.1430  -41.0350 C.3   149  ILE149      0.0001
     45  N        -18.6190   -2.2780  -41.6810 N.3   152  LEU152     -0.1245
     46  CA       -18.0110   -1.2300  -40.8650 C.3   152  LEU152      0.1561
     47  C        -17.9760   -1.6230  -39.3900 C.2   152  LEU152      0.2260
     48  O        -18.3310   -0.8210  -38.5210 O.2   152  LEU152     -0.2867
     49  CB       -18.7450    0.1060  -41.0500 C.3   152  LEU152      0.0270
     50  CG       -18.4720    0.8350  -42.3760 C.3   152  LEU152      0.0019
     51  CD1      -19.2640    2.1310  -42.4420 C.3   152  LEU152      0.0001
     52  CD2      -16.9800    1.1110  -42.5630 C.3   152  LEU152      0.0001
     53  N        -16.4960    0.8340  -36.9870 N.3   155  SER155     -0.1217
     54  CA       -17.4110    1.8960  -36.5870 C.3   155  SER155      0.1889
     55  C        -18.4520    1.3780  -35.6060 C.2   155  SER155      0.2288
     56  O        -18.7060    2.0020  -34.5640 O.2   155  SER155     -0.2866
     57  CB       -18.0980    2.4780  -37.8220 C.3   155  SER155      0.2089
     58  OG       -19.0870    3.4220  -37.4370 O.3   155  SER155     -0.2183
     59  N        -17.7910    3.7230  -32.2870 N.3   159  ARG159     -0.1245
     60  CA       -18.7620    4.7830  -32.0390 C.3   159  ARG159      0.1563
     61  C        -19.7720    4.3840  -30.9790 C.2   159  ARG159      0.2260
     62  O        -20.2880    5.2490  -30.2580 O.2   159  ARG159     -0.2867
     63  CB       -19.4630    5.1620  -33.3360 C.3   159  ARG159      0.0307
     64  CG       -18.4680    5.5070  -34.4580 C.3   159  ARG159      0.0489
     65  CD       -19.2280    6.1720  -35.5750 C.3   159  ARG159      0.2205
     66  NE       -18.4820    6.3210  -36.8240 N.pl3 159  ARG159     -0.0865
     67  CZ       -17.8570    7.4340  -37.1970 C.cat 159  ARG159      0.5346
     68  NH1      -17.8150    8.4860  -36.3840 N.pl3 159  ARG159      0.1354
     69  NH2      -17.2600    7.4810  -38.3810 N.pl3 159  ARG159      0.1354
     70  N        -25.7000   10.2870  -38.4240 N.3   185  PRO185     -0.2102
     71  CA       -26.0870   10.3360  -39.8410 C.3   185  PRO185      0.1504
     72  C        -26.3980    8.9590  -40.3930 C.2   185  PRO185      0.2576
     73  O        -25.6940    7.9840  -40.1140 O.2   185  PRO185     -0.2718
     74  CB       -24.8610   10.9340  -40.5470 C.3   185  PRO185      0.0282
     75  CG       -23.8500   11.2280  -39.4880 C.3   185  PRO185      0.0208
     76  CD       -24.2670   10.5450  -38.2060 C.3   185  PRO185      0.0893
     77  N        -27.4660    8.8940  -41.1930 N.am  186  GLY186     -0.1943
     78  CA       -27.6120    7.8360  -42.1730 C.3   186  GLY186      0.2014
     79  C        -26.7070    8.1580  -43.3450 C.2   186  GLY186      0.2639
     80  O        -25.6130    8.6900  -43.1370 O.2   186  GLY186     -0.2714
     81  N        -27.1250    7.8890  -44.5720 N.am  187  ILE187     -0.1963
     82  CA       -26.2500    8.1570  -45.7110 C.3   187  ILE187      0.1727
     83  C        -26.4230    9.6090  -46.1360 C.2   187  ILE187      0.2616
     84  O        -27.5360   10.0670  -46.4270 O.2   187  ILE187     -0.2715
     85  CB       -26.4900    7.1860  -46.8740 C.3   187  ILE187      0.0290
     86  CG1      -25.5540    7.5470  -48.0360 C.3   187  ILE187      0.0022
     87  CG2      -27.9210    7.2140  -47.3210 C.3   187  ILE187      0.0023
     88  CD1      -25.4430    6.4740  -49.0970 C.3   187  ILE187      0.0001
     89  N        -25.3130   10.3420  -46.1430 N.am  188  PHE188     -0.1974
     90  CA       -25.2890   11.7470  -46.5030 C.3   188  PHE188      0.1639
     91  C        -24.3820   11.9310  -47.7010 C.2   188  PHE188      0.2290
     92  O        -23.3490   11.2650  -47.8160 O.2   188  PHE188     -0.2864
     93  CB       -24.8150   12.6050  -45.3240 C.3   188  PHE188      0.0560
     94  CG       -25.9390   13.0080  -44.4250 C.ar  188  PHE188     -0.0200
     95  CD1      -26.4680   14.2840  -44.4940 C.ar  188  PHE188     -0.0042
     96  CD2      -26.5110   12.0830  -43.5610 C.ar  188  PHE188     -0.0042
     97  CE1      -27.5460   14.6450  -43.6950 C.ar  188  PHE188     -0.0003
     98  CE2      -27.5850   12.4340  -42.7540 C.ar  188  PHE188     -0.0003
     99  CZ       -28.1050   13.7140  -42.8260 C.ar  188  PHE188     -0.0000
    100  N        -17.2330   11.1490  -48.9310 N.3   192  ARG192     -0.1231
    101  CA       -16.9490    9.8260  -48.3820 C.3   192  ARG192      0.1694
    102  C        -17.8040    8.7460  -49.0370 C.2   192  ARG192      0.2591
    103  O        -17.3320    7.6240  -49.2530 O.2   192  ARG192     -0.2718
    104  CB       -17.1550    9.8290  -46.8660 C.3   192  ARG192      0.0321
    105  CG       -16.2440   10.7900  -46.1370 C.3   192  ARG192      0.0489
    106  CD       -16.2140   10.5840  -44.6080 C.3   192  ARG192      0.2205
    107  NE       -16.5430    9.2340  -44.1820 N.pl3 192  ARG192     -0.0865
    108  CZ       -15.6360    8.3150  -43.8890 C.cat 192  ARG192      0.5346
    109  NH1      -14.3570    8.6140  -44.0040 N.pl3 192  ARG192      0.1354
    110  NH2      -16.0090    7.0900  -43.5040 N.pl3 192  ARG192      0.1354
    111  N        -19.0590    9.0550  -49.3700 N.am  193  ILE193     -0.1980
    112  CA       -19.8810    8.0360  -50.0170 C.3   193  ILE193      0.1595
    113  C        -19.6310    7.9810  -51.5200 C.2   193  ILE193      0.2287
    114  O        -19.9090    6.9510  -52.1470 O.2   193  ILE193     -0.2864
    115  CB       -21.3840    8.2320  -49.7490 C.3   193  ILE193      0.0276
    116  CG1      -21.9070    9.4920  -50.4330 C.3   193  ILE193      0.0022
    117  CG2      -21.6700    8.2580  -48.2500 C.3   193  ILE193      0.0022
    118  CD1      -23.4010    9.4820  -50.6340 C.3   193  ILE193      0.0001
    119  N        -17.3260    5.2210  -52.2390 N.3   196  THR196     -0.1218
    120  CA       -17.9840    3.9200  -52.2490 C.3   196  THR196      0.1862
    121  C        -18.7440    3.6990  -53.5520 C.2   196  THR196      0.2287
    122  O        -18.7480    2.5860  -54.0930 O.2   196  THR196     -0.2866
    123  CB       -18.9220    3.8070  -51.0470 C.3   196  THR196      0.1770
    124  OG1      -18.2200    4.2010  -49.8610 O.3   196  THR196     -0.2211
    125  CG2      -19.4150    2.3770  -50.8810 C.3   196  THR196      0.0375
    126  N        -29.2120    2.6190  -54.3830 N.3   215  ARG215     -0.1245
    127  CA       -29.1780    2.8150  -52.9390 C.3   215  ARG215      0.1563
    128  C        -30.3450    3.6760  -52.4650 C.2   215  ARG215      0.2260
    129  O        -30.9630    3.3780  -51.4340 O.2   215  ARG215     -0.2867
    130  CB       -27.8460    3.4400  -52.5310 C.3   215  ARG215      0.0307
    131  CG       -27.7600    3.7690  -51.0520 C.3   215  ARG215      0.0489
    132  CD       -27.9820    2.5320  -50.1950 C.3   215  ARG215      0.2205
    133  NE       -28.0670    2.8860  -48.7810 N.pl3 215  ARG215     -0.0865
    134  CZ       -27.0120    3.1400  -48.0150 C.cat 215  ARG215      0.5346
    135  NH1      -25.7870    3.0750  -48.5250 N.pl3 215  ARG215      0.1354
    136  NH2      -27.1820    3.4630  -46.7400 N.pl3 215  ARG215      0.1354
    137  N        -31.8320    9.9890  -40.8550 N.3   253  ASP253     -0.1239
    138  CA       -31.5200    8.9380  -41.8180 C.3   253  ASP253      0.1674
    139  C        -32.6460    8.6530  -42.8030 C.2   253  ASP253      0.2266
    140  O        -32.6130    7.6040  -43.4560 O.2   253  ASP253     -0.2867
    141  CB       -31.1170    7.6450  -41.0740 C.3   253  ASP253      0.1410
    142  CG       -32.3020    6.8940  -40.4760 C.2   253  ASP253      0.3668
    143  OD1      -33.3910    7.4780  -40.3050 O.co2 253  ASP253     -0.2456
    144  OD2      -32.1260    5.6950  -40.1820 O.co2 253  ASP253     -0.2456
    145  N        -34.3630    5.0830  -42.6610 N.3   256  ALA256     -0.1245
    146  CA       -33.7450    3.8380  -43.1280 C.3   256  ALA256      0.1562
    147  C        -33.6140    2.8040  -42.0130 C.2   256  ALA256      0.2260
    148  O        -33.8090    1.6020  -42.2450 O.2   256  ALA256     -0.2867
    149  CB       -32.3710    4.1230  -43.7410 C.3   256  ALA256      0.0290
@<TRIPOS>BOND
     1   126   127    1
     2   122   121    2
     3   121   120    1
     4   127   130    1
     5   127   128    1
     6   130   131    1
     7   128   129    2
     8   120   119    1
     9   120   123    1
    10   114   113    2
    11   113   112    1
    12   131   132    1
    13   123   125    1
    14   123   124    1
    15   118   116    1
    16   116   115    1
    17   132   133    1
    18   112   115    1
    19   112   111    1
    20   115   117    1
    21   111   102   am
    22   103   102    2
    23    88    86    1
    24   102   101    1
    25   100   101    1
    26   133   134    2
    27   135   134    1
    28   101   104    1
    29    86    85    1
    30   134   136    1
    31    92    91    2
    32    91    90    1
    33    87    85    1
    34    85    82    1
    35   104   105    1
    36    90    89    1
    37    90    93    1
    38    84    83    2
    39    89    83   am
    40   105   106    1
    41    83    82    1
    42    82    81    1
    43    93    94    1
    44   106   107    1
    45    81    79   am
    46    95    94   ar
    47    95    97   ar
    48    94    96   ar
    49   107   108    2
    50   109   108    1
    51   108   110    1
    52   149   146    1
    53    97    99   ar
    54    96    98   ar
    55   140   139    2
    56    79    80    2
    57    79    78    1
    58   146   145    1
    59   146   147    1
    60    99    98   ar
    61   139   138    1
    62    43    41    1
    63    52    50    1
    64    51    50    1
    65    50    49    1
    66   148   147    2
    67    78    77    1
    68     8     7    2
    69   138   141    1
    70   138   137    1
    71    45    46    1
    72     7     6    1
    73     4     3    2
    74    41    42    1
    75    41    38    1
    76    77    72   am
    77    39    38    1
    78    39    40    2
    79   141   142    1
    80    49    46    1
    81    44    42    1
    82    46    47    1
    83    38    37    1
    84     1     2    1
    85    74    71    1
    86    74    75    1
    87     3     2    1
    88     3     5   am
    89   142   143   ar
    90   142   144   ar
    91    72    73    2
    92    72    71    1
    93     6     5    1
    94     6     9    1
    95     5    11    1
    96    30    29    1
    97    71    70    1
    98    75    76    1
    99    47    48    2
   100    29    26    1
   101     9    10    1
   102    11    10    1
   103    24    23    1
   104    70    76    1
   105    69    67    1
   106    25    26    1
   107    25    21   am
   108    57    58    1
   109    57    54    1
   110    26    27    1
   111    23    20    1
   112    31    27   am
   113    31    32    1
   114    35    32    1
   115    35    36    1
   116    27    28    2
   117    67    66    2
   118    67    68    1
   119    15    14    2
   120    20    21    1
   121    20    19    1
   122    53    54    1
   123    32    33    1
   124    66    65    1
   125    21    22    2
   126    54    55    1
   127    14    19   am
   128    14    13    1
   129    55    56    2
   130    65    64    1
   131    33    34    2
   132    12    13    1
   133    13    16    1
   134    64    63    1
   135    16    17    1
   136    16    18    1
   137    63    60    1
   138    59    60    1
   139    60    61    1
   140    61    62    2
