@<TRIPOS>MOLECULE
tmp/5vadA01.pdb
 112 109 0 0 0
SMALL
GASTEIGER

@<TRIPOS>ATOM
      1  N        -38.2790   17.0820   26.8750 N.3   106  THR106     -0.1218
      2  CA       -39.0200   16.2240   25.9360 C.3   106  THR106      0.1862
      3  C        -39.3820   17.2170   24.8030 C.2   106  THR106      0.2287
      4  O        -39.4220   18.4510   25.0460 O.2   106  THR106     -0.2866
      5  CB       -40.2480   15.5080   26.6010 C.3   106  THR106      0.1770
      6  OG1      -40.9210   14.6520   25.6630 O.3   106  THR106     -0.2211
      7  CG2      -41.2680   16.5100   27.2020 C.3   106  THR106      0.0375
      8  N        -42.1280   17.5550   22.6300 N.3   108  GLU108     -0.1245
      9  CA       -43.4890   17.9530   22.2870 C.3   108  GLU108      0.1567
     10  C        -43.5790   19.4370   21.8260 C.2   108  GLU108      0.2260
     11  O        -44.0200   19.7100   20.7100 O.2   108  GLU108     -0.2867
     12  CB       -44.4740   17.6550   23.4410 C.3   108  GLU108      0.0388
     13  CG       -45.0060   16.2110   23.4550 C.3   108  GLU108      0.1160
     14  CD       -44.1380   15.2290   24.2400 C.2   108  GLU108      0.3649
     15  OE1      -43.0610   15.6200   24.7140 O.co2 108  GLU108     -0.2457
     16  OE2      -44.5400   14.0530   24.3820 O.co2 108  GLU108     -0.2457
     17  N        -33.4070   16.5760   32.2930 N.3   137  ARG137     -0.1245
     18  CA       -34.3740   16.8250   33.3820 C.3   137  ARG137      0.1563
     19  C        -33.6070   17.0800   34.6490 C.2   137  ARG137      0.2260
     20  O        -33.1130   16.1370   35.2930 O.2   137  ARG137     -0.2867
     21  CB       -35.3380   15.6610   33.5340 C.3   137  ARG137      0.0307
     22  CG       -36.2210   15.5100   32.3240 C.3   137  ARG137      0.0489
     23  CD       -37.1070   14.2890   32.3480 C.3   137  ARG137      0.2205
     24  NE       -37.6110   14.1280   31.0020 N.pl3 137  ARG137     -0.0865
     25  CZ       -38.6040   13.3350   30.6480 C.cat 137  ARG137      0.5346
     26  NH1      -39.2380   12.6060   31.5620 N.pl3 137  ARG137      0.1354
     27  NH2      -38.9470   13.2780   29.3560 N.pl3 137  ARG137      0.1354
     28  N        -32.0960    8.9470   24.6460 N.3   154  TRP154     -0.1241
     29  CA       -33.3250    8.2440   24.3490 C.3   154  TRP154      0.1605
     30  C        -33.6770    8.2930   22.8980 C.2   154  TRP154      0.2264
     31  O        -32.9530    8.9060   22.1030 O.2   154  TRP154     -0.2867
     32  CB       -34.4770    8.7650   25.1800 C.3   154  TRP154      0.0550
     33  CG       -35.1230   10.0710   24.7870 C.ar  154  TRP154      0.0003
     34  CD1      -34.7010   10.9890   23.8770 C.ar  154  TRP154      0.0946
     35  CD2      -36.2880   10.6120   25.3900 C.ar  154  TRP154      0.0152
     36  NE1      -35.5570   12.0780   23.8440 N.ar  154  TRP154     -0.2442
     37  CE2      -36.5350   11.8770   24.7780 C.ar  154  TRP154      0.0810
     38  CE3      -37.1580   10.1560   26.3980 C.ar  154  TRP154      0.0012
     39  CZ2      -37.6320   12.6820   25.1290 C.ar  154  TRP154      0.0191
     40  CZ3      -38.2470   10.9480   26.7470 C.ar  154  TRP154      0.0001
     41  CH2      -38.4760   12.2010   26.1080 C.ar  154  TRP154      0.0015
     42  N        -37.4340    9.4050   21.0680 N.3   156  GLU156     -0.1245
     43  CA       -38.7840    9.9070   21.2690 C.3   156  GLU156      0.1567
     44  C        -39.4650    9.8710   19.9070 C.2   156  GLU156      0.2260
     45  O        -38.9140   10.3900   18.9270 O.2   156  GLU156     -0.2867
     46  CB       -38.7860   11.2980   21.9140 C.3   156  GLU156      0.0388
     47  CG       -38.0070   12.3590   21.1310 C.3   156  GLU156      0.1160
     48  CD       -38.0970   13.7340   21.7940 C.2   156  GLU156      0.3649
     49  OE1      -39.2110   14.1700   22.2040 O.co2 156  GLU156     -0.2457
     50  OE2      -37.0530   14.3890   21.9250 O.co2 156  GLU156     -0.2457
     51  N        -43.1050   10.5590   17.8160 N.3   158  HIS158     -0.1241
     52  CA       -44.2060   11.4950   17.8760 C.3   158  HIS158      0.1621
     53  C        -44.9850   11.3040   16.6050 C.2   158  HIS158      0.2264
     54  O        -44.4990   11.6360   15.4960 O.2   158  HIS158     -0.2867
     55  CB       -43.6800   12.9230   17.9190 C.3   158  HIS158      0.0745
     56  CG       -43.0210   13.2850   19.2040 C.ar  158  HIS158      0.0817
     57  ND1      -43.6560   14.0300   20.1830 N.ar  158  HIS158     -0.2268
     58  CD2      -41.7740   13.0280   19.6690 C.ar  158  HIS158      0.1154
     59  CE1      -42.8280   14.2130   21.1940 C.ar  158  HIS158      0.1986
     60  NE2      -41.6810   13.6190   20.9100 N.ar  158  HIS158     -0.2212
     61  N        -48.9140   10.6760   31.9590 N.3   201  PHE201     -0.1241
     62  CA       -48.3060   11.8370   31.3350 C.3   201  PHE201      0.1605
     63  C        -49.2280   13.0530   31.3650 C.2   201  PHE201      0.2264
     64  O        -50.3930   12.9680   30.9720 O.2   201  PHE201     -0.2867
     65  CB       -47.9580   11.4960   29.9110 C.3   201  PHE201      0.0534
     66  CG       -46.9620   12.4180   29.2810 C.ar  201  PHE201     -0.0203
     67  CD1      -45.6310   12.4160   29.6860 C.ar  201  PHE201     -0.0042
     68  CD2      -47.3530   13.2760   28.2280 C.ar  201  PHE201     -0.0042
     69  CE1      -44.6940   13.2580   29.0580 C.ar  201  PHE201     -0.0003
     70  CE2      -46.4340   14.1290   27.6050 C.ar  201  PHE201     -0.0003
     71  CZ       -45.0870   14.1050   28.0010 C.ar  201  PHE201     -0.0000
     72  N        -42.4230    4.0720   27.9450 N.3   225  THR225     -0.1218
     73  CA       -43.7810    4.6090   27.9530 C.3   225  THR225      0.1862
     74  C        -44.2940    4.9130   26.5670 C.2   225  THR225      0.2287
     75  O        -43.5320    5.3990   25.6970 O.2   225  THR225     -0.2866
     76  CB       -43.8950    6.0020   28.6100 C.3   225  THR225      0.1770
     77  OG1      -42.6610    6.7350   28.4920 O.3   225  THR225     -0.2211
     78  CG2      -44.2970    5.9080   29.9530 C.3   225  THR225      0.0375
     79  N        -47.7140    6.9570   25.1870 N.3   227  HIS227     -0.1241
     80  CA       -48.8660    7.7980   25.5360 C.3   227  HIS227      0.1621
     81  C        -49.7380    8.0720   24.3520 C.2   227  HIS227      0.2264
     82  O        -49.2430    8.3680   23.2590 O.2   227  HIS227     -0.2867
     83  CB       -48.4470    9.1740   26.0390 C.3   227  HIS227      0.0745
     84  CG       -47.2140    9.1800   26.8870 C.ar  227  HIS227      0.0817
     85  ND1      -47.2150    8.7810   28.2090 N.ar  227  HIS227     -0.2268
     86  CD2      -45.9490    9.5820   26.6140 C.ar  227  HIS227      0.1154
     87  CE1      -45.9930    8.9010   28.7060 C.ar  227  HIS227      0.1986
     88  NE2      -45.2110    9.4040   27.7620 N.ar  227  HIS227     -0.2212
     89  N        -47.1410    9.9850   21.7660 N.3   257  SER257     -0.1202
     90  CA       -45.7140   10.0800   21.9600 C.3   257  SER257      0.2020
     91  C        -45.2020    8.8620   22.7710 C.2   257  SER257      0.2619
     92  O        -45.9090    8.2950   23.6000 O.2   257  SER257     -0.2717
     93  CB       -45.2880   11.4630   22.5290 C.3   257  SER257      0.2103
     94  OG       -45.3640   11.5730   23.9420 O.3   257  SER257     -0.2182
     95  N        -43.9790    8.4550   22.5010 N.am  258  TRP258     -0.1961
     96  CA       -43.4050    7.2590   23.1210 C.3   258  TRP258      0.1771
     97  C        -41.8820    7.3830   23.2660 C.2   258  TRP258      0.2620
     98  O        -41.1990    7.7990   22.3130 O.2   258  TRP258     -0.2715
     99  CB       -43.8130    5.9680   22.3450 C.3   258  TRP258      0.0590
    100  CG       -44.1490    6.1620   20.9290 C.ar  258  TRP258      0.0006
    101  CD1      -45.3450    6.5470   20.4310 C.ar  258  TRP258      0.0946
    102  CD2      -43.2710    5.9970   19.8000 C.ar  258  TRP258      0.0152
    103  NE1      -45.2820    6.6520   19.0350 N.ar  258  TRP258     -0.2442
    104  CE2      -44.0210    6.3080   18.6310 C.ar  258  TRP258      0.0810
    105  CE3      -41.9230    5.6120   19.6610 C.ar  258  TRP258      0.0012
    106  CZ2      -43.4700    6.2450   17.3350 C.ar  258  TRP258      0.0191
    107  CZ3      -41.3870    5.5440   18.4020 C.ar  258  TRP258      0.0001
    108  CH2      -42.1680    5.8680   17.2350 C.ar  258  TRP258      0.0015
    109  N        -41.3700    7.0540   24.4420 N.am  259  GLY259     -0.1954
    110  CA       -39.9370    7.0830   24.7130 C.3   259  GLY259      0.1869
    111  C        -39.3660    5.8520   25.4290 C.2   259  GLY259      0.2309
    112  O        -40.0890    5.1840   26.2020 O.2   259  GLY259     -0.2863
@<TRIPOS>BOND
     1    54    53    2
     2    53    52    1
     3   108   106   ar
     4   108   107   ar
     5   106   104   ar
     6    51    52    1
     7    52    55    1
     8    55    56    1
     9   107   105   ar
    10   104   103   ar
    11   104   102   ar
    12    45    44    2
    13   103   101   ar
    14    56    58   ar
    15    56    57   ar
    16   105   102   ar
    17    58    60   ar
    18   102   100   ar
    19    44    43    1
    20    57    59   ar
    21   101   100   ar
    22    11    10    2
    23    60    59   ar
    24   100    99    1
    25    42    43    1
    26    47    48    1
    27    47    46    1
    28    43    46    1
    29    89    90    1
    30    48    50   ar
    31    48    49   ar
    32    10     9    1
    33    90    93    1
    34    90    91    1
    35    31    30    2
    36     9     8    1
    37     9    12    1
    38    98    97    2
    39    99    96    1
    40    95    91   am
    41    95    96    1
    42    93    94    1
    43    91    92    2
    44    30    29    1
    45    96    97    1
    46    82    81    2
    47    97   109   am
    48    12    13    1
    49    13    14    1
    50    36    34   ar
    51    36    37   ar
    52    34    33   ar
    53    14    16   ar
    54    14    15   ar
    55    29    28    1
    56    29    32    1
    57    81    80    1
    58   109   110    1
    59   110   111    1
    60    37    39   ar
    61    37    35   ar
    62    33    32    1
    63    33    35   ar
    64     3     4    2
    65     3     2    1
    66    39    41   ar
    67    79    80    1
    68    35    38   ar
    69   111   112    2
    70    80    83    1
    71     6     5    1
    72    75    74    2
    73     2     5    1
    74     2     1    1
    75    83    84    1
    76    41    40   ar
    77    38    40   ar
    78    74    73    1
    79     5     7    1
    80    86    84   ar
    81    86    88   ar
    82    84    85   ar
    83    70    71   ar
    84    70    68   ar
    85    88    87   ar
    86    72    73    1
    87    73    76    1
    88    71    69   ar
    89    85    87   ar
    90    68    66   ar
    91    77    76    1
    92    76    78    1
    93    69    67   ar
    94    66    67   ar
    95    66    65    1
    96    27    25    1
    97    65    62    1
    98    25    24    2
    99    25    26    1
   100    64    63    2
   101    24    23    1
   102    62    63    1
   103    62    61    1
   104    17    18    1
   105    22    23    1
   106    22    21    1
   107    18    21    1
   108    18    19    1
   109    19    20    2
