@<TRIPOS>MOLECULE
tmp/5vadA00.pdb
 190 188 0 0 0
SMALL
GASTEIGER

@<TRIPOS>ATOM
      1  N        -33.4070   16.5760   32.2930 N.3   137  ARG137     -0.1245
      2  CA       -34.3740   16.8250   33.3820 C.3   137  ARG137      0.1563
      3  C        -33.6070   17.0800   34.6490 C.2   137  ARG137      0.2260
      4  O        -33.1130   16.1370   35.2930 O.2   137  ARG137     -0.2867
      5  CB       -35.3380   15.6610   33.5340 C.3   137  ARG137      0.0307
      6  CG       -36.2210   15.5100   32.3240 C.3   137  ARG137      0.0489
      7  CD       -37.1070   14.2890   32.3480 C.3   137  ARG137      0.2205
      8  NE       -37.6110   14.1280   31.0020 N.pl3 137  ARG137     -0.0865
      9  CZ       -38.6040   13.3350   30.6480 C.cat 137  ARG137      0.5346
     10  NH1      -39.2380   12.6060   31.5620 N.pl3 137  ARG137      0.1354
     11  NH2      -38.9470   13.2780   29.3560 N.pl3 137  ARG137      0.1354
     12  N        -33.4150   17.4060   37.8570 N.3   139  GLU139     -0.1245
     13  CA       -34.0410   17.0840   39.1550 C.3   139  GLU139      0.1567
     14  C        -32.9870   17.0430   40.2290 C.2   139  GLU139      0.2260
     15  O        -31.8800   16.5820   39.9920 O.2   139  GLU139     -0.2867
     16  CB       -34.7800   15.7450   39.1200 C.3   139  GLU139      0.0388
     17  CG       -36.0120   15.7320   38.2280 C.3   139  GLU139      0.1160
     18  CD       -37.2750   15.2240   38.9140 C.2   139  GLU139      0.3649
     19  OE1      -37.4060   15.3330   40.1610 O.co2 139  GLU139     -0.2457
     20  OE2      -38.1620   14.7160   38.1940 O.co2 139  GLU139     -0.2457
     21  N        -33.3570   15.4030   43.1010 N.3   141  LYS141     -0.1231
     22  CA       -33.4360   14.0360   43.6270 C.3   141  LYS141      0.1693
     23  C        -32.1290   13.2760   43.4940 C.2   141  LYS141      0.2592
     24  O        -31.2730   13.6370   42.6750 O.2   141  LYS141     -0.2718
     25  CB       -34.5230   13.2600   42.8730 C.3   141  LYS141      0.0285
     26  CG       -35.9430   13.6020   43.2920 C.3   141  LYS141      0.0035
     27  CD       -36.9550   12.6260   42.7090 C.3   141  LYS141      0.0206
     28  CE       -38.1630   12.5050   43.6350 C.3   141  LYS141      0.1093
     29  NZ       -39.0690   11.3760   43.2550 N.3   141  LYS141     -0.1314
     30  N        -31.9900   12.2120   44.2820 N.am  142  HIS142     -0.1962
     31  CA       -30.7590   11.4100   44.3250 C.3   142  HIS142      0.1772
     32  C        -30.4900   10.7040   42.9870 C.2   142  HIS142      0.2462
     33  O        -31.3270    9.9170   42.5170 O.2   142  HIS142     -0.2730
     34  CB       -30.7950   10.4040   45.4740 C.3   142  HIS142      0.0785
     35  CG       -29.5130    9.6510   45.6500 C.ar  142  HIS142      0.0821
     36  ND1      -29.3420    8.3570   45.1990 N.ar  142  HIS142     -0.2267
     37  CD2      -28.3340   10.0170   46.2110 C.ar  142  HIS142      0.1154
     38  CE1      -28.1150    7.9580   45.4820 C.ar  142  HIS142      0.1986
     39  NE2      -27.4830    8.9460   46.0950 N.ar  142  HIS142     -0.2212
     40  N        -29.3380   11.0100   42.3520 N.am  143  PRO143     -0.2727
     41  CA       -29.1190   10.4490   41.0260 C.3   143  PRO143      0.1402
     42  C        -28.5150    9.0470   41.1040 C.2   143  PRO143      0.2269
     43  O        -27.9990    8.6530   42.1490 O.2   143  PRO143     -0.2865
     44  CB       -28.1680   11.4570   40.3870 C.3   143  PRO143      0.0296
     45  CG       -27.3480   11.9800   41.5210 C.3   143  PRO143      0.0237
     46  CD       -28.2050   11.8670   42.7720 C.3   143  PRO143      0.0939
     47  N        -27.3070    5.3870   34.8100 N.3   146  PHE146     -0.1227
     48  CA       -28.3230    4.7740   33.9470 C.3   146  PHE146      0.1736
     49  C        -29.7900    5.0040   34.3840 C.2   146  PHE146      0.2595
     50  O        -30.6080    5.4730   33.5980 O.2   146  PHE146     -0.2718
     51  CB       -28.0890    3.2700   33.7460 C.3   146  PHE146      0.0547
     52  CG       -26.8230    2.9110   33.0390 C.ar  146  PHE146     -0.0202
     53  CD1      -26.6150    3.2880   31.7070 C.ar  146  PHE146     -0.0042
     54  CD2      -25.8560    2.1310   33.6800 C.ar  146  PHE146     -0.0042
     55  CE1      -25.4420    2.9330   31.0310 C.ar  146  PHE146     -0.0003
     56  CE2      -24.6930    1.7590   33.0060 C.ar  146  PHE146     -0.0003
     57  CZ       -24.4780    2.1830   31.6830 C.ar  146  PHE146     -0.0000
     58  N        -30.1360    4.6390   35.6190 N.am  147  LEU147     -0.1966
     59  CA       -31.5240    4.5760   36.0300 C.3   147  LEU147      0.1728
     60  C        -32.1540    5.9710   36.1570 C.2   147  LEU147      0.2616
     61  O        -33.3080    6.2160   35.6980 O.2   147  LEU147     -0.2715
     62  CB       -31.6400    3.7810   37.3440 C.3   147  LEU147      0.0311
     63  CG       -31.1060    2.3380   37.4080 C.3   147  LEU147      0.0022
     64  CD1      -31.4750    1.6700   38.7210 C.3   147  LEU147      0.0001
     65  CD2      -31.6550    1.4850   36.2830 C.3   147  LEU147      0.0001
     66  N        -31.3870    6.8920   36.7390 N.am  148  ARG148     -0.1963
     67  CA       -31.9370    8.1570   37.2120 C.3   148  ARG148      0.1729
     68  C        -30.8610    9.2240   37.0530 C.2   148  ARG148      0.2617
     69  O        -29.9880    9.3990   37.9240 O.2   148  ARG148     -0.2715
     70  CB       -32.3220    8.0210   38.6950 C.3   148  ARG148      0.0348
     71  CG       -33.6570    7.3660   38.9920 C.3   148  ARG148      0.0492
     72  CD       -34.0690    7.5070   40.4630 C.3   148  ARG148      0.2205
     73  NE       -33.1100    6.9130   41.3970 N.pl3 148  ARG148     -0.0865
     74  CZ       -33.2350    6.9020   42.7310 C.cat 148  ARG148      0.5346
     75  NH1      -34.2960    7.4430   43.3240 N.pl3 148  ARG148      0.1354
     76  NH2      -32.2940    6.3340   43.4890 N.pl3 148  ARG148      0.1354
     77  N        -30.8790    9.9190   35.9220 N.am  149  THR149     -0.1937
     78  CA       -29.7780   10.8470   35.6090 C.3   149  THR149      0.2028
     79  C        -30.3640   12.1390   35.0890 C.2   149  THR149      0.2642
     80  O        -31.5110   12.1550   34.6640 O.2   149  THR149     -0.2714
     81  CB       -28.7390   10.2330   34.6140 C.3   149  THR149      0.1808
     82  OG1      -29.2680   10.2050   33.2840 O.3   149  THR149     -0.2208
     83  CG2      -28.3690    8.7850   35.0030 C.3   149  THR149      0.0379
     84  N        -29.5900   13.2180   35.1070 N.am  150  ARG150     -0.1977
     85  CA       -30.1100   14.5220   34.6860 C.3   150  ARG150      0.1597
     86  C        -30.1920   14.6600   33.1680 C.2   150  ARG150      0.2287
     87  O        -31.1760   15.1960   32.6430 O.2   150  ARG150     -0.2864
     88  CB       -29.2760   15.6390   35.2740 C.3   150  ARG150      0.0334
     89  CG       -29.6730   15.9640   36.6840 C.3   150  ARG150      0.0492
     90  CD       -28.7110   16.9890   37.2460 C.3   150  ARG150      0.2205
     91  NE       -29.1760   17.4400   38.5440 N.pl3 150  ARG150     -0.0865
     92  CZ       -28.4380   18.0720   39.4500 C.cat 150  ARG150      0.5346
     93  NH1      -27.1560   18.3340   39.2180 N.pl3 150  ARG150      0.1354
     94  NH2      -28.9970   18.4430   40.5980 N.pl3 150  ARG150      0.1354
     95  N        -29.9770   12.2010   29.7030 N.3   152  PHE152     -0.1241
     96  CA       -29.9070   10.8560   29.2140 C.3   152  PHE152      0.1605
     97  C        -30.1770   10.8180   27.7220 C.2   152  PHE152      0.2264
     98  O        -30.8660   11.7040   27.1640 O.2   152  PHE152     -0.2867
     99  CB       -30.8970    9.9280   29.9860 C.3   152  PHE152      0.0534
    100  CG       -32.3180   10.4580   30.0950 C.ar  152  PHE152     -0.0203
    101  CD1      -32.7130   11.2630   31.1990 C.ar  152  PHE152     -0.0042
    102  CD2      -33.2760   10.1060   29.1600 C.ar  152  PHE152     -0.0042
    103  CE1      -34.0090   11.7350   31.3200 C.ar  152  PHE152     -0.0003
    104  CE2      -34.5850   10.5680   29.2760 C.ar  152  PHE152     -0.0003
    105  CZ       -34.9580   11.3800   30.3630 C.ar  152  PHE152     -0.0000
    106  N        -32.0960    8.9470   24.6460 N.3   154  TRP154     -0.1241
    107  CA       -33.3250    8.2440   24.3490 C.3   154  TRP154      0.1605
    108  C        -33.6770    8.2930   22.8980 C.2   154  TRP154      0.2264
    109  O        -32.9530    8.9060   22.1030 O.2   154  TRP154     -0.2867
    110  CB       -34.4770    8.7650   25.1800 C.3   154  TRP154      0.0550
    111  CG       -35.1230   10.0710   24.7870 C.ar  154  TRP154      0.0003
    112  CD1      -34.7010   10.9890   23.8770 C.ar  154  TRP154      0.0946
    113  CD2      -36.2880   10.6120   25.3900 C.ar  154  TRP154      0.0152
    114  NE1      -35.5570   12.0780   23.8440 N.ar  154  TRP154     -0.2442
    115  CE2      -36.5350   11.8770   24.7780 C.ar  154  TRP154      0.0810
    116  CE3      -37.1580   10.1560   26.3980 C.ar  154  TRP154      0.0012
    117  CZ2      -37.6320   12.6820   25.1290 C.ar  154  TRP154      0.0191
    118  CZ3      -38.2470   10.9480   26.7470 C.ar  154  TRP154      0.0001
    119  CH2      -38.4760   12.2010   26.1080 C.ar  154  TRP154      0.0015
    120  N        -40.0380    2.0340   35.9260 N.3   222  GLN222     -0.1231
    121  CA       -40.6040    2.2660   34.5890 C.3   222  GLN222      0.1698
    122  C        -39.5690    2.0850   33.4540 C.2   222  GLN222      0.2593
    123  O        -38.6210    2.8510   33.3290 O.2   222  GLN222     -0.2718
    124  CB       -41.3030    3.6230   34.4810 C.3   222  GLN222      0.0381
    125  CG       -41.8070    3.8620   33.0670 C.3   222  GLN222      0.0905
    126  CD       -42.6000    5.1300   32.9020 C.2   222  GLN222      0.2608
    127  OE1      -42.1670    6.2290   33.2490 O.2   222  GLN222     -0.2717
    128  NE2      -43.7690    4.9860   32.3370 N.am  222  GLN222     -0.0878
    129  N        -39.8060    1.0590   32.6420 N.am  223  GLY223     -0.1942
    130  CA       -38.9170    0.6510   31.5660 C.3   223  GLY223      0.2014
    131  C        -38.9970    1.4470   30.2880 C.2   223  GLY223      0.2639
    132  O        -38.0270    1.4980   29.5460 O.2   223  GLY223     -0.2714
    133  N        -40.1620    2.0560   30.0440 N.am  224  GLY224     -0.1939
    134  CA       -40.5060    2.8490   28.8410 C.3   224  GLY224      0.2014
    135  C        -41.9850    3.2160   28.8670 C.2   224  GLY224      0.2639
    136  O        -42.7320    2.6990   29.6980 O.2   224  GLY224     -0.2714
    137  N        -42.4230    4.0720   27.9450 N.am  225  THR225     -0.1950
    138  CA       -43.7810    4.6090   27.9530 C.3   225  THR225      0.1897
    139  C        -44.2940    4.9130   26.5670 C.2   225  THR225      0.2313
    140  O        -43.5320    5.3990   25.6970 O.2   225  THR225     -0.2863
    141  CB       -43.8950    6.0020   28.6100 C.3   225  THR225      0.1794
    142  OG1      -42.6610    6.7350   28.4920 O.3   225  THR225     -0.2208
    143  CG2      -44.2970    5.9080   29.9530 C.3   225  THR225      0.0378
    144  N        -47.7140    6.9570   25.1870 N.3   227  HIS227     -0.1241
    145  CA       -48.8660    7.7980   25.5360 C.3   227  HIS227      0.1621
    146  C        -49.7380    8.0720   24.3520 C.2   227  HIS227      0.2264
    147  O        -49.2430    8.3680   23.2590 O.2   227  HIS227     -0.2867
    148  CB       -48.4470    9.1740   26.0390 C.3   227  HIS227      0.0745
    149  CG       -47.2140    9.1800   26.8870 C.ar  227  HIS227      0.0817
    150  ND1      -47.2150    8.7810   28.2090 N.ar  227  HIS227     -0.2268
    151  CD2      -45.9490    9.5820   26.6140 C.ar  227  HIS227      0.1154
    152  CE1      -45.9930    8.9010   28.7060 C.ar  227  HIS227      0.1986
    153  NE2      -45.2110    9.4040   27.7620 N.ar  227  HIS227     -0.2212
    154  N        -41.3700    7.0540   24.4420 N.3   259  GLY259     -0.1210
    155  CA       -39.9370    7.0830   24.7130 C.3   259  GLY259      0.1956
    156  C        -39.3660    5.8520   25.4290 C.2   259  GLY259      0.2612
    157  O        -40.0890    5.1840   26.2020 O.2   259  GLY259     -0.2717
    158  N        -38.0800    5.5550   25.1580 N.am  260  LEU260     -0.1965
    159  CA       -37.2830    4.5220   25.8320 C.3   260  LEU260      0.1728
    160  C        -35.8580    5.0580   25.9440 C.2   260  LEU260      0.2617
    161  O        -35.3680    5.8200   25.0450 O.2   260  LEU260     -0.2715
    162  CB       -37.2690    3.2420   25.0090 C.3   260  LEU260      0.0311
    163  CG       -36.3990    2.0490   25.4440 C.3   260  LEU260      0.0022
    164  CD1      -37.2360    1.0460   26.2380 C.3   260  LEU260      0.0001
    165  CD2      -35.8840    1.3890   24.1820 C.3   260  LEU260      0.0001
    166  N        -35.1600    4.6670   27.0030 N.am  261  THR261     -0.1937
    167  CA       -33.8950    5.3150   27.3120 C.3   261  THR261      0.2028
    168  C        -32.8220    4.3170   27.6570 C.2   261  THR261      0.2643
    169  O        -33.0790    3.1160   27.7460 O.2   261  THR261     -0.2714
    170  CB       -34.0280    6.3050   28.5100 C.3   261  THR261      0.1808
    171  OG1      -34.0360    5.5610   29.7340 O.3   261  THR261     -0.2208
    172  CG2      -35.2890    7.1510   28.4140 C.3   261  THR261      0.0379
    173  N        -31.6270    4.8460   27.8930 N.am  262  THR262     -0.1936
    174  CA       -30.4900    4.1070   28.4160 C.3   262  THR262      0.2028
    175  C        -30.6670    3.5360   29.8350 C.2   262  THR262      0.2642
    176  O        -29.8000    2.8080   30.3040 O.2   262  THR262     -0.2714
    177  CB       -29.1930    4.9870   28.3320 C.3   262  THR262      0.1808
    178  OG1      -29.4970    6.3260   28.7370 O.3   262  THR262     -0.2208
    179  CG2      -28.7090    5.0740   26.8970 C.3   262  THR262      0.0379
    180  N        -31.7380    3.9030   30.5400 N.am  263  ARG263     -0.1977
    181  CA       -32.1820    3.1650   31.7300 C.3   263  ARG263      0.1597
    182  C        -32.1870    1.6400   31.5180 C.2   263  ARG263      0.2287
    183  O        -31.8650    0.8820   32.4360 O.2   263  ARG263     -0.2864
    184  CB       -33.5940    3.6170   32.1100 C.3   263  ARG263      0.0334
    185  CG       -34.2070    2.9280   33.3250 C.3   263  ARG263      0.0492
    186  CD       -35.6070    3.4820   33.6070 C.3   263  ARG263      0.2205
    187  NE       -35.4920    4.7440   34.3520 N.pl3 263  ARG263     -0.0865
    188  CZ       -36.4960    5.4850   34.8130 C.cat 263  ARG263      0.5346
    189  NH1      -37.7850    5.1260   34.6620 N.pl3 263  ARG263      0.1354
    190  NH2      -36.1740    6.6050   35.4470 N.pl3 263  ARG263      0.1354
@<TRIPOS>BOND
     1   109   108    2
     2   108   107    1
     3   147   146    2
     4   114   112   ar
     5   114   115   ar
     6   112   111   ar
     7   165   163    1
     8   107   106    1
     9   107   110    1
    10   146   145    1
    11   154   155    1
    12   155   156    1
    13   115   117   ar
    14   115   113   ar
    15   111   110    1
    16   111   113   ar
    17   162   163    1
    18   162   159    1
    19   161   160    2
    20   117   119   ar
    21   158   156   am
    22   158   159    1
    23   144   145    1
    24   113   116   ar
    25   156   157    2
    26   163   164    1
    27   145   148    1
    28   140   139    2
    29   159   160    1
    30   160   166   am
    31   148   149    1
    32   119   118   ar
    33   116   118   ar
    34   139   138    1
    35   151   149   ar
    36   151   153   ar
    37   149   150   ar
    38   179   177    1
    39   166   167    1
    40    98    97    2
    41   167   168    1
    42   167   170    1
    43   168   169    2
    44   168   173   am
    45    97    96    1
    46   153   152   ar
    47   173   174    1
    48   137   138    1
    49   137   135   am
    50   138   141    1
    51   150   152   ar
    52   177   174    1
    53   177   178    1
    54   172   170    1
    55   174   175    1
    56   142   141    1
    57   170   171    1
    58   141   143    1
    59   134   135    1
    60   134   133    1
    61   135   136    2
    62   102   104   ar
    63   102   100   ar
    64    96    95    1
    65    96    99    1
    66   104   105   ar
    67    11     9    1
    68   132   131    2
    69   175   176    2
    70   175   180   am
    71    99   100    1
    72   133   131   am
    73   100   101   ar
    74   131   130    1
    75   105   103   ar
    76   180   181    1
    77     9     8    2
    78     9    10    1
    79     8     7    1
    80    55    57   ar
    81    55    53   ar
    82   101   103   ar
    83   182   181    1
    84   182   183    2
    85   130   129    1
    86    57    56   ar
    87    53    52   ar
    88   181   184    1
    89   184   185    1
    90     1     2    1
    91     6     7    1
    92     6     5    1
    93   128   126   am
    94   129   122   am
    95    87    86    2
    96   126   125    1
    97   126   127    2
    98    56    54   ar
    99    52    54   ar
   100    52    51    1
   101   125   124    1
   102    86    85    1
   103    82    81    1
   104   185   186    1
   105   123   122    2
   106     2     5    1
   107     2     3    1
   108   122   121    1
   109    50    49    2
   110   186   187    1
   111    51    48    1
   112    48    49    1
   113    48    47    1
   114   187   188    2
   115    49    58   am
   116   124   121    1
   117   121   120    1
   118    81    83    1
   119    81    78    1
   120     3     4    2
   121   189   188    1
   122    80    79    2
   123    85    84    1
   124    85    88    1
   125   188   190    1
   126    79    84   am
   127    79    78    1
   128    88    89    1
   129    78    77    1
   130    58    59    1
   131    61    60    2
   132    77    68   am
   133    59    60    1
   134    59    62    1
   135    60    66   am
   136    65    63    1
   137    89    90    1
   138    66    67    1
   139    68    67    1
   140    68    69    2
   141    67    70    1
   142    90    91    1
   143    62    63    1
   144    63    64    1
   145    12    13    1
   146    20    18   ar
   147    17    18    1
   148    17    16    1
   149    91    92    2
   150    70    71    1
   151    18    19   ar
   152    71    72    1
   153    16    13    1
   154    13    14    1
   155    93    92    1
   156    92    94    1
   157    15    14    2
   158    44    41    1
   159    44    45    1
   160    72    73    1
   161    41    42    1
   162    41    40    1
   163    42    43    2
   164    73    74    2
   165    45    46    1
   166    40    46    1
   167    40    32   am
   168    33    32    2
   169    24    23    2
   170    27    26    1
   171    27    28    1
   172    74    75    1
   173    74    76    1
   174    25    26    1
   175    25    22    1
   176    32    31    1
   177    21    22    1
   178    29    28    1
   179    23    22    1
   180    23    30   am
   181    30    31    1
   182    31    34    1
   183    36    38   ar
   184    36    35   ar
   185    34    35    1
   186    38    39   ar
   187    35    37   ar
   188    39    37   ar
