@<TRIPOS>MOLECULE
tmp/5vahB00.pdb
 74 68 0 0 0
SMALL
GASTEIGER

@<TRIPOS>ATOM
      1  N        -23.0920  -33.1340   84.1220 N.3     1  ARG1       -0.1245
      2  CA       -24.0580  -32.0850   84.4550 C.3     1  ARG1        0.1563
      3  C        -24.9900  -32.5790   85.5590 C.2     1  ARG1        0.2260
      4  O        -26.0960  -33.0640   85.2820 O.2     1  ARG1       -0.2867
      5  CB       -24.8410  -31.6590   83.2020 C.3     1  ARG1        0.0307
      6  CG       -24.0390  -30.8850   82.1830 C.3     1  ARG1        0.0489
      7  CD       -24.8630  -30.3580   81.0650 C.3     1  ARG1        0.2205
      8  NE       -25.7320  -29.2330   81.4150 N.pl3   1  ARG1       -0.0865
      9  CZ       -27.0230  -29.3020   81.8010 C.cat   1  ARG1        0.5346
     10  NH1      -27.6710  -30.5010   81.9190 N.pl3   1  ARG1        0.1354
     11  NH2      -27.7020  -28.1620   81.9980 N.pl3   1  ARG1        0.1354
     12  N        -27.3010  -32.6330   89.2320 N.3     3  LEU3       -0.1245
     13  CA       -28.3380  -31.9930   90.0380 C.3     3  LEU3        0.1561
     14  C        -27.6620  -31.4400   91.2950 C.2     3  LEU3        0.2260
     15  O        -26.7910  -32.1000   91.8810 O.2     3  LEU3       -0.2867
     16  CB       -29.3800  -33.0370   90.4960 C.3     3  LEU3        0.0270
     17  CG       -30.8040  -32.9750   89.9670 C.3     3  LEU3        0.0019
     18  CD1      -31.6310  -34.0680   90.5920 C.3     3  LEU3        0.0001
     19  CD2      -31.4510  -31.6400   90.2470 C.3     3  LEU3        0.0001
     20  N        -29.1330  -25.6630   87.6690 N.3   103  MET103     -0.1245
     21  CA       -29.0780  -27.1160   87.9760 C.3   103  MET103      0.1570
     22  C        -29.5360  -27.4970   89.4020 C.2   103  MET103      0.2261
     23  O        -29.3910  -28.6460   89.8120 O.2   103  MET103     -0.2867
     24  CB       -27.6940  -27.7520   87.6450 C.3   103  MET103      0.0387
     25  CG       -27.3980  -27.9030   86.1550 C.3   103  MET103      0.0595
     26  SD       -28.6470  -28.8030   85.2000 S.3   103  MET103     -0.1393
     27  CE       -28.5070  -30.4640   85.9100 C.3   103  MET103      0.0692
     28  N        -37.0350  -25.8800   84.6240 N.3   171  LYS171     -0.1245
     29  CA       -37.5280  -26.9500   83.7540 C.3   171  LYS171      0.1561
     30  C        -38.0960  -28.1040   84.5230 C.2   171  LYS171      0.2260
     31  O        -37.5530  -28.5180   85.5510 O.2   171  LYS171     -0.2867
     32  CB       -36.4260  -27.4550   82.7900 C.3   171  LYS171      0.0271
     33  CG       -36.9090  -28.2920   81.6240 C.3   171  LYS171      0.0035
     34  CD       -35.7600  -28.7910   80.7510 C.3   171  LYS171      0.0206
     35  CE       -36.2530  -29.8630   79.8080 C.3   171  LYS171      0.1093
     36  NZ       -35.1760  -30.3990   78.9420 N.3   171  LYS171     -0.1314
     37  N        -38.9070  -31.9860   84.3970 N.3   173  VAL173     -0.1245
     38  CA       -38.4340  -33.2260   83.7940 C.3   173  VAL173      0.1561
     39  C        -39.0730  -34.4230   84.4800 C.2   173  VAL173      0.2260
     40  O        -39.4800  -34.3460   85.6420 O.2   173  VAL173     -0.2867
     41  CB       -36.8860  -33.3290   83.7960 C.3   173  VAL173      0.0252
     42  CG1      -36.2510  -32.3130   82.8410 C.3   173  VAL173      0.0019
     43  CG2      -36.3210  -33.1940   85.2130 C.3   173  VAL173      0.0019
     44  N        -38.2770  -38.3360   85.4730 N.3   175  TYR175     -0.1241
     45  CA       -37.2320  -39.3370   85.7020 C.3   175  TYR175      0.1605
     46  C        -37.7880  -40.5960   86.3740 C.2   175  TYR175      0.2264
     47  O        -38.7500  -40.5400   87.1610 O.2   175  TYR175     -0.2867
     48  CB       -36.0940  -38.7510   86.5740 C.3   175  TYR175      0.0534
     49  CG       -35.0160  -38.0390   85.7860 C.ar  175  TYR175     -0.0201
     50  CD1      -35.1280  -36.6910   85.4820 C.ar  175  TYR175     -0.0009
     51  CD2      -33.8890  -38.7180   85.3390 C.ar  175  TYR175     -0.0009
     52  CE1      -34.1470  -36.0300   84.7460 C.ar  175  TYR175      0.0417
     53  CE2      -32.8890  -38.0640   84.6280 C.ar  175  TYR175      0.0417
     54  CZ       -33.0320  -36.7210   84.3150 C.ar  175  TYR175      0.1957
     55  OH       -32.0800  -36.0540   83.5860 O.3   175  TYR175     -0.2866
     56  N        -36.3130  -28.2540   88.0870 N.3   186  VAL186     -0.1231
     57  CA       -34.8990  -27.8720   88.2020 C.3   186  VAL186      0.1692
     58  C        -34.6500  -26.4650   87.5920 C.2   186  VAL186      0.2592
     59  O        -35.1790  -26.1540   86.5190 O.2   186  VAL186     -0.2718
     60  CB       -33.9470  -28.9510   87.5870 C.3   186  VAL186      0.0266
     61  CG1      -32.4810  -28.6450   87.8920 C.3   186  VAL186      0.0020
     62  CG2      -34.2910  -30.3540   88.0600 C.3   186  VAL186      0.0020
     63  N        -33.8200  -25.6360   88.2720 N.am  187  ALA187     -0.1966
     64  CA       -33.4220  -24.3190   87.7810 C.3   187  ALA187      0.1728
     65  C        -32.5600  -24.5190   86.5230 C.2   187  ALA187      0.2616
     66  O        -31.6760  -25.3760   86.5410 O.2   187  ALA187     -0.2715
     67  CB       -32.6040  -23.6010   88.8420 C.3   187  ALA187      0.0334
     68  N        -32.8350  -23.7590   85.4380 N.am  188  THR188     -0.1951
     69  CA       -32.0910  -23.8410   84.1790 C.3   188  THR188      0.1897
     70  C        -31.1110  -22.6940   83.9420 C.2   188  THR188      0.2313
     71  O        -30.4620  -22.6230   82.8990 O.2   188  THR188     -0.2863
     72  CB       -32.9840  -24.2080   82.9620 C.3   188  THR188      0.1794
     73  OG1      -34.0080  -23.2390   82.7820 O.3   188  THR188     -0.2208
     74  CG2      -33.5520  -25.6080   83.0600 C.3   188  THR188      0.0378
@<TRIPOS>BOND
     1    36    35    1
     2    35    34    1
     3    34    33    1
     4     7     8    1
     5     7     6    1
     6     8     9    2
     7    33    32    1
     8     9    10    1
     9     9    11    1
    10     6     5    1
    11    73    72    1
    12    32    29    1
    13    42    41    1
    14    71    70    2
    15    72    74    1
    16    72    69    1
    17     5     2    1
    18    55    54    1
    19    29    30    1
    20    29    28    1
    21    38    41    1
    22    38    37    1
    23    38    39    1
    24    41    43    1
    25    70    69    1
    26     1     2    1
    27    69    68    1
    28    54    53   ar
    29    54    52   ar
    30     2     3    1
    31    39    40    2
    32    30    31    2
    33    53    51   ar
    34    52    50   ar
    35    26    27    1
    36    26    25    1
    37     4     3    2
    38    51    49   ar
    39    68    65   am
    40    44    45    1
    41    50    49   ar
    42    45    46    1
    43    45    48    1
    44    49    48    1
    45    25    24    1
    46    46    47    2
    47    59    58    2
    48    65    66    2
    49    65    64    1
    50    60    61    1
    51    60    62    1
    52    60    57    1
    53    58    57    1
    54    58    63   am
    55    24    21    1
    56    20    21    1
    57    64    63    1
    58    64    67    1
    59    21    22    1
    60    56    57    1
    61    12    13    1
    62    22    23    2
    63    17    19    1
    64    17    16    1
    65    17    18    1
    66    13    16    1
    67    13    14    1
    68    14    15    2
