@<TRIPOS>MOLECULE
tmp/5valA00.pdb
 209 200 0 0 0
SMALL
GASTEIGER

@<TRIPOS>ATOM
      1  N        -30.6680   44.1430  -15.1120 N.3    18  ILE18      -0.1245
      2  CA       -31.3760   43.4250  -14.0440 C.3    18  ILE18       0.1561
      3  C        -31.8360   44.3610  -12.9090 C.2    18  ILE18       0.2260
      4  O        -32.7170   44.0150  -12.1200 O.2    18  ILE18      -0.2867
      5  CB       -30.5540   42.2020  -13.5260 C.3    18  ILE18       0.0252
      6  CG1      -29.2710   42.6230  -12.7680 C.3    18  ILE18       0.0019
      7  CG2      -30.2280   41.2360  -14.6830 C.3    18  ILE18       0.0019
      8  CD1      -28.6980   41.5620  -11.8070 C.3    18  ILE18       0.0001
      9  N        -26.3660   51.8360   -6.1390 N.3    22  SER22      -0.1217
     10  CA       -25.4380   52.9280   -5.8280 C.3    22  SER22       0.1889
     11  C        -25.3720   53.9730   -6.9400 C.2    22  SER22       0.2288
     12  O        -26.3460   54.6830   -7.1820 O.2    22  SER22      -0.2866
     13  CB       -24.0400   52.3690   -5.5450 C.3    22  SER22       0.2089
     14  OG       -24.0520   51.4370   -4.4800 O.3    22  SER22      -0.2183
     15  N        -27.2080   47.8040  -12.9570 N.3    26  VAL26      -0.1245
     16  CA       -26.6770   46.4520  -12.8520 C.3    26  VAL26       0.1561
     17  C        -27.1320   45.6260  -14.0480 C.2    26  VAL26       0.2260
     18  O        -28.3090   45.6480  -14.4230 O.2    26  VAL26      -0.2867
     19  CB       -26.9620   45.7680  -11.4800 C.3    26  VAL26       0.0252
     20  CG1      -26.2440   44.4110  -11.3740 C.3    26  VAL26       0.0019
     21  CG2      -26.5470   46.6820  -10.3230 C.3    26  VAL26       0.0019
     22  N        -21.9090   39.7480  -12.9150 N.3    36  ALA36      -0.1231
     23  CA       -22.8280   40.8540  -12.7240 C.3    36  ALA36       0.1694
     24  C        -21.9390   42.0960  -12.8830 C.2    36  ALA36       0.2592
     25  O        -20.7890   42.1040  -12.4490 O.2    36  ALA36      -0.2718
     26  CB       -23.4550   40.8110  -11.3410 C.3    36  ALA36       0.0304
     27  N        -22.4310   43.0990  -13.5710 N.am   37  VAL37      -0.1966
     28  CA       -21.6490   44.3060  -13.8190 C.3    37  VAL37       0.1727
     29  C        -22.4700   45.5020  -13.3560 C.2    37  VAL37       0.2616
     30  O        -23.6000   45.6710  -13.8200 O.2    37  VAL37      -0.2715
     31  CB       -21.2470   44.4440  -15.3280 C.3    37  VAL37       0.0290
     32  CG1      -20.4120   45.7050  -15.5710 C.3    37  VAL37       0.0023
     33  CG2      -20.5100   43.2020  -15.8380 C.3    37  VAL37       0.0023
     34  N        -21.9050   46.3280  -12.4600 N.am   38  LYS38      -0.1977
     35  CA       -22.5320   47.5660  -12.0220 C.3    38  LYS38       0.1596
     36  C        -21.7980   48.6330  -12.7700 C.2    38  LYS38       0.2287
     37  O        -20.5910   48.8070  -12.5720 O.2    38  LYS38      -0.2864
     38  CB       -22.4170   47.7830  -10.5130 C.3    38  LYS38       0.0298
     39  CG       -23.0720   49.0850  -10.0560 C.3    38  LYS38       0.0038
     40  CD       -22.8740   49.2760   -8.5610 C.3    38  LYS38       0.0206
     41  CE       -23.9520   48.5930   -7.7700 C.3    38  LYS38       0.1093
     42  NZ       -23.7300   48.7470   -6.3130 N.3    38  LYS38      -0.1314
     43  N        -16.7320   52.1410   -3.1140 N.3    56  GLU56      -0.1245
     44  CA       -17.2930   50.8000   -3.2400 C.3    56  GLU56       0.1567
     45  C        -16.2110   49.7730   -3.6020 C.2    56  GLU56       0.2260
     46  O        -16.1440   48.7250   -2.9770 O.2    56  GLU56      -0.2867
     47  CB       -18.4560   50.7980   -4.2310 C.3    56  GLU56       0.0388
     48  CG       -19.2240   49.4860   -4.2610 C.3    56  GLU56       0.1160
     49  CD       -20.5770   49.5890   -4.9210 C.2    56  GLU56       0.3649
     50  OE1      -21.1480   48.5320   -5.2560 O.co2  56  GLU56      -0.2457
     51  OE2      -21.0840   50.7230   -5.0830 O.co2  56  GLU56      -0.2457
     52  N        -13.8750   49.0490   -0.5150 N.3    59  VAL59      -0.1231
     53  CA       -14.4200   48.1080    0.4740 C.3    59  VAL59       0.1692
     54  C        -14.4610   46.6700   -0.1190 C.2    59  VAL59       0.2591
     55  O        -13.9880   45.7190    0.5200 O.2    59  VAL59      -0.2718
     56  CB       -15.7810   48.5810    1.0580 C.3    59  VAL59       0.0266
     57  CG1      -16.4790   47.4760    1.8460 C.3    59  VAL59       0.0020
     58  CG2      -15.6030   49.8240    1.9190 C.3    59  VAL59       0.0020
     59  N        -15.0220   46.5260   -1.3310 N.am   60  LEU60      -0.1980
     60  CA       -15.1560   45.2260   -2.0000 C.3    60  LEU60       0.1596
     61  C        -13.8370   44.4900   -2.1820 C.2    60  LEU60       0.2287
     62  O        -13.7750   43.2800   -1.9670 O.2    60  LEU60      -0.2864
     63  CB       -15.8540   45.3870   -3.3710 C.3    60  LEU60       0.0297
     64  CG       -17.3820   45.4900   -3.3300 C.3    60  LEU60       0.0022
     65  CD1      -17.9280   45.8520   -4.6950 C.3    60  LEU60       0.0001
     66  CD2      -18.0170   44.1660   -2.8730 C.3    60  LEU60       0.0001
     67  N        -12.3690   42.0640    0.4720 N.3    63  THR63      -0.1218
     68  CA       -13.1530   40.8810    0.8430 C.3    63  THR63       0.1862
     69  C        -12.8400   39.6530   -0.0050 C.2    63  THR63       0.2287
     70  O        -12.8930   39.7110   -1.2430 O.2    63  THR63      -0.2866
     71  CB       -14.6880   41.1970    0.8550 C.3    63  THR63       0.1770
     72  OG1      -15.1100   41.5230   -0.4650 O.3    63  THR63      -0.2211
     73  CG2      -15.0600   42.3450    1.8220 C.3    63  THR63       0.0375
     74  N        -19.4250   36.2790    1.2630 N.3    68  ILE68      -0.1231
     75  CA       -19.4460   37.6410    0.7170 C.3    68  ILE68       0.1692
     76  C        -19.4440   37.5090   -0.7980 C.2    68  ILE68       0.2591
     77  O        -18.6040   36.7940   -1.3460 O.2    68  ILE68      -0.2718
     78  CB       -18.2600   38.5460    1.2120 C.3    68  ILE68       0.0266
     79  CG1      -18.1290   38.5660    2.7740 C.3    68  ILE68       0.0019
     80  CG2      -18.3520   39.9960    0.6090 C.3    68  ILE68       0.0020
     81  CD1      -19.4290   38.9940    3.5850 C.3    68  ILE68       0.0001
     82  N        -20.3540   38.2300   -1.4700 N.am   69  LEU69      -0.1980
     83  CA       -20.4180   38.2850   -2.9300 C.3    69  LEU69       0.1596
     84  C        -18.9950   38.5320   -3.4600 C.2    69  LEU69       0.2287
     85  O        -18.2880   39.4260   -2.9640 O.2    69  LEU69      -0.2864
     86  CB       -21.3550   39.4260   -3.3690 C.3    69  LEU69       0.0297
     87  CG       -21.4920   39.6640   -4.8690 C.3    69  LEU69       0.0022
     88  CD1      -22.1190   38.4820   -5.5600 C.3    69  LEU69       0.0001
     89  CD2      -22.2880   40.9180   -5.1250 C.3    69  LEU69       0.0001
     90  N        -18.0350   47.9550  -11.9410 N.3    82  ILE82      -0.1245
     91  CA       -17.6390   47.0100  -10.9100 C.3    82  ILE82       0.1561
     92  C        -18.1770   45.6430  -11.3220 C.2    82  ILE82       0.2260
     93  O        -19.3760   45.5190  -11.5630 O.2    82  ILE82      -0.2867
     94  CB       -18.1340   47.4230   -9.4990 C.3    82  ILE82       0.0252
     95  CG1      -17.5320   48.7900   -9.0830 C.3    82  ILE82       0.0019
     96  CG2      -17.8390   46.2900   -8.4730 C.3    82  ILE82       0.0019
     97  CD1      -18.0280   49.3410   -7.8060 C.3    82  ILE82       0.0001
     98  N        -18.6450   41.5060  -10.4150 N.3    84  THR84      -0.1203
     99  CA       -18.7300   40.4920   -9.3750 C.3    84  THR84       0.1994
    100  C        -19.0810   39.1660  -10.0420 C.2    84  THR84       0.2618
    101  O        -19.4270   39.1450  -11.2270 O.2    84  THR84      -0.2717
    102  CB       -19.7850   40.8410   -8.2730 C.3    84  THR84       0.1784
    103  OG1      -21.1190   40.6380   -8.7660 O.3    84  THR84      -0.2211
    104  CG2      -19.6040   42.2200   -7.6850 C.3    84  THR84       0.0376
    105  N        -19.0520   38.0680   -9.2660 N.am   85  GLN85      -0.1965
    106  CA       -19.4770   36.7580   -9.7550 C.3    85  GLN85       0.1733
    107  C        -20.9830   36.8450  -10.0880 C.2    85  GLN85       0.2616
    108  O        -21.6700   37.7450   -9.5920 O.2    85  GLN85      -0.2715
    109  CB       -19.2520   35.6920   -8.6610 C.3    85  GLN85       0.0408
    110  CG       -20.1380   35.8860   -7.4020 C.3    85  GLN85       0.0908
    111  CD       -19.9220   34.8660   -6.3180 C.2    85  GLN85       0.2608
    112  OE1      -19.7750   35.2120   -5.1390 O.2    85  GLN85      -0.2717
    113  NE2      -19.9000   33.5890   -6.6830 N.am   85  GLN85      -0.0878
    114  N        -21.4770   35.9220  -10.9140 N.am   86  TRP86      -0.1960
    115  CA       -22.8970   35.8170  -11.2270 C.3    86  TRP86       0.1771
    116  C        -23.4030   34.5920  -10.4880 C.2    86  TRP86       0.2619
    117  O        -22.8230   33.5120  -10.6130 O.2    86  TRP86      -0.2715
    118  CB       -23.1560   35.6650  -12.7330 C.3    86  TRP86       0.0590
    119  CG       -24.6240   35.4960  -13.0420 C.ar   86  TRP86       0.0006
    120  CD1      -25.2990   34.3190  -13.1960 C.ar   86  TRP86       0.0946
    121  CD2      -25.6110   36.5280  -13.0610 C.ar   86  TRP86       0.0152
    122  NE1      -26.6360   34.5600  -13.3550 N.ar   86  TRP86      -0.2442
    123  CE2      -26.8630   35.9080  -13.2620 C.ar   86  TRP86       0.0810
    124  CE3      -25.5650   37.9210  -12.8970 C.ar   86  TRP86       0.0012
    125  CZ2      -28.0570   36.6360  -13.3560 C.ar   86  TRP86       0.0191
    126  CZ3      -26.7530   38.6380  -12.9770 C.ar   86  TRP86       0.0001
    127  CH2      -27.9780   37.9960  -13.1870 C.ar   86  TRP86       0.0015
    128  N        -24.4850   34.7560   -9.7270 N.am   87  CYS87      -0.1968
    129  CA       -25.0880   33.6680   -8.9740 C.3    87  CYS87       0.1712
    130  C        -26.4650   33.3700   -9.4860 C.2    87  CYS87       0.2296
    131  O        -27.3000   34.2780   -9.5790 O.2    87  CYS87      -0.2864
    132  CB       -25.1380   33.9760   -7.4760 C.3    87  CYS87       0.0983
    133  SG       -23.5420   34.3470   -6.7130 S.3    87  CYS87      -0.0798
    134  N        -16.8850   40.7040    7.8410 N.3   122  LEU122     -0.1245
    135  CA       -16.9270   42.1480    7.5580 C.3   122  LEU122      0.1561
    136  C        -16.5130   42.9940    8.7710 C.2   122  LEU122      0.2260
    137  O        -15.6830   43.8860    8.6330 O.2   122  LEU122     -0.2867
    138  CB       -18.3250   42.5890    7.0830 C.3   122  LEU122      0.0270
    139  CG       -18.8430   42.0120    5.7690 C.3   122  LEU122      0.0019
    140  CD1      -20.2600   42.5430    5.4910 C.3   122  LEU122      0.0001
    141  CD2      -17.8920   42.3260    4.5890 C.3   122  LEU122      0.0001
    142  N        -15.6240   46.6870    8.5240 N.3   127  ILE127     -0.1231
    143  CA       -16.6130   47.0530    7.5190 C.3   127  ILE127      0.1692
    144  C        -17.9990   46.9450    8.1650 C.2   127  ILE127      0.2592
    145  O        -18.3800   45.8670    8.6140 O.2   127  ILE127     -0.2718
    146  CB       -16.5160   46.1970    6.2230 C.3   127  ILE127      0.0266
    147  CG1      -15.1400   46.3340    5.5420 C.3   127  ILE127      0.0019
    148  CG2      -17.6900   46.5100    5.2540 C.3   127  ILE127      0.0020
    149  CD1      -14.7780   45.1370    4.6060 C.3   127  ILE127      0.0001
    150  N        -18.7230   48.0710    8.2100 N.am  128  ILE128     -0.1966
    151  CA       -20.0940   48.1770    8.6940 C.3   128  ILE128      0.1727
    152  C        -20.9190   48.1460    7.4090 C.2   128  ILE128      0.2616
    153  O        -20.6600   48.9270    6.4850 O.2   128  ILE128     -0.2715
    154  CB       -20.3700   49.4640    9.5530 C.3   128  ILE128      0.0290
    155  CG1      -19.4670   49.5180   10.7990 C.3   128  ILE128      0.0022
    156  CG2      -21.8680   49.5620    9.9700 C.3   128  ILE128      0.0023
    157  CD1      -19.3430   50.9160   11.4610 C.3   128  ILE128      0.0001
    158  N        -21.8690   47.2100    7.3300 N.am  129  HIS129     -0.1973
    159  CA       -22.7230   47.0600    6.1540 C.3   129  HIS129      0.1656
    160  C        -23.5970   48.3020    5.9640 C.2   129  HIS129      0.2291
    161  O        -23.5950   48.8740    4.8720 O.2   129  HIS129     -0.2864
    162  CB       -23.5860   45.7850    6.2460 C.3   129  HIS129      0.0771
    163  CG       -24.2260   45.4200    4.9440 C.ar  129  HIS129      0.0820
    164  ND1      -25.1600   46.2500    4.3430 N.ar  129  HIS129     -0.2267
    165  CD2      -24.0430   44.3250    4.1670 C.ar  129  HIS129      0.1154
    166  CE1      -25.5090   45.6390    3.2230 C.ar  129  HIS129      0.1986
    167  NE2      -24.8650   44.4750    3.0770 N.ar  129  HIS129     -0.2212
    168  N        -28.1430   36.9840   -0.5450 N.3   138  PHE138     -0.1241
    169  CA       -28.4010   36.2050   -1.7430 C.3   138  PHE138      0.1605
    170  C        -28.2180   34.7060   -1.5040 C.2   138  PHE138      0.2264
    171  O        -27.2470   34.2930   -0.8780 O.2   138  PHE138     -0.2867
    172  CB       -27.5620   36.7140   -2.9280 C.3   138  PHE138      0.0534
    173  CG       -28.0900   36.2390   -4.2570 C.ar  138  PHE138     -0.0203
    174  CD1      -27.7140   35.0070   -4.7670 C.ar  138  PHE138     -0.0042
    175  CD2      -29.0030   37.0050   -4.9800 C.ar  138  PHE138     -0.0042
    176  CE1      -28.2340   34.5480   -5.9810 C.ar  138  PHE138     -0.0003
    177  CE2      -29.5170   36.5470   -6.1960 C.ar  138  PHE138     -0.0003
    178  CZ       -29.1050   35.3350   -6.7010 C.ar  138  PHE138     -0.0000
    179  N        -23.5130   37.6870    0.9930 N.3   147  ILE147     -0.1231
    180  CA       -23.9070   39.0180    1.4400 C.3   147  ILE147      0.1692
    181  C        -23.3380   40.0220    0.4330 C.2   147  ILE147      0.2593
    182  O        -22.1890   39.9020   -0.0010 O.2   147  ILE147     -0.2718
    183  CB       -23.4600   39.3450    2.9000 C.3   147  ILE147      0.0266
    184  CG1      -24.0640   38.3490    3.9180 C.3   147  ILE147      0.0019
    185  CG2      -23.7930   40.8220    3.2870 C.3   147  ILE147      0.0020
    186  CD1      -23.3490   38.3520    5.2340 C.3   147  ILE147      0.0001
    187  N        -24.1670   40.9850    0.0700 N.am  148  GLY148     -0.1942
    188  CA       -23.7980   42.0880   -0.7980 C.3   148  GLY148      0.2014
    189  C        -24.6090   43.3110   -0.4180 C.2   148  GLY148      0.2639
    190  O        -25.3280   43.2930    0.5820 O.2   148  GLY148     -0.2714
    191  N        -24.4750   44.3880   -1.1860 N.am  149  ASP149     -0.1957
    192  CA       -25.3090   45.5820   -1.0590 C.3   149  ASP149      0.1840
    193  C        -25.8220   45.7370   -2.4760 C.2   149  ASP149      0.2622
    194  O        -25.1430   46.3280   -3.3220 O.2   149  ASP149     -0.2715
    195  CB       -24.5430   46.8080   -0.5530 C.3   149  ASP149      0.1450
    196  CG       -25.4430   47.9550   -0.0830 C.2   149  ASP149      0.3671
    197  OD1      -26.5290   48.1400   -0.6680 O.co2 149  ASP149     -0.2456
    198  OD2      -25.0390   48.6810    0.8510 O.co2 149  ASP149     -0.2456
    199  N        -26.9690   45.0700   -2.7490 N.am  150  PHE150     -0.1974
    200  CA       -27.6130   44.9130   -4.0520 C.3   150  PHE150      0.1639
    201  C        -28.4960   46.0620   -4.5470 C.2   150  PHE150      0.2290
    202  O        -29.0320   45.9480   -5.6610 O.2   150  PHE150     -0.2864
    203  CB       -28.4260   43.6090   -4.0800 C.3   150  PHE150      0.0560
    204  CG       -27.5920   42.3680   -3.8590 C.ar  150  PHE150     -0.0200
    205  CD1      -26.5650   42.0310   -4.7360 C.ar  150  PHE150     -0.0042
    206  CD2      -27.8290   41.5380   -2.7780 C.ar  150  PHE150     -0.0042
    207  CE1      -25.8020   40.8780   -4.5350 C.ar  150  PHE150     -0.0003
    208  CE2      -27.0400   40.4110   -2.5550 C.ar  150  PHE150     -0.0003
    209  CZ       -26.0280   40.0890   -3.4350 C.ar  150  PHE150     -0.0000
@<TRIPOS>BOND
     1    33    31    1
     2    32    31    1
     3    31    28    1
     4     1     2    1
     5     7     5    1
     6    18    17    2
     7    17    16    1
     8     2     5    1
     9     2     3    1
    10    30    29    2
    11    28    27    1
    12    28    29    1
    13    27    24   am
    14     5     6    1
    15    29    34   am
    16   125   123   ar
    17   125   127   ar
    18   122   123   ar
    19   122   120   ar
    20   123   121   ar
    21   120   119   ar
    22   127   126   ar
    23   121   119   ar
    24   121   124   ar
    25   119   118    1
    26   126   124   ar
    27    15    16    1
    28    22    23    1
    29     3     4    2
    30    24    23    1
    31    24    25    2
    32    16    19    1
    33    36    37    2
    34    36    35    1
    35     6     8    1
    36   118   115    1
    37    23    26    1
    38    34    35    1
    39    35    38    1
    40    90    91    1
    41    93    92    2
    42    19    20    1
    43    19    21    1
    44    92    91    1
    45   101   100    2
    46   115   114    1
    47   115   116    1
    48   114   107   am
    49    91    94    1
    50   117   116    2
    51    38    39    1
    52   116   128   am
    53    98    99    1
    54   107   106    1
    55   107   108    2
    56    39    40    1
    57   100    99    1
    58   100   105   am
    59   106   105    1
    60   106   109    1
    61   128   129    1
    62   131   130    2
    63    94    95    1
    64    94    96    1
    65   130   129    1
    66    99   102    1
    67    95    97    1
    68   129   132    1
    69   103   102    1
    70   109   110    1
    71    40    41    1
    72   102   104    1
    73    41    42    1
    74   132   133    1
    75   110   111    1
    76    12    11    2
    77    11    10    1
    78   178   177   ar
    79   178   176   ar
    80   113   111   am
    81   111   112    2
    82   177   175   ar
    83     9    10    1
    84   176   174   ar
    85    10    13    1
    86   202   201    2
    87    88    87    1
    88    13    14    1
    89    50    49   ar
    90    89    87    1
    91    51    49   ar
    92   175   173   ar
    93    49    48    1
    94    87    86    1
    95   174   173   ar
    96   205   207   ar
    97   205   204   ar
    98    65    64    1
    99   201   200    1
   100   207   209   ar
   101    48    47    1
   102   173   172    1
   103    47    44    1
   104   203   200    1
   105   203   204    1
   106   200   199    1
   107   204   206   ar
   108    45    44    1
   109    45    46    2
   110    84    85    2
   111    84    83    1
   112   209   208   ar
   113    63    64    1
   114    63    60    1
   115    86    83    1
   116    64    66    1
   117   194   193    2
   118    44    43    1
   119    83    82    1
   120   172   169    1
   121   206   208   ar
   122   199   193   am
   123   193   192    1
   124    61    60    1
   125    61    62    2
   126    60    59    1
   127   169   170    1
   128   169   168    1
   129   170   171    2
   130    82    76   am
   131    77    76    2
   132    59    54   am
   133    70    69    2
   134   191   192    1
   135   191   189   am
   136   192   195    1
   137   188   189    1
   138   188   187    1
   139    76    75    1
   140   197   196   ar
   141   195   196    1
   142    52    53    1
   143    72    71    1
   144   189   190    2
   145    54    53    1
   146    54    55    2
   147   196   198   ar
   148    69    68    1
   149   182   181    2
   150   187   181   am
   151   181   180    1
   152    67    68    1
   153    53    56    1
   154    80    78    1
   155    75    78    1
   156    75    74    1
   157    68    71    1
   158    71    73    1
   159   179   180    1
   160    56    57    1
   161    56    58    1
   162    78    79    1
   163   180   183    1
   164    79    81    1
   165   183   185    1
   166   183   184    1
   167   167   166   ar
   168   167   165   ar
   169   166   164   ar
   170   184   186    1
   171   165   163   ar
   172   164   163   ar
   173   141   139    1
   174   149   147    1
   175   161   160    2
   176   163   162    1
   177   148   146    1
   178   140   139    1
   179   147   146    1
   180   139   138    1
   181   160   159    1
   182   159   162    1
   183   159   158    1
   184   146   143    1
   185   153   152    2
   186   138   135    1
   187   158   152   am
   188   152   151    1
   189   143   144    1
   190   143   142    1
   191   135   134    1
   192   135   136    1
   193   144   150   am
   194   144   145    2
   195   150   151    1
   196   137   136    2
   197   151   154    1
   198   154   156    1
   199   154   155    1
   200   155   157    1
