@<TRIPOS>MOLECULE
tmp/5valB00.pdb
 209 200 0 0 0
SMALL
GASTEIGER

@<TRIPOS>ATOM
      1  N         -4.5500   16.8660    6.5960 N.3    16  ILE16      -0.1245
      2  CA        -5.2050   16.2080    5.4630 C.3    16  ILE16       0.1561
      3  C         -4.2010   15.7900    4.3700 C.2    16  ILE16       0.2260
      4  O         -4.5100   14.9290    3.5410 O.2    16  ILE16      -0.2867
      5  CB        -6.4010   17.0440    4.9060 C.3    16  ILE16       0.0252
      6  CG1       -5.9430   18.3600    4.2300 C.3    16  ILE16       0.0019
      7  CG2       -7.4510   17.3140    6.0070 C.3    16  ILE16       0.0019
      8  CD1       -6.9670   18.9800    3.2470 C.3    16  ILE16       0.0001
      9  N          2.9780   22.0690   -1.7720 N.3    20  SER20      -0.1217
     10  CA         4.1830   22.4740   -2.5110 C.3    20  SER20       0.1889
     11  C          5.3180   22.4680   -1.4920 C.2    20  SER20       0.2288
     12  O          6.3130   21.7510   -1.6360 O.2    20  SER20      -0.2866
     13  CB         3.9840   23.8840   -3.0690 C.3    20  SER20       0.2089
     14  OG         3.3980   24.7380   -2.0970 O.3    20  SER20      -0.2183
     15  N         -0.8030   20.4320    4.8170 N.3    24  VAL24      -0.1245
     16  CA        -2.1530   20.9650    4.6670 C.3    24  VAL24       0.1561
     17  C         -3.0430   20.4460    5.7890 C.2    24  VAL24       0.2260
     18  O         -3.0270   19.2580    6.1090 O.2    24  VAL24      -0.2867
     19  CB        -2.7620   20.7550    3.2490 C.3    24  VAL24       0.0252
     20  CG1       -4.1080   21.4820    3.1110 C.3    24  VAL24       0.0019
     21  CG2       -1.7930   21.2340    2.1740 C.3    24  VAL24       0.0019
     22  N         -8.9030   25.7250    4.5880 N.3    34  ALA34      -0.1231
     23  CA        -7.7890   24.8150    4.4030 C.3    34  ALA34       0.1694
     24  C         -6.5640   25.7030    4.6800 C.2    34  ALA34       0.2592
     25  O         -6.5420   26.8810    4.3080 O.2    34  ALA34      -0.2718
     26  CB        -7.7520   24.2640    2.9900 C.3    34  ALA34       0.0304
     27  N         -5.5950   25.1730    5.4110 N.am   35  VAL35      -0.1966
     28  CA        -4.4030   25.9420    5.7590 C.3    35  VAL35       0.1727
     29  C         -3.1750   25.1440    5.3180 C.2    35  VAL35       0.2616
     30  O         -3.0310   23.9950    5.7290 O.2    35  VAL35      -0.2715
     31  CB        -4.3500   26.2680    7.2950 C.3    35  VAL35       0.0290
     32  CG1       -3.1090   27.0940    7.6560 C.3    35  VAL35       0.0023
     33  CG2       -5.6250   26.9640    7.7750 C.3    35  VAL35       0.0023
     34  N         -2.3060   25.7450    4.4870 N.am   36  LYS36      -0.1977
     35  CA        -1.0470   25.1220    4.1020 C.3    36  LYS36       0.1596
     36  C          0.0180   25.8130    4.9490 C.2    36  LYS36       0.2287
     37  O          0.2020   27.0240    4.8440 O.2    36  LYS36      -0.2864
     38  CB        -0.7410   25.2560    2.6010 C.3    36  LYS36       0.0298
     39  CG         0.5340   24.5060    2.1920 C.3    36  LYS36       0.0038
     40  CD         1.0190   24.8790    0.7890 C.3    36  LYS36       0.0206
     41  CE         0.0520   24.5270   -0.3000 C.3    36  LYS36       0.1093
     42  NZ         0.6220   24.7830   -1.6360 N.3    36  LYS36      -0.1314
     43  N          3.8850   31.7890   -4.3790 N.3    54  GLU54      -0.1245
     44  CA         2.5370   31.2180   -4.2960 C.3    54  GLU54       0.1567
     45  C          1.5020   32.2790   -3.8760 C.2    54  GLU54       0.2260
     46  O          0.4700   32.3850   -4.5290 O.2    54  GLU54      -0.2867
     47  CB         2.5170   30.0110   -3.3680 C.3    54  GLU54       0.0388
     48  CG         1.2590   29.1870   -3.5230 C.3    54  GLU54       0.1160
     49  CD         1.2760   27.8490   -2.8190 C.2    54  GLU54       0.3649
     50  OE1        2.3710   27.3570   -2.4670 O.co2  54  GLU54      -0.2457
     51  OE2        0.1760   27.2850   -2.6270 O.co2  54  GLU54      -0.2457
     52  N          0.8650   34.7960   -6.8290 N.3    57  VAL57      -0.1231
     53  CA        -0.0140   34.2900   -7.8740 C.3    57  VAL57       0.1692
     54  C         -1.4620   34.1700   -7.3650 C.2    57  VAL57       0.2591
     55  O         -2.3720   34.6680   -8.0330 O.2    57  VAL57      -0.2718
     56  CB         0.5100   32.9950   -8.5730 C.3    57  VAL57       0.0266
     57  CG1        0.5530   31.7810   -7.6570 C.3    57  VAL57       0.0020
     58  CG2       -0.3230   32.6780   -9.7880 C.3    57  VAL57       0.0020
     59  N         -1.6680   33.5630   -6.1780 N.am   58  LEU58      -0.1980
     60  CA        -2.9900   33.3680   -5.5850 C.3    58  LEU58       0.1596
     61  C         -3.7750   34.6670   -5.3750 C.2    58  LEU58       0.2287
     62  O         -4.9680   34.6930   -5.6630 O.2    58  LEU58      -0.2864
     63  CB        -2.8940   32.5740   -4.2760 C.3    58  LEU58       0.0297
     64  CG        -2.7410   31.0480   -4.4150 C.3    58  LEU58       0.0022
     65  CD1       -2.4310   30.4260   -3.0690 C.3    58  LEU58       0.0001
     66  CD2       -4.0150   30.3940   -5.0100 C.3    58  LEU58       0.0001
     67  N         -6.0260   36.1410   -8.1550 N.3    61  THR61      -0.1218
     68  CA        -7.1590   35.3340   -8.6240 C.3    61  THR61       0.1862
     69  C         -8.4350   35.5890   -7.8340 C.2    61  THR61       0.2287
     70  O         -8.4540   35.4690   -6.5970 O.2    61  THR61      -0.2866
     71  CB        -6.8090   33.8140   -8.6800 C.3    61  THR61       0.1770
     72  OG1       -6.5700   33.3360   -7.3580 O.3    61  THR61      -0.2211
     73  CG2       -5.6060   33.5000   -9.5810 C.3    61  THR61       0.0375
     74  N        -11.7110   29.0850   -9.6310 N.3    66  ILE66      -0.1231
     75  CA       -10.3810   29.0310   -8.9900 C.3    66  ILE66       0.1692
     76  C        -10.6090   28.9560   -7.4840 C.2    66  ILE66       0.2591
     77  O        -11.3610   29.7610   -6.9280 O.2    66  ILE66      -0.2718
     78  CB        -9.4500   30.2360   -9.3690 C.3    66  ILE66       0.0266
     79  CG1       -9.3410   30.4560  -10.9170 C.3    66  ILE66       0.0019
     80  CG2       -8.0470   30.1180   -8.7110 C.3    66  ILE66       0.0020
     81  CD1       -8.8710   29.1790  -11.7830 C.3    66  ILE66       0.0001
     82  N         -9.9400   28.0100   -6.8250 N.am   67  LEU67      -0.1980
     83  CA        -9.9660   27.8620   -5.3680 C.3    67  LEU67       0.1596
     84  C         -9.7430   29.2490   -4.7490 C.2    67  LEU67       0.2287
     85  O         -8.8400   29.9870   -5.1710 O.2    67  LEU67      -0.2864
     86  CB        -8.8230   26.9100   -4.9320 C.3    67  LEU67       0.0297
     87  CG        -8.6490   26.6920   -3.4230 C.3    67  LEU67       0.0022
     88  CD1       -9.8620   26.0020   -2.8420 C.3    67  LEU67       0.0001
     89  CD2       -7.3670   25.9030   -3.1390 C.3    67  LEU67       0.0001
     90  N         -0.7120   29.7370    4.2640 N.3    80  ILE80      -0.1245
     91  CA        -1.6070   30.1990    3.2030 C.3    80  ILE80       0.1561
     92  C         -2.9500   29.5780    3.4950 C.2    80  ILE80       0.2260
     93  O         -3.0480   28.3550    3.6520 O.2    80  ILE80      -0.2867
     94  CB        -1.1040   29.8170    1.7890 C.3    80  ILE80       0.0252
     95  CG1        0.2940   30.4120    1.4960 C.3    80  ILE80       0.0019
     96  CG2       -2.1370   30.1930    0.7030 C.3    80  ILE80       0.0019
     97  CD1        0.9250   29.9070    0.1420 C.3    80  ILE80       0.0001
     98  N         -7.0520   29.1450    2.3690 N.3    82  THR82      -0.1203
     99  CA        -8.0150   29.1150    1.2800 C.3    82  THR82       0.1994
    100  C         -9.3640   28.7210    1.8560 C.2    82  THR82       0.2618
    101  O         -9.4410   28.3150    3.0090 O.2    82  THR82      -0.2717
    102  CB        -7.6090   28.1370    0.1480 C.3    82  THR82       0.1784
    103  OG1       -7.8220   26.7760    0.5600 O.3    82  THR82      -0.2211
    104  CG2       -6.2010   28.3700   -0.3750 C.3    82  THR82       0.0376
    105  N        -10.4270   28.8110    1.0420 N.am   83  GLN83      -0.1965
    106  CA       -11.7660   28.3520    1.4420 C.3    83  GLN83       0.1733
    107  C        -11.6780   26.8220    1.6700 C.2    83  GLN83       0.2616
    108  O        -10.7580   26.1710    1.1650 O.2    83  GLN83      -0.2715
    109  CB       -12.8000   28.6480    0.3270 C.3    83  GLN83       0.0408
    110  CG       -12.5380   27.8460   -0.9860 C.3    83  GLN83       0.0908
    111  CD       -13.5100   28.1250   -2.1120 C.2    83  GLN83       0.2608
    112  OE1      -13.1130   28.3390   -3.2650 O.2    83  GLN83      -0.2717
    113  NE2      -14.8040   28.1590   -1.8030 N.am   83  GLN83      -0.0878
    114  N        -12.6170   26.2750    2.4210 N.am   84  TRP84      -0.1960
    115  CA       -12.7360   24.8390    2.6260 C.3    84  TRP84       0.1771
    116  C        -13.9510   24.3980    1.8040 C.2    84  TRP84       0.2619
    117  O        -15.0330   24.9880    1.9280 O.2    84  TRP84      -0.2715
    118  CB       -12.9620   24.4890    4.1100 C.3    84  TRP84       0.0590
    119  CG       -13.1540   23.0160    4.3110 C.ar   84  TRP84       0.0006
    120  CD1      -14.3420   22.3400    4.3600 C.ar   84  TRP84       0.0946
    121  CD2      -12.1220   22.0190    4.3050 C.ar   84  TRP84       0.0152
    122  NE1      -14.1150   20.9850    4.4170 N.ar   84  TRP84      -0.2442
    123  CE2      -12.7590   20.7570    4.3810 C.ar   84  TRP84       0.0810
    124  CE3      -10.7130   22.0710    4.2400 C.ar   84  TRP84       0.0012
    125  CZ2      -12.0310   19.5540    4.4540 C.ar   84  TRP84       0.0191
    126  CZ3       -9.9900   20.8780    4.3050 C.ar   84  TRP84       0.0001
    127  CH2      -10.6470   19.6380    4.3970 C.ar   84  TRP84       0.0015
    128  N        -13.7750   23.3730    0.9690 N.am   85  CYS85      -0.1968
    129  CA       -14.8700   22.8650    0.1450 C.3    85  CYS85       0.1712
    130  C        -15.2130   21.4670    0.5530 C.2    85  CYS85       0.2296
    131  O        -14.3260   20.5990    0.6380 O.2    85  CYS85      -0.2864
    132  CB       -14.5130   22.8990   -1.3410 C.3    85  CYS85       0.0983
    133  SG       -14.0590   24.5230   -1.9910 S.3    85  CYS85      -0.0798
    134  N         -6.9010   31.9470  -15.8180 N.3   120  LEU120     -0.1245
    135  CA        -5.4780   31.8840  -15.4420 C.3   120  LEU120      0.1561
    136  C         -4.5550   32.3450  -16.5700 C.2   120  LEU120      0.2260
    137  O         -3.6730   33.1560  -16.3390 O.2   120  LEU120     -0.2867
    138  CB        -5.0680   30.4560  -14.9950 C.3   120  LEU120      0.0270
    139  CG        -5.7350   29.8880  -13.7460 C.3   120  LEU120      0.0019
    140  CD1       -5.2490   28.4610  -13.4980 C.3   120  LEU120      0.0001
    141  CD2       -5.4950   30.7900  -12.5070 C.3   120  LEU120      0.0001
    142  N         -0.8930   33.2210  -16.0310 N.3   125  ILE125     -0.1231
    143  CA        -0.5960   32.1840  -15.0380 C.3   125  ILE125      0.1692
    144  C         -0.6650   30.8320  -15.7380 C.2   125  ILE125      0.2592
    145  O         -1.7090   30.4770  -16.2930 O.2   125  ILE125     -0.2718
    146  CB        -1.5400   32.2360  -13.8040 C.3   125  ILE125      0.0266
    147  CG1       -1.4580   33.6050  -13.0680 C.3   125  ILE125      0.0019
    148  CG2       -1.2920   31.0270  -12.8510 C.3   125  ILE125      0.0020
    149  CD1       -2.7060   33.9470  -12.2040 C.3   125  ILE125      0.0001
    150  N          0.4640   30.1020  -15.7400 N.am  126  ILE126     -0.1966
    151  CA         0.5820   28.7530  -16.2800 C.3   126  ILE126      0.1727
    152  C          0.4480   27.8680  -15.0470 C.2   126  ILE126      0.2616
    153  O          1.1660   28.0820  -14.0600 O.2   126  ILE126     -0.2715
    154  CB         1.9180   28.5040  -17.0570 C.3   126  ILE126      0.0290
    155  CG1        2.0650   29.4660  -18.2560 C.3   126  ILE126      0.0022
    156  CG2        2.0310   27.0270  -17.5270 C.3   126  ILE126      0.0023
    157  CD1        3.5240   29.6470  -18.7920 C.3   126  ILE126      0.0001
    158  N         -0.4980   26.9030  -15.0830 N.am  127  HIS127     -0.1973
    159  CA        -0.7300   26.0000  -13.9610 C.3   127  HIS127      0.1656
    160  C          0.4950   25.1180  -13.7210 C.2   127  HIS127      0.2291
    161  O          0.9870   25.0690  -12.5950 O.2   127  HIS127     -0.2864
    162  CB        -2.0000   25.1490  -14.1650 C.3   127  HIS127      0.0771
    163  CG        -2.4370   24.4470  -12.9120 C.ar  127  HIS127      0.0820
    164  ND1       -1.6450   23.4750  -12.2980 N.ar  127  HIS127     -0.2267
    165  CD2       -3.5740   24.5940  -12.1910 C.ar  127  HIS127      0.1154
    166  CE1       -2.3170   23.0760  -11.2240 C.ar  127  HIS127      0.1986
    167  NE2       -3.4850   23.7160  -11.1180 N.ar  127  HIS127     -0.2212
    168  N        -11.2090   20.2880   -8.1990 N.3   136  PHE136     -0.1241
    169  CA       -12.0740   19.9750   -7.0750 C.3   136  PHE136      0.1605
    170  C        -13.5540   20.1830   -7.4130 C.2   136  PHE136      0.2264
    171  O        -13.9060   21.1950   -8.0080 O.2   136  PHE136     -0.2867
    172  CB       -11.6390   20.7350   -5.8140 C.3   136  PHE136      0.0534
    173  CG       -12.1860   20.1190   -4.5520 C.ar  136  PHE136     -0.0203
    174  CD1      -11.4630   19.1530   -3.8580 C.ar  136  PHE136     -0.0042
    175  CD2      -13.4400   20.4760   -4.0730 C.ar  136  PHE136     -0.0042
    176  CE1      -11.9910   18.5570   -2.7110 C.ar  136  PHE136     -0.0003
    177  CE2      -13.9640   19.8820   -2.9240 C.ar  136  PHE136     -0.0003
    178  CZ       -13.2340   18.9360   -2.2490 C.ar  136  PHE136     -0.0000
    179  N        -10.3680   24.9760   -9.4660 N.3   145  ILE145     -0.1231
    180  CA        -9.0100   24.5890   -9.8530 C.3   145  ILE145      0.1692
    181  C         -8.0740   25.0970   -8.7600 C.2   145  ILE145      0.2593
    182  O         -8.2040   26.2340   -8.3030 O.2   145  ILE145     -0.2718
    183  CB        -8.5930   25.1050  -11.2600 C.3   145  ILE145      0.0266
    184  CG1       -9.5250   24.5710  -12.3750 C.3   145  ILE145      0.0019
    185  CG2       -7.1100   24.7810  -11.5710 C.3   145  ILE145      0.0020
    186  CD1       -9.4400   25.3490  -13.6540 C.3   145  ILE145      0.0001
    187  N         -7.1460   24.2410   -8.3610 N.am  146  GLY146     -0.1942
    188  CA        -6.0990   24.5740   -7.4030 C.3   146  GLY146      0.2014
    189  C         -4.8600   23.7660   -7.7100 C.2   146  GLY146      0.2639
    190  O         -4.8090   23.0840   -8.7290 O.2   146  GLY146     -0.2714
    191  N         -3.8490   23.8530   -6.8550 N.am  147  ASP147     -0.1957
    192  CA        -2.6520   23.0100   -6.9380 C.3   147  ASP147      0.1840
    193  C         -2.5990   22.4140   -5.5470 C.2   147  ASP147      0.2622
    194  O         -2.0670   23.0240   -4.6230 O.2   147  ASP147     -0.2715
    195  CB        -1.3840   23.8020   -7.3110 C.3   147  ASP147      0.1450
    196  CG        -0.2200   22.9370   -7.7650 C.2   147  ASP147      0.3671
    197  OD1       -0.0640   21.8200   -7.2280 O.co2 147  ASP147     -0.2456
    198  OD2        0.5500   23.3910   -8.6420 O.co2 147  ASP147     -0.2456
    199  N         -3.2820   21.2660   -5.3900 N.am  148  PHE148     -0.1974
    200  CA        -3.5340   20.5590   -4.1280 C.3   148  PHE148      0.1639
    201  C         -2.4200   19.6400   -3.6100 C.2   148  PHE148      0.2290
    202  O         -2.5940   19.0480   -2.5360 O.2   148  PHE148     -0.2864
    203  CB        -4.8530   19.7570   -4.2220 C.3   148  PHE148      0.0560
    204  CG        -6.0640   20.6160   -4.4900 C.ar  148  PHE148     -0.0200
    205  CD1       -6.4540   21.5980   -3.5880 C.ar  148  PHE148     -0.0042
    206  CD2       -6.8190   20.4410   -5.6410 C.ar  148  PHE148     -0.0042
    207  CE1       -7.5750   22.3920   -3.8380 C.ar  148  PHE148     -0.0003
    208  CE2       -7.9220   21.2540   -5.9060 C.ar  148  PHE148     -0.0003
    209  CZ        -8.2940   22.2260   -5.0040 C.ar  148  PHE148     -0.0000
@<TRIPOS>BOND
     1   157   155    1
     2   155   154    1
     3   156   154    1
     4   154   151    1
     5   136   137    2
     6   136   135    1
     7   145   144    2
     8   151   150    1
     9   151   152    1
    10   142   143    1
    11   134   135    1
    12   150   144   am
    13   144   143    1
    14   135   138    1
    15   158   152   am
    16   158   159    1
    17   152   153    2
    18   143   146    1
    19   138   139    1
    20   162   159    1
    21   162   163    1
    22   159   160    1
    23   146   147    1
    24   146   148    1
    25   139   140    1
    26   139   141    1
    27   160   161    2
    28   186   184    1
    29   147   149    1
    30   163   164   ar
    31   163   165   ar
    32   184   183    1
    33   164   166   ar
    34   165   167   ar
    35    81    79    1
    36   185   183    1
    37   183   180    1
    38   166   167   ar
    39    79    78    1
    40   180   179    1
    41   180   181    1
    42    58    56    1
    43    74    75    1
    44    73    71    1
    45    78    75    1
    46    78    80    1
    47    75    76    1
    48   181   187   am
    49   181   182    2
    50   190   189    2
    51    71    68    1
    52    71    72    1
    53   198   196   ar
    54    68    67    1
    55    68    69    1
    56    56    53    1
    57    56    57    1
    58   187   188    1
    59   168   169    1
    60    55    54    2
    61   171   170    2
    62    53    54    1
    63    53    52    1
    64    69    70    2
    65   196   195    1
    66   196   197   ar
    67   189   188    1
    68   189   191   am
    69    76    77    2
    70    76    82   am
    71   170   169    1
    72    54    59   am
    73   195   192    1
    74   169   172    1
    75   192   191    1
    76   192   193    1
    77    82    83    1
    78    59    60    1
    79   208   206   ar
    80   208   209   ar
    81   172   173    1
    82    62    61    2
    83   206   204   ar
    84    60    61    1
    85    60    63    1
    86   193   199   am
    87   193   194    2
    88   199   200    1
    89    83    86    1
    90    83    84    1
    91    85    84    2
    92    66    64    1
    93   209   207   ar
    94    86    87    1
    95   173   175   ar
    96   173   174   ar
    97    46    45    2
    98   204   203    1
    99   204   205   ar
   100    64    63    1
   101    64    65    1
   102    43    44    1
   103    44    45    1
   104    44    47    1
   105   203   200    1
   106   200   201    1
   107   175   177   ar
   108   174   176   ar
   109   207   205   ar
   110   201   202    2
   111    48    47    1
   112    48    49    1
   113    87    89    1
   114    87    88    1
   115   112   111    2
   116    13    10    1
   117    13    14    1
   118   177   178   ar
   119    49    51   ar
   120    49    50   ar
   121   176   178   ar
   122    10     9    1
   123    10    11    1
   124   111   113   am
   125   111   110    1
   126   133   132    1
   127    12    11    2
   128    42    41    1
   129   132   129    1
   130   110   109    1
   131   104   102    1
   132    41    40    1
   133    97    95    1
   134   129   130    1
   135   129   128    1
   136   102   103    1
   137   102    99    1
   138   109   106    1
   139   130   131    2
   140    96    94    1
   141    40    39    1
   142   128   116   am
   143   105   106    1
   144   105   100   am
   145   108   107    2
   146    99   100    1
   147    99    98    1
   148   106   107    1
   149    95    94    1
   150   107   114   am
   151    94    91    1
   152   116   117    2
   153   116   115    1
   154   100   101    2
   155    21    19    1
   156    39    38    1
   157   114   115    1
   158    38    35    1
   159   115   118    1
   160    26    23    1
   161    20    19    1
   162    91    92    1
   163    91    90    1
   164     8     6    1
   165    19    16    1
   166    92    93    2
   167     4     3    2
   168    35    34    1
   169    35    36    1
   170   118   119    1
   171     6     5    1
   172   124   121   ar
   173   124   126   ar
   174   121   119   ar
   175   121   123   ar
   176   126   127   ar
   177    25    24    2
   178   119   120   ar
   179   120   122   ar
   180     3     2    1
   181   123   122   ar
   182   123   125   ar
   183   127   125   ar
   184    23    22    1
   185    23    24    1
   186    34    29   am
   187    16    15    1
   188    16    17    1
   189    24    27   am
   190    37    36    2
   191     5     2    1
   192     5     7    1
   193    29    30    2
   194    29    28    1
   195    27    28    1
   196     2     1    1
   197    28    31    1
   198    17    18    2
   199    31    32    1
   200    31    33    1
