@<TRIPOS>MOLECULE
tmp/5vanA06.pdb
 114 110 0 0 0
SMALL
GASTEIGER

@<TRIPOS>ATOM
      1  N          1.3600  -36.7570  -65.4770 N.3   462  SER462     -0.1217
      2  CA         0.8920  -37.9910  -64.8660 C.3   462  SER462      0.1889
      3  C          0.1750  -38.8190  -65.9450 C.2   462  SER462      0.2288
      4  O          0.7190  -38.9190  -67.0410 O.2   462  SER462     -0.2866
      5  CB         0.0670  -37.6710  -63.6240 C.3   462  SER462      0.2089
      6  OG        -0.9830  -36.7730  -63.9380 O.3   462  SER462     -0.2183
      7  N          0.7410  -45.5970  -62.4280 N.3   536  TYR536     -0.1241
      8  CA         0.7330  -44.3410  -61.6750 C.3   536  TYR536      0.1605
      9  C         -0.5300  -44.3300  -60.8210 C.2   536  TYR536      0.2264
     10  O         -1.5200  -43.6770  -61.1630 O.2   536  TYR536     -0.2867
     11  CB         0.7840  -43.1470  -62.6360 C.3   536  TYR536      0.0534
     12  CG         1.1330  -41.7930  -62.0340 C.ar  536  TYR536     -0.0201
     13  CD1        0.2440  -41.1150  -61.2060 C.ar  536  TYR536     -0.0009
     14  CD2        2.3330  -41.1650  -62.3560 C.ar  536  TYR536     -0.0009
     15  CE1        0.5640  -39.8690  -60.6750 C.ar  536  TYR536      0.0417
     16  CE2        2.6580  -39.9140  -61.8420 C.ar  536  TYR536      0.0417
     17  CZ         1.7730  -39.2730  -61.0010 C.ar  536  TYR536      0.1957
     18  OH         2.1040  -38.0370  -60.4900 O.3   536  TYR536     -0.2866
     19  N          5.6620  -43.9800  -57.0200 N.3   586  GLU586     -0.1245
     20  CA         5.3500  -43.8130  -55.6040 C.3   586  GLU586      0.1567
     21  C          4.5020  -44.9610  -55.0490 C.2   586  GLU586      0.2260
     22  O          3.3960  -44.7390  -54.5510 O.2   586  GLU586     -0.2867
     23  CB         4.6590  -42.4780  -55.3610 C.3   586  GLU586      0.0388
     24  CG         5.5850  -41.2910  -55.6130 C.3   586  GLU586      0.1160
     25  CD         4.9230  -39.9500  -55.3890 C.2   586  GLU586      0.3649
     26  OE1        5.5490  -38.9200  -55.7350 O.co2 586  GLU586     -0.2457
     27  OE2        3.7850  -39.9240  -54.8670 O.co2 586  GLU586     -0.2457
     28  N          3.7470  -44.3430  -51.3170 N.3   589  ARG589     -0.1245
     29  CA         2.7230  -43.3990  -50.8800 C.3   589  ARG589      0.1563
     30  C          1.3640  -43.8560  -51.3770 C.2   589  ARG589      0.2260
     31  O          0.4600  -43.0390  -51.5780 O.2   589  ARG589     -0.2867
     32  CB         3.0220  -41.9670  -51.3450 C.3   589  ARG589      0.0307
     33  CG         2.1720  -40.9410  -50.6400 C.3   589  ARG589      0.0489
     34  CD         2.5850  -39.5250  -50.9670 C.3   589  ARG589      0.2205
     35  NE         1.8710  -39.0850  -52.1460 N.pl3 589  ARG589     -0.0865
     36  CZ         0.9260  -38.1560  -52.1720 C.cat 589  ARG589      0.5346
     37  NH1        0.5530  -37.5050  -51.0830 N.pl3 589  ARG589      0.1354
     38  NH2        0.2750  -37.9550  -53.3040 N.pl3 589  ARG589      0.1354
     39  N          8.5580  -41.9590  -53.5240 N.3   636  HIS636     -0.1241
     40  CA         8.1840  -40.7610  -52.7920 C.3   636  HIS636      0.1621
     41  C          9.2240  -40.4970  -51.7110 C.2   636  HIS636      0.2264
     42  O          9.4800  -41.3600  -50.8690 O.2   636  HIS636     -0.2867
     43  CB         6.8010  -40.9660  -52.1860 C.3   636  HIS636      0.0745
     44  CG         6.3460  -39.8370  -51.3290 C.ar  636  HIS636      0.0817
     45  ND1        6.1010  -38.5770  -51.8330 N.ar  636  HIS636     -0.2268
     46  CD2        6.0920  -39.7730  -50.0010 C.ar  636  HIS636      0.1154
     47  CE1        5.7150  -37.7850  -50.8480 C.ar  636  HIS636      0.1986
     48  NE2        5.7050  -38.4860  -49.7270 N.ar  636  HIS636     -0.2212
     49  N          9.3590  -33.2100  -52.9830 N.3   719  PHE719     -0.1241
     50  CA         8.6140  -31.9670  -52.9740 C.3   719  PHE719      0.1605
     51  C          8.9390  -31.0730  -51.7910 C.2   719  PHE719      0.2264
     52  O          9.0520  -29.8630  -51.9720 O.2   719  PHE719     -0.2867
     53  CB         7.1100  -32.2630  -53.0090 C.3   719  PHE719      0.0534
     54  CG         6.6680  -32.9040  -54.2980 C.ar  719  PHE719     -0.0203
     55  CD1        6.3630  -32.1210  -55.3990 C.ar  719  PHE719     -0.0042
     56  CD2        6.6040  -34.2800  -54.4210 C.ar  719  PHE719     -0.0042
     57  CE1        5.9730  -32.6920  -56.6040 C.ar  719  PHE719     -0.0003
     58  CE2        6.2000  -34.8720  -55.6230 C.ar  719  PHE719     -0.0003
     59  CZ         5.8910  -34.0690  -56.7180 C.ar  719  PHE719     -0.0000
     60  N          2.4750  -26.8070  -48.5160 N.3   755  LEU755     -0.1245
     61  CA         3.7840  -27.3840  -48.8270 C.3   755  LEU755      0.1561
     62  C          4.8980  -26.3930  -48.4820 C.2   755  LEU755      0.2260
     63  O          4.9530  -25.2900  -49.0350 O.2   755  LEU755     -0.2867
     64  CB         3.8690  -27.7740  -50.3030 C.3   755  LEU755      0.0270
     65  CG         3.3470  -29.1370  -50.7810 C.3   755  LEU755      0.0019
     66  CD1        3.3370  -29.2160  -52.3110 C.3   755  LEU755      0.0001
     67  CD2        4.1760  -30.2720  -50.2120 C.3   755  LEU755      0.0001
     68  N          7.7740  -30.7990  -61.9500 N.3   824  PHE824     -0.1227
     69  CA         6.3930  -31.2270  -61.8070 C.3   824  PHE824      0.1736
     70  C          5.4800  -29.9960  -61.6990 C.2   824  PHE824      0.2595
     71  O          5.6020  -29.2340  -60.7310 O.2   824  PHE824     -0.2718
     72  CB         6.2780  -32.1120  -60.5510 C.3   824  PHE824      0.0547
     73  CG         4.8910  -32.6430  -60.2790 C.ar  824  PHE824     -0.0202
     74  CD1        3.9750  -31.8960  -59.5600 C.ar  824  PHE824     -0.0042
     75  CD2        4.5230  -33.9020  -60.7180 C.ar  824  PHE824     -0.0042
     76  CE1        2.7060  -32.3890  -59.3050 C.ar  824  PHE824     -0.0003
     77  CE2        3.2650  -34.4040  -60.4580 C.ar  824  PHE824     -0.0003
     78  CZ         2.3510  -33.6430  -59.7540 C.ar  824  PHE824     -0.0000
     79  N          4.5510  -29.7900  -62.6360 N.am  825  LYS825     -0.1980
     80  CA         4.2450  -30.6740  -63.7540 C.3   825  LYS825      0.1596
     81  C          3.9120  -29.8100  -64.9560 C.2   825  LYS825      0.2287
     82  O          3.8040  -28.5920  -64.8410 O.2   825  LYS825     -0.2864
     83  CB         3.0680  -31.6050  -63.4350 C.3   825  LYS825      0.0298
     84  CG         1.7440  -30.9010  -63.2860 C.3   825  LYS825      0.0038
     85  CD         0.7630  -31.6700  -62.3750 C.3   825  LYS825      0.0206
     86  CE         0.2460  -32.9360  -63.0140 C.3   825  LYS825      0.1093
     87  NZ        -0.7200  -32.6600  -64.1120 N.3   825  LYS825     -0.1314
     88  N         -7.9560  -28.8080  -59.6810 N.3   832  LYS832     -0.1231
     89  CA        -6.9090  -29.4020  -58.8700 C.3   832  LYS832      0.1678
     90  C         -5.9070  -28.3290  -58.4500 C.2   832  LYS832      0.2434
     91  O         -5.9410  -27.2010  -58.9550 O.2   832  LYS832     -0.2733
     92  CB        -6.2190  -30.5260  -59.6560 C.3   832  LYS832      0.0284
     93  CG        -7.1350  -31.7100  -59.9570 C.3   832  LYS832      0.0035
     94  CD        -7.3020  -32.5330  -58.7060 C.3   832  LYS832      0.0206
     95  CE        -8.7470  -32.8790  -58.4690 C.3   832  LYS832      0.1093
     96  NZ        -8.9050  -33.5940  -57.1790 N.3   832  LYS832     -0.1314
     97  N         -5.0200  -28.6290  -57.4940 N.am  833  PRO833     -0.2729
     98  CA        -3.9800  -27.6530  -57.1370 C.3   833  PRO833      0.1401
     99  C         -3.1060  -27.3060  -58.3360 C.2   833  PRO833      0.2269
    100  O         -2.8790  -28.1200  -59.2360 O.2   833  PRO833     -0.2865
    101  CB        -3.1820  -28.3670  -56.0400 C.3   833  PRO833      0.0296
    102  CG        -3.5430  -29.8200  -56.1810 C.3   833  PRO833      0.0237
    103  CD        -4.9560  -29.8190  -56.6290 C.3   833  PRO833      0.0939
    104  N         -0.1090  -26.9700  -59.9290 N.3   835  PHE835     -0.1241
    105  CA         1.2860  -27.3470  -60.1000 C.3   835  PHE835      0.1605
    106  C          1.8280  -27.0990  -61.5030 C.2   835  PHE835      0.2264
    107  O          3.0250  -27.2930  -61.7230 O.2   835  PHE835     -0.2867
    108  CB         1.4680  -28.8300  -59.7870 C.3   835  PHE835      0.0534
    109  CG         1.4090  -29.1560  -58.3320 C.ar  835  PHE835     -0.0203
    110  CD1        2.5490  -29.0720  -57.5470 C.ar  835  PHE835     -0.0042
    111  CD2        0.2220  -29.5790  -57.7530 C.ar  835  PHE835     -0.0042
    112  CE1        2.4930  -29.3880  -56.2020 C.ar  835  PHE835     -0.0003
    113  CE2        0.1680  -29.9080  -56.4120 C.ar  835  PHE835     -0.0003
    114  CZ         1.3030  -29.8060  -55.6370 C.ar  835  PHE835     -0.0000
@<TRIPOS>BOND
     1     4     3    2
     2     3     2    1
     3     1     2    1
     4    81    82    2
     5    81    80    1
     6     2     5    1
     7    87    86    1
     8     6     5    1
     9    80    83    1
    10    80    79    1
    11    83    84    1
    12    84    85    1
    13    86    85    1
    14    79    70   am
    15    11    12    1
    16    11     8    1
    17     7     8    1
    18    14    12   ar
    19    14    16   ar
    20    12    13   ar
    21    68    69    1
    22    16    17   ar
    23    69    70    1
    24    69    72    1
    25   107   106    2
    26    70    71    2
    27     8     9    1
    28   106   105    1
    29    13    15   ar
    30    10     9    2
    31    17    15   ar
    32    17    18    1
    33    75    77   ar
    34    75    73   ar
    35    72    73    1
    36    77    78   ar
    37    73    74   ar
    38   105   104    1
    39   105   108    1
    40    93    92    1
    41    93    94    1
    42   108   109    1
    43    78    76   ar
    44    88    89    1
    45    92    89    1
    46    74    76   ar
    47   100    99    2
    48    91    90    2
    49    89    90    1
    50    94    95    1
    51    95    96    1
    52    90    97   am
    53    99    98    1
    54   109   111   ar
    55   109   110   ar
    56   111   113   ar
    57   110   112   ar
    58    97    98    1
    59    97   103    1
    60    98   101    1
    61    19    20    1
    62    59    57   ar
    63    59    58   ar
    64   103   102    1
    65    57    55   ar
    66   113   114   ar
    67   112   114   ar
    68   102   101    1
    69    26    25   ar
    70    58    56   ar
    71    24    25    1
    72    24    23    1
    73    20    23    1
    74    20    21    1
    75    55    54   ar
    76    25    27   ar
    77    21    22    2
    78    56    54   ar
    79    54    53    1
    80    39    40    1
    81    38    36    1
    82    53    50    1
    83    49    50    1
    84    50    51    1
    85    40    43    1
    86    40    41    1
    87    66    65    1
    88    43    44    1
    89    36    35    2
    90    36    37    1
    91    35    34    1
    92    52    51    2
    93    45    44   ar
    94    45    47   ar
    95    41    42    2
    96    31    30    2
    97    30    29    1
    98    32    29    1
    99    32    33    1
   100    44    46   ar
   101    28    29    1
   102    34    33    1
   103    47    48   ar
   104    65    64    1
   105    65    67    1
   106    64    61    1
   107    46    48   ar
   108    63    62    2
   109    61    60    1
   110    61    62    1
