@<TRIPOS>MOLECULE
tmp/5varA00.pdb
 88 88 0 0 0
SMALL
GASTEIGER

@<TRIPOS>ATOM
      1  N         21.1500   -8.2330   12.9980 N.3    36  PHE36      -0.1227
      2  CA        21.4790   -9.2840   12.0620 C.3    36  PHE36       0.1736
      3  C         22.9170   -9.7670   12.2250 C.2    36  PHE36       0.2595
      4  O         23.7530   -9.0620   12.7870 O.2    36  PHE36      -0.2718
      5  CB        21.1520   -8.8670   10.6230 C.3    36  PHE36       0.0547
      6  CG        19.6700   -8.7110   10.3960 C.ar   36  PHE36      -0.0202
      7  CD1       18.8560   -9.8250   10.2090 C.ar   36  PHE36      -0.0042
      8  CD2       19.0800   -7.4510   10.3930 C.ar   36  PHE36      -0.0042
      9  CE1       17.4830   -9.6780    9.9920 C.ar   36  PHE36      -0.0003
     10  CE2       17.7080   -7.3010   10.1700 C.ar   36  PHE36      -0.0003
     11  CZ        16.9160   -8.4130    9.9650 C.ar   36  PHE36      -0.0000
     12  N         23.1840  -11.0070   11.7830 N.am   37  ASP37      -0.1960
     13  CA        24.4960  -11.6530   11.8620 C.3    37  ASP37       0.1840
     14  C         25.6060  -10.8600   11.1450 C.2    37  ASP37       0.2622
     15  O         26.7650  -11.0150   11.5060 O.2    37  ASP37      -0.2715
     16  CB        24.4110  -13.1310   11.3790 C.3    37  ASP37       0.1450
     17  CG        23.4710  -14.0230   12.1940 C.2    37  ASP37       0.3671
     18  OD1       23.1590  -13.6670   13.3530 O.co2  37  ASP37      -0.2456
     19  OD2       23.0520  -15.0820   11.6730 O.co2  37  ASP37      -0.2456
     20  N         25.2540   -9.9190   10.2350 N.am   38  ASP38      -0.1971
     21  CA        26.2430   -9.0580    9.5680 C.3    38  ASP38       0.1709
     22  C         26.5730   -7.7770   10.3740 C.2    38  ASP38       0.2293
     23  O         27.3630   -6.9570    9.9180 O.2    38  ASP38      -0.2864
     24  CB        25.7920   -8.7270    8.1280 C.3    38  ASP38       0.1436
     25  CG        24.6230   -7.7500    8.0190 C.2    38  ASP38       0.3671
     26  OD1       23.9020   -7.5680    9.0180 O.co2  38  ASP38      -0.2456
     27  OD2       24.4370   -7.1700    6.9320 O.co2  38  ASP38      -0.2456
     28  N         24.3060   -5.4510   11.1190 N.3    40  SER40      -0.1202
     29  CA        23.2920   -4.4440   10.8260 C.3    40  SER40       0.2020
     30  C         22.0630   -4.6040   11.7440 C.2    40  SER40       0.2619
     31  O         21.8700   -5.6590   12.3400 O.2    40  SER40      -0.2717
     32  CB        22.8990   -4.4370    9.3540 C.3    40  SER40       0.2103
     33  OG        22.1540   -5.5830    8.9840 O.3    40  SER40      -0.2182
     34  N         21.2970   -3.5320   11.9140 N.am   41  PHE41      -0.1961
     35  CA        20.1140   -3.5090   12.7760 C.3    41  PHE41       0.1771
     36  C         18.8920   -3.0730   12.0070 C.2    41  PHE41       0.2620
     37  O         18.9960   -2.2990   11.0610 O.2    41  PHE41      -0.2715
     38  CB        20.3080   -2.5110   13.9350 C.3    41  PHE41       0.0574
     39  CG        21.2520   -2.9160   15.0330 C.ar   41  PHE41      -0.0200
     40  CD1       22.6280   -2.9560   14.8110 C.ar   41  PHE41      -0.0042
     41  CD2       20.7880   -3.1310   16.3220 C.ar   41  PHE41      -0.0042
     42  CE1       23.5070   -3.3140   15.8340 C.ar   41  PHE41      -0.0003
     43  CE2       21.6680   -3.4860   17.3480 C.ar   41  PHE41      -0.0003
     44  CZ        23.0190   -3.5860   17.0990 C.ar   41  PHE41      -0.0000
     45  N         17.7220   -3.5040   12.4630 N.am   42  SER42      -0.1950
     46  CA        16.4530   -3.0460   11.9140 C.3    42  SER42       0.1924
     47  C         15.4970   -2.9280   13.0690 C.2    42  SER42       0.2314
     48  O         15.3950   -3.8490   13.8730 O.2    42  SER42      -0.2863
     49  CB        15.9010   -3.9990   10.8620 C.3    42  SER42       0.2116
     50  OG        14.5580   -3.6130   10.6000 O.3    42  SER42      -0.2180
     51  N         12.7010  -11.3760    6.0560 N.3    71  TRP71      -0.1241
     52  CA        12.9340  -10.0090    5.5950 C.3    71  TRP71       0.1605
     53  C         12.0280   -9.6650    4.3780 C.2    71  TRP71       0.2264
     54  O         11.2650  -10.5100    3.9380 O.2    71  TRP71      -0.2867
     55  CB        14.4360   -9.8630    5.2920 C.3    71  TRP71       0.0550
     56  CG        14.9340   -8.4630    5.0750 C.ar   71  TRP71       0.0003
     57  CD1       15.5300   -7.9810    3.9460 C.ar   71  TRP71       0.0946
     58  CD2       14.9260   -7.3830    6.0190 C.ar   71  TRP71       0.0152
     59  NE1       15.8940   -6.6710    4.1250 N.ar   71  TRP71      -0.2442
     60  CE2       15.5090   -6.2650    5.3780 C.ar   71  TRP71       0.0810
     61  CE3       14.3740   -7.2090    7.3030 C.ar   71  TRP71       0.0012
     62  CZ2       15.6310   -5.0180    6.0050 C.ar   71  TRP71       0.0191
     63  CZ3       14.5230   -5.9840    7.9360 C.ar   71  TRP71       0.0001
     64  CH2       15.1340   -4.9030    7.2880 C.ar   71  TRP71       0.0015
     65  N         12.5190   -9.4720    1.2300 N.3    73  ASP73      -0.1239
     66  CA        12.8220  -10.2020    0.0020 C.3    73  ASP73       0.1674
     67  C         12.2620  -11.6390    0.0600 C.2    73  ASP73       0.2266
     68  O         12.4420  -12.4350   -0.8740 O.2    73  ASP73      -0.2867
     69  CB        14.3390  -10.1870   -0.2170 C.3    73  ASP73       0.1410
     70  CG        15.1950  -10.6420    0.9660 C.2    73  ASP73       0.3668
     71  OD1       14.6170  -11.1600    1.9670 O.co2  73  ASP73      -0.2456
     72  OD2       16.4280  -10.4280    0.9220 O.co2  73  ASP73      -0.2456
     73  N         16.6590  -14.8540    7.5560 N.3    77  TYR77      -0.1227
     74  CA        18.0060  -14.5960    8.0500 C.3    77  TYR77       0.1736
     75  C         18.0290  -14.8010    9.5600 C.2    77  TYR77       0.2596
     76  O         17.0280  -14.5700   10.2440 O.2    77  TYR77      -0.2718
     77  CB        18.3980  -13.1270    7.7850 C.3    77  TYR77       0.0548
     78  CG        18.3790  -12.7510    6.3220 C.ar   77  TYR77      -0.0200
     79  CD1       17.2250  -12.2430    5.7270 C.ar   77  TYR77      -0.0009
     80  CD2       19.5150  -12.8920    5.5330 C.ar   77  TYR77      -0.0009
     81  CE1       17.2030  -11.8920    4.3750 C.ar   77  TYR77       0.0417
     82  CE2       19.5100  -12.5340    4.1860 C.ar   77  TYR77       0.0417
     83  CZ        18.3530  -12.0310    3.6130 C.ar   77  TYR77       0.1957
     84  OH        18.3450  -11.6830    2.2910 O.3    77  TYR77      -0.2866
     85  N         19.1980  -15.1400   10.0640 N.am   78  GLY78      -0.1957
     86  CA        19.4130  -15.2820   11.4930 C.3    78  GLY78       0.1869
     87  C         19.6290  -13.9050   12.0950 C.2    78  GLY78       0.2309
     88  O         20.1930  -13.0090   11.4610 O.2    78  GLY78      -0.2863
@<TRIPOS>BOND
     1    68    67    2
     2    69    66    1
     3    69    70    1
     4    66    67    1
     5    66    65    1
     6    72    70   ar
     7    70    71   ar
     8    84    83    1
     9    83    82   ar
    10    83    81   ar
    11    54    53    2
    12    57    59   ar
    13    57    56   ar
    14    59    60   ar
    15    82    80   ar
    16    81    79   ar
    17    53    52    1
    18    56    55    1
    19    56    58   ar
    20    55    52    1
    21    60    62   ar
    22    60    58   ar
    23    80    78   ar
    24    52    51    1
    25    79    78   ar
    26    62    64   ar
    27    58    61   ar
    28    78    77    1
    29    27    25   ar
    30    64    63   ar
    31    61    63   ar
    32    73    74    1
    33    77    74    1
    34    25    24    1
    35    25    26   ar
    36    74    75    1
    37    24    21    1
    38    33    32    1
    39    32    29    1
    40    75    85   am
    41    75    76    2
    42    21    20    1
    43    21    22    1
    44    23    22    2
    45    11     9   ar
    46    11    10   ar
    47     9     7   ar
    48    85    86    1
    49    10     8   ar
    50     7     6   ar
    51    20    14   am
    52     8     6   ar
    53     6     5    1
    54    50    49    1
    55     5     2    1
    56    29    28    1
    57    29    30    1
    58    49    46    1
    59    37    36    2
    60    14    15    2
    61    14    13    1
    62    16    13    1
    63    16    17    1
    64    88    87    2
    65    86    87    1
    66    19    17   ar
    67    30    34   am
    68    30    31    2
    69    12    13    1
    70    12     3   am
    71    34    35    1
    72    46    45    1
    73    46    47    1
    74    36    45   am
    75    36    35    1
    76     2     3    1
    77     2     1    1
    78    17    18   ar
    79     3     4    2
    80    35    38    1
    81    47    48    2
    82    38    39    1
    83    40    39   ar
    84    40    42   ar
    85    39    41   ar
    86    42    44   ar
    87    41    43   ar
    88    44    43   ar
