@<TRIPOS>MOLECULE
tmp/5vawA03.pdb
 83 81 0 0 0
SMALL
GASTEIGER

@<TRIPOS>ATOM
      1  N         15.4720   27.2720  -27.4670 N.3    12  ASN12      -0.1240
      2  CA        15.9530   26.9020  -26.1440 C.3    12  ASN12       0.1653
      3  C         16.9330   25.7300  -26.2220 C.2    12  ASN12       0.2266
      4  O         16.9500   24.9550  -27.1830 O.2    12  ASN12      -0.2867
      5  CB        14.7850   26.5560  -25.2200 C.3    12  ASN12       0.1155
      6  CG        15.1170   26.7730  -23.7540 C.2    12  ASN12       0.2627
      7  OD1       15.9900   27.5750  -23.4130 O.2    12  ASN12      -0.2716
      8  ND2       14.4260   26.0530  -22.8790 N.am   12  ASN12      -0.0877
      9  N         17.1290   22.9520  -24.6570 N.3    14  ASP14      -0.1225
     10  CA        16.6160   21.5960  -24.5300 C.3    14  ASP14       0.1805
     11  C         15.9610   21.0990  -25.8110 C.2    14  ASP14       0.2597
     12  O         15.3730   20.0110  -25.8140 O.2    14  ASP14      -0.2718
     13  CB        15.6320   21.5100  -23.3600 C.3    14  ASP14       0.1424
     14  CG        14.4020   22.3780  -23.5590 C.2    14  ASP14       0.3668
     15  OD1       14.4190   23.2780  -24.4290 O.co2  14  ASP14      -0.2456
     16  OD2       13.4120   22.1570  -22.8330 O.co2  14  ASP14      -0.2456
     17  N         16.0540   21.8670  -26.8910 N.am   15  LYS15      -0.1979
     18  CA        15.5000   21.5030  -28.1850 C.3    15  LYS15       0.1596
     19  C         16.6050   21.0090  -29.1150 C.2    15  LYS15       0.2287
     20  O         17.7980   21.1330  -28.8300 O.2    15  LYS15      -0.2864
     21  CB        14.7730   22.7000  -28.8020 C.3    15  LYS15       0.0298
     22  CG        13.6680   23.2570  -27.9250 C.3    15  LYS15       0.0038
     23  CD        12.4120   22.4120  -28.0280 C.3    15  LYS15       0.0206
     24  CE        11.8250   22.1330  -26.6540 C.3    15  LYS15       0.1093
     25  NZ        11.7540   23.3690  -25.8380 N.3    15  LYS15      -0.1314
     26  N         11.9770   30.7250  -31.2150 N.3    61  PHE61      -0.1227
     27  CA        11.1450   29.5920  -30.8320 C.3    61  PHE61       0.1736
     28  C         10.8940   29.6720  -29.3330 C.2    61  PHE61       0.2595
     29  O         11.8440   29.7330  -28.5470 O.2    61  PHE61      -0.2718
     30  CB        11.8140   28.2600  -31.1760 C.3    61  PHE61       0.0547
     31  CG        11.8530   27.9550  -32.6460 C.ar   61  PHE61      -0.0202
     32  CD1       12.7580   28.5980  -33.4760 C.ar   61  PHE61      -0.0042
     33  CD2       10.9980   27.0120  -33.1940 C.ar   61  PHE61      -0.0042
     34  CE1       12.7990   28.3170  -34.8300 C.ar   61  PHE61      -0.0003
     35  CE2       11.0370   26.7250  -34.5490 C.ar   61  PHE61      -0.0003
     36  CZ        11.9400   27.3820  -35.3660 C.ar   61  PHE61      -0.0000
     37  N          9.6220   29.6810  -28.9430 N.am   62  TRP62      -0.1962
     38  CA         9.2590   29.6130  -27.5330 C.3    62  TRP62       0.1771
     39  C          7.8020   29.1760  -27.4300 C.2    62  TRP62       0.2619
     40  O          7.0750   29.1290  -28.4240 O.2    62  TRP62      -0.2715
     41  CB         9.5000   30.9550  -26.8270 C.3    62  TRP62       0.0590
     42  CG         9.6700   30.8150  -25.3400 C.ar   62  TRP62       0.0006
     43  CD1        8.7360   31.0720  -24.3850 C.ar   62  TRP62       0.0946
     44  CD2       10.8420   30.3660  -24.6450 C.ar   62  TRP62       0.0152
     45  NE1        9.2500   30.8190  -23.1380 N.ar   62  TRP62      -0.2442
     46  CE2       10.5410   30.3860  -23.2690 C.ar   62  TRP62       0.0810
     47  CE3       12.1140   29.9580  -25.0520 C.ar   62  TRP62       0.0012
     48  CZ2       11.4630   30.0110  -22.2970 C.ar   62  TRP62       0.0191
     49  CZ3       13.0330   29.5840  -24.0840 C.ar   62  TRP62       0.0001
     50  CH2       12.7020   29.6140  -22.7210 C.ar   62  TRP62       0.0015
     51  N          7.3900   28.8370  -26.2100 N.am   63  ALA63      -0.1977
     52  CA         5.9930   28.5170  -25.9560 C.3    63  ALA63       0.1597
     53  C          5.1160   29.7120  -26.3000 C.2    63  ALA63       0.2287
     54  O          5.4990   30.8670  -26.0950 O.2    63  ALA63      -0.2864
     55  CB         5.7830   28.1270  -24.4920 C.3    63  ALA63       0.0319
     56  N          2.2200   20.2250  -26.5670 N.3   111  GLU111     -0.1245
     57  CA         2.4370   19.4940  -25.3290 C.3   111  GLU111      0.1567
     58  C          1.2410   19.6620  -24.4030 C.2   111  GLU111      0.2260
     59  O          0.5890   20.7110  -24.3770 O.2   111  GLU111     -0.2867
     60  CB         3.7310   19.9370  -24.6140 C.3   111  GLU111      0.0388
     61  CG         3.7500   21.3770  -24.1330 C.3   111  GLU111      0.1160
     62  CD         4.9430   21.6700  -23.2360 C.2   111  GLU111      0.3649
     63  OE1        4.7890   22.4540  -22.2750 O.co2 111  GLU111     -0.2457
     64  OE2        6.0330   21.1080  -23.4860 O.co2 111  GLU111     -0.2457
     65  N          0.3170   23.6870  -24.3380 N.3   251  GLY251     -0.1210
     66  CA         1.4260   24.5520  -24.6930 C.3   251  GLY251      0.1956
     67  C          1.8770   24.2560  -26.1140 C.2   251  GLY251      0.2612
     68  O          2.0760   23.0940  -26.4850 O.2   251  GLY251     -0.2717
     69  N          2.0380   25.3180  -26.8980 N.am  252  VAL252     -0.1965
     70  CA         2.3620   25.2030  -28.3170 C.3   252  VAL252      0.1727
     71  C          3.7000   25.8950  -28.5470 C.2   252  VAL252      0.2616
     72  O          3.7730   27.1300  -28.5860 O.2   252  VAL252     -0.2715
     73  CB         1.2660   25.7980  -29.2080 C.3   252  VAL252      0.0290
     74  CG1        1.6760   25.7350  -30.6740 C.3   252  VAL252      0.0023
     75  CG2       -0.0550   25.0570  -28.9880 C.3   252  VAL252      0.0023
     76  N          4.7660   25.1060  -28.6970 N.am  253  LEU253     -0.1977
     77  CA         6.0470   25.6590  -29.1240 C.3   253  LEU253      0.1596
     78  C          5.8880   26.2920  -30.4980 C.2   253  LEU253      0.2287
     79  O          5.4450   25.6340  -31.4450 O.2   253  LEU253     -0.2864
     80  CB         7.1170   24.5670  -29.1610 C.3   253  LEU253      0.0297
     81  CG         8.4410   25.0000  -29.7960 C.3   253  LEU253      0.0022
     82  CD1        9.1680   25.9790  -28.8780 C.3   253  LEU253      0.0001
     83  CD2        9.3230   23.8020  -30.1380 C.3   253  LEU253      0.0001
@<TRIPOS>BOND
     1    36    34   ar
     2    36    35   ar
     3    34    32   ar
     4    35    33   ar
     5    32    31   ar
     6    33    31   ar
     7    31    30    1
     8    79    78    2
     9    26    27    1
    10    30    27    1
    11    27    28    1
    12    74    73    1
    13    78    77    1
    14    83    81    1
    15    81    80    1
    16    81    82    1
    17    28    37   am
    18    28    29    2
    19    73    75    1
    20    73    70    1
    21    80    77    1
    22    77    76    1
    23    19    20    2
    24    19    18    1
    25    37    38    1
    26    21    18    1
    27    21    22    1
    28    76    71   am
    29    72    71    2
    30    71    70    1
    31    40    39    2
    32    70    69    1
    33    18    17    1
    34    23    22    1
    35    23    24    1
    36    38    39    1
    37    38    41    1
    38     1     2    1
    39    39    51   am
    40     4     3    2
    41    69    67   am
    42    17    11   am
    43    41    42    1
    44    24    25    1
    45    56    57    1
    46    68    67    2
    47    53    54    2
    48    53    52    1
    49     3     2    1
    50    51    52    1
    51     2     5    1
    52    67    66    1
    53    52    55    1
    54    12    11    2
    55    11    10    1
    56    42    44   ar
    57    42    43   ar
    58    57    60    1
    59    57    58    1
    60     5     6    1
    61    47    44   ar
    62    47    49   ar
    63    66    65    1
    64     9    10    1
    65    44    46   ar
    66    60    61    1
    67    10    13    1
    68    15    14   ar
    69    58    59    2
    70    43    45   ar
    71    61    62    1
    72    49    50   ar
    73     6     7    2
    74     6     8   am
    75    14    13    1
    76    14    16   ar
    77    64    62   ar
    78    46    45   ar
    79    46    48   ar
    80    62    63   ar
    81    50    48   ar
