@<TRIPOS>MOLECULE
tmp/5vawA00.pdb
 112 115 0 0 0
SMALL
GASTEIGER

@<TRIPOS>ATOM
      1  N          1.2640   22.9200   -7.8470 N.3   153  GLU153     -0.1231
      2  CA         1.0950   23.7750   -9.0170 C.3   153  GLU153      0.1684
      3  C         -0.2420   23.4740   -9.6790 C.2   153  GLU153      0.2434
      4  O         -0.4320   22.3620  -10.2000 O.2   153  GLU153     -0.2733
      5  CB         2.2450   23.5670  -10.0040 C.3   153  GLU153      0.0402
      6  CG         2.0340   24.1960  -11.3760 C.3   153  GLU153      0.1161
      7  CD         1.5700   25.6430  -11.3060 C.2   153  GLU153      0.3649
      8  OE1        0.5700   25.9780  -11.9770 O.co2 153  GLU153     -0.2457
      9  OE2        2.2030   26.4450  -10.5840 O.co2 153  GLU153     -0.2457
     10  N         -1.1890   24.4160   -9.6890 N.am  154  PRO154     -0.2718
     11  CA        -2.5170   24.1260  -10.2600 C.3   154  PRO154      0.1535
     12  C         -2.4920   23.7020  -11.7170 C.2   154  PRO154      0.2598
     13  O         -3.4820   23.1340  -12.1910 O.2   154  PRO154     -0.2715
     14  CB        -3.2690   25.4520  -10.0790 C.3   154  PRO154      0.0310
     15  CG        -2.6110   26.0860   -8.8980 C.3   154  PRO154      0.0237
     16  CD        -1.1480   25.7310   -9.0290 C.3   154  PRO154      0.0939
     17  N         -1.4030   23.9650  -12.4460 N.am  155  TYR155     -0.1974
     18  CA        -1.2760   23.4380  -13.8020 C.3   155  TYR155      0.1639
     19  C         -1.5570   21.9400  -13.8410 C.2   155  TYR155      0.2290
     20  O         -2.1730   21.4410  -14.7900 O.2   155  TYR155     -0.2864
     21  CB         0.1220   23.7390  -14.3470 C.3   155  TYR155      0.0560
     22  CG         0.4620   23.0750  -15.6680 C.ar  155  TYR155     -0.0198
     23  CD1        0.1820   23.7060  -16.8690 C.ar  155  TYR155     -0.0009
     24  CD2        1.0850   21.8260  -15.7120 C.ar  155  TYR155     -0.0009
     25  CE1        0.4940   23.1190  -18.0760 C.ar  155  TYR155      0.0417
     26  CE2        1.4010   21.2270  -16.9260 C.ar  155  TYR155      0.0417
     27  CZ         1.1020   21.8830  -18.1030 C.ar  155  TYR155      0.1957
     28  OH         1.4030   21.3240  -19.3250 O.3   155  TYR155     -0.2866
     29  N         -5.3590   21.1430  -12.9310 N.3   158  TRP158     -0.1241
     30  CA        -6.3160   21.7820  -13.8290 C.3   158  TRP158      0.1605
     31  C         -7.0850   20.8250  -14.7370 C.2   158  TRP158      0.2264
     32  O         -8.2770   21.0880  -14.9800 O.2   158  TRP158     -0.2867
     33  CB        -5.5980   22.8380  -14.6750 C.3   158  TRP158      0.0550
     34  CG        -6.5600   23.6720  -15.4310 C.ar  158  TRP158      0.0003
     35  CD1       -6.8510   23.5910  -16.7630 C.ar  158  TRP158      0.0946
     36  CD2       -7.3980   24.6940  -14.8960 C.ar  158  TRP158      0.0152
     37  NE1       -7.8090   24.5160  -17.0910 N.ar  158  TRP158     -0.2442
     38  CE2       -8.1580   25.2110  -15.9620 C.ar  158  TRP158      0.0810
     39  CE3       -7.5680   25.2360  -13.6190 C.ar  158  TRP158      0.0012
     40  CZ2       -9.0770   26.2390  -15.7910 C.ar  158  TRP158      0.0191
     41  CZ3       -8.4830   26.2550  -13.4510 C.ar  158  TRP158      0.0001
     42  CH2       -9.2270   26.7470  -14.5290 C.ar  158  TRP158      0.0015
     43  N         -4.2030   22.0690  -19.8900 N.3   249  PHE249     -0.1241
     44  CA        -3.6930   23.2180  -20.6250 C.3   249  PHE249      0.1605
     45  C         -2.7430   22.7530  -21.7220 C.2   249  PHE249      0.2264
     46  O         -2.0010   21.7790  -21.5550 O.2   249  PHE249     -0.2867
     47  CB        -2.9830   24.1890  -19.6810 C.3   249  PHE249      0.0534
     48  CG        -3.9110   25.1550  -19.0040 C.ar  249  PHE249     -0.0203
     49  CD1       -4.8010   25.9130  -19.7470 C.ar  249  PHE249     -0.0042
     50  CD2       -3.9020   25.2970  -17.6250 C.ar  249  PHE249     -0.0042
     51  CE1       -5.6610   26.8070  -19.1270 C.ar  249  PHE249     -0.0003
     52  CE2       -4.7600   26.1900  -17.0010 C.ar  249  PHE249     -0.0003
     53  CZ        -5.6370   26.9420  -17.7510 C.ar  249  PHE249     -0.0000
     54  N         -3.2200   27.2960  -23.4530 N.3   321  MET321     -0.1231
     55  CA        -2.7590   28.0770  -22.3140 C.3   321  MET321      0.1687
     56  C         -3.0280   29.5610  -22.5600 C.2   321  MET321      0.2434
     57  O         -2.8060   30.0520  -23.6720 O.2   321  MET321     -0.2733
     58  CB        -1.2630   27.8370  -22.0880 C.3   321  MET321      0.0400
     59  CG        -0.6910   28.4530  -20.8210 C.3   321  MET321      0.0596
     60  SD        -0.4740   27.2460  -19.4910 S.3   321  MET321     -0.1393
     61  CE         0.6760   26.1030  -20.2440 C.3   321  MET321      0.0692
     62  N         -3.5250   30.2960  -21.5640 N.am  322  PRO322     -0.2729
     63  CA        -3.8380   31.7130  -21.7890 C.3   322  PRO322      0.1401
     64  C         -2.5860   32.5060  -22.1280 C.2   322  PRO322      0.2269
     65  O         -1.5060   32.2590  -21.5860 O.2   322  PRO322     -0.2865
     66  CB        -4.4490   32.1610  -20.4560 C.3   322  PRO322      0.0296
     67  CG        -3.9270   31.2060  -19.4600 C.3   322  PRO322      0.0237
     68  CD        -3.8230   29.8850  -20.1810 C.3   322  PRO322      0.0939
     69  N         -5.8600   35.0570  -14.0260 N.3   331  TRP331     -0.1227
     70  CA        -5.3540   33.6910  -13.9210 C.3   331  TRP331      0.1737
     71  C         -4.4870   33.4950  -12.6800 C.2   331  TRP331      0.2595
     72  O         -4.4510   32.3910  -12.1240 O.2   331  TRP331     -0.2718
     73  CB        -4.5960   33.3290  -15.1980 C.3   331  TRP331      0.0564
     74  CG        -5.5500   33.0460  -16.3090 C.ar  331  TRP331      0.0003
     75  CD1       -5.7730   33.8060  -17.4240 C.ar  331  TRP331      0.0946
     76  CD2       -6.4490   31.9370  -16.3930 C.ar  331  TRP331      0.0152
     77  NE1       -6.7510   33.2270  -18.2020 N.ar  331  TRP331     -0.2442
     78  CE2       -7.1780   32.0770  -17.5890 C.ar  331  TRP331      0.0810
     79  CE3       -6.6990   30.8300  -15.5740 C.ar  331  TRP331      0.0012
     80  CZ2       -8.1400   31.1500  -17.9880 C.ar  331  TRP331      0.0191
     81  CZ3       -7.6560   29.9140  -15.9690 C.ar  331  TRP331      0.0001
     82  CH2       -8.3630   30.0780  -17.1650 C.ar  331  TRP331      0.0015
     83  N         -3.8110   34.5480  -12.2130 N.am  332  TYR332     -0.1976
     84  CA        -3.0700   34.4400  -10.9590 C.3   332  TYR332      0.1639
     85  C         -4.0130   34.2250   -9.7840 C.2   332  TYR332      0.2290
     86  O         -3.7020   33.4590   -8.8600 O.2   332  TYR332     -0.2864
     87  CB        -2.2050   35.6840  -10.7380 C.3   332  TYR332      0.0560
     88  CG        -1.2390   35.5360   -9.5840 C.ar  332  TYR332     -0.0198
     89  CD1        0.0130   34.9530   -9.7690 C.ar  332  TYR332     -0.0009
     90  CD2       -1.5800   35.9650   -8.3110 C.ar  332  TYR332     -0.0009
     91  CE1        0.8980   34.8090   -8.7120 C.ar  332  TYR332      0.0417
     92  CE2       -0.7060   35.8250   -7.2520 C.ar  332  TYR332      0.0417
     93  CZ         0.5300   35.2450   -7.4590 C.ar  332  TYR332      0.1957
     94  OH         1.3950   35.1000   -6.4030 O.3   332  TYR332     -0.2866
     95  N         -6.9930   32.7560  -10.0930 N.3   334  VAL334     -0.1231
     96  CA        -7.4540   31.3770  -10.2680 C.3   334  VAL334      0.1692
     97  C         -6.4460   30.4010   -9.6720 C.2   334  VAL334      0.2591
     98  O         -6.8120   29.4590   -8.9580 O.2   334  VAL334     -0.2718
     99  CB        -7.7120   31.0750  -11.7580 C.3   334  VAL334      0.0266
    100  CG1       -8.0320   29.5920  -11.9510 C.3   334  VAL334      0.0020
    101  CG2       -8.8490   31.9410  -12.3050 C.3   334  VAL334      0.0020
    102  N         -5.1580   30.6130   -9.9560 N.am  335  ARG335     -0.1980
    103  CA        -4.1250   29.7550   -9.3900 C.3   335  ARG335      0.1597
    104  C         -4.1340   29.8190   -7.8690 C.2   335  ARG335      0.2287
    105  O         -3.9990   28.7910   -7.1960 O.2   335  ARG335     -0.2864
    106  CB        -2.7570   30.1540   -9.9480 C.3   335  ARG335      0.0334
    107  CG        -1.5720   29.4950   -9.2550 C.3   335  ARG335      0.0492
    108  CD        -0.2480   30.0300   -9.7830 C.3   335  ARG335      0.2205
    109  NE         0.8740   29.2190   -9.3200 N.pl3 335  ARG335     -0.0865
    110  CZ         1.4620   29.3730   -8.1390 C.cat 335  ARG335      0.5346
    111  NH1        1.0400   30.3100   -7.3030 N.pl3 335  ARG335      0.1354
    112  NH2        2.4740   28.5860   -7.7930 N.pl3 335  ARG335      0.1354
@<TRIPOS>BOND
     1    57    56    2
     2    54    55    1
     3    56    55    1
     4    56    62   am
     5    55    58    1
     6    64    63    1
     7    64    65    2
     8    58    59    1
     9    63    62    1
    10    63    66    1
    11    45    46    2
    12    45    44    1
    13    62    68    1
    14    59    60    1
    15    44    43    1
    16    44    47    1
    17    66    67    1
    18    61    60    1
    19    68    67    1
    20    49    51   ar
    21    49    48   ar
    22    47    48    1
    23    28    27    1
    24    51    53   ar
    25    48    50   ar
    26    77    78   ar
    27    77    75   ar
    28    27    25   ar
    29    27    26   ar
    30    25    23   ar
    31    80    78   ar
    32    80    82   ar
    33    53    52   ar
    34    50    52   ar
    35    78    76   ar
    36    75    74   ar
    37    82    81   ar
    38    37    35   ar
    39    37    38   ar
    40    26    24   ar
    41    23    22   ar
    42    35    34   ar
    43    76    74   ar
    44    76    79   ar
    45    74    73    1
    46    81    79   ar
    47    38    40   ar
    48    38    36   ar
    49    40    42   ar
    50    24    22   ar
    51    22    21    1
    52    34    36   ar
    53    34    33    1
    54    73    70    1
    55    32    31    2
    56    36    39   ar
    57    20    19    2
    58    31    30    1
    59    33    30    1
    60    42    41   ar
    61    21    18    1
    62    69    70    1
    63    70    71    1
    64    19    18    1
    65    30    29    1
    66    18    17    1
    67    39    41   ar
    68    71    83   am
    69    71    72    2
    70    17    12   am
    71   101    99    1
    72    83    84    1
    73    13    12    2
    74     8     7   ar
    75   100    99    1
    76    99    96    1
    77    12    11    1
    78     6     7    1
    79     6     5    1
    80     7     9   ar
    81    84    87    1
    82    84    85    1
    83    87    88    1
    84    96    95    1
    85    96    97    1
    86    11    14    1
    87    11    10    1
    88     4     3    2
    89    14    15    1
    90     5     2    1
    91   102    97   am
    92   102   103    1
    93   106   103    1
    94   106   107    1
    95    85    86    2
    96   108   109    1
    97   108   107    1
    98    89    88   ar
    99    89    91   ar
   100    10     3   am
   101    10    16    1
   102     3     2    1
   103    97    98    2
   104    88    90   ar
   105   103   104    1
   106   109   110    2
   107    16    15    1
   108     2     1    1
   109    91    93   ar
   110    90    92   ar
   111   110   112    1
   112   110   111    1
   113   104   105    2
   114    93    92   ar
   115    93    94    1
