@<TRIPOS>MOLECULE
tmp/5vb2D00.pdb
 96 92 0 0 0
SMALL
GASTEIGER

@<TRIPOS>ATOM
      1  N        -12.0090  169.5060   34.0830 N.3   140  ILE140     -0.1245
      2  CA       -12.6840  169.0560   32.8670 C.3   140  ILE140      0.1561
      3  C        -13.5880  170.1580   32.3310 C.2   140  ILE140      0.2260
      4  O        -13.5810  170.4700   31.1350 O.2   140  ILE140     -0.2867
      5  CB       -13.4700  167.7600   33.1410 C.3   140  ILE140      0.0252
      6  CG1      -12.5020  166.5810   33.2790 C.3   140  ILE140      0.0019
      7  CG2      -14.4910  167.4800   32.0260 C.3   140  ILE140      0.0019
      8  CD1      -13.1300  165.3310   33.8590 C.3   140  ILE140      0.0001
      9  N        -11.6660  172.8860   30.8100 N.3   143  MET143     -0.1230
     10  CA       -11.1910  172.4780   29.4920 C.3   143  MET143      0.1702
     11  C        -12.2920  172.6010   28.4470 C.2   143  MET143      0.2593
     12  O        -12.0930  173.2100   27.3900 O.2   143  MET143     -0.2718
     13  CB       -10.6680  171.0410   29.5550 C.3   143  MET143      0.0401
     14  CG        -9.2830  170.8690   28.9850 C.3   143  MET143      0.0596
     15  SD        -8.1070  171.9770   29.7700 S.3   143  MET143     -0.1393
     16  CE        -6.7580  171.8950   28.6050 C.3   143  MET143      0.0692
     17  N        -13.4580  172.0170   28.7210 N.am  144  THR144     -0.1953
     18  CA       -14.5700  172.0960   27.7820 C.3   144  THR144      0.1897
     19  C        -14.8630  173.5420   27.4010 C.2   144  THR144      0.2313
     20  O        -15.0600  173.8620   26.2230 O.2   144  THR144     -0.2863
     21  CB       -15.8070  171.4340   28.3890 C.3   144  THR144      0.1794
     22  OG1      -15.5190  170.0580   28.6690 O.3   144  THR144     -0.2208
     23  CG2      -16.9900  171.5130   27.4370 C.3   144  THR144      0.0378
     24  N        -12.0660  174.6510   24.9760 N.3   147  PHE147     -0.1241
     25  CA       -12.3690  174.1370   23.6450 C.3   147  PHE147      0.1605
     26  C        -13.5090  174.9200   23.0050 C.2   147  PHE147      0.2264
     27  O        -13.3750  175.4480   21.8960 O.2   147  PHE147     -0.2867
     28  CB       -12.7260  172.6510   23.7290 C.3   147  PHE147      0.0534
     29  CG       -11.5410  171.7340   23.6150 C.ar  147  PHE147     -0.0203
     30  CD1      -10.5080  171.7910   24.5360 C.ar  147  PHE147     -0.0042
     31  CD2      -11.4680  170.8050   22.5910 C.ar  147  PHE147     -0.0042
     32  CE1       -9.4170  170.9430   24.4310 C.ar  147  PHE147     -0.0003
     33  CE2      -10.3820  169.9520   22.4810 C.ar  147  PHE147     -0.0003
     34  CZ        -9.3540  170.0220   23.4000 C.ar  147  PHE147     -0.0000
     35  N        -18.0220  174.0090   10.5790 N.3   168  THR168     -0.1218
     36  CA       -19.0920  173.8210   11.5430 C.3   168  THR168      0.1862
     37  C        -18.5080  173.8290   12.9490 C.2   168  THR168      0.2287
     38  O        -17.3620  173.4230   13.1640 O.2   168  THR168     -0.2866
     39  CB       -19.8500  172.5070   11.2430 C.3   168  THR168      0.1770
     40  OG1      -21.0240  172.8000   10.4760 O.3   168  THR168     -0.2211
     41  CG2      -20.2570  171.7710   12.5030 C.3   168  THR168      0.0375
     42  N        -19.2630  171.9440   15.4520 N.3   170  GLY170     -0.1210
     43  CA       -18.9140  170.5690   15.7570 C.3   170  GLY170      0.1956
     44  C        -17.6790  170.0740   15.0360 C.2   170  GLY170      0.2611
     45  O        -17.0820  169.0790   15.4590 O.2   170  GLY170     -0.2717
     46  N        -17.2750  170.7450   13.9590 N.am  171  GLU171     -0.1979
     47  CA       -16.1040  170.3310   13.2010 C.3   171  GLU171      0.1602
     48  C        -14.8310  170.9220   13.7800 C.2   171  GLU171      0.2287
     49  O        -13.8160  170.2260   13.8880 O.2   171  GLU171     -0.2864
     50  CB       -16.2610  170.7350   11.7330 C.3   171  GLU171      0.0415
     51  CG       -17.2620  169.8800   10.9880 C.3   171  GLU171      0.1163
     52  CD       -17.4460  170.3080    9.5520 C.2   171  GLU171      0.3649
     53  OE1      -16.9080  171.3700    9.1790 O.co2 171  GLU171     -0.2457
     54  OE2      -18.1310  169.5810    8.7990 O.co2 171  GLU171     -0.2457
     55  N        -14.5400  171.6280   16.8470 N.3   173  PHE173     -0.1227
     56  CA       -14.3830  170.8050   18.0420 C.3   173  PHE173      0.1736
     57  C        -13.6100  169.5320   17.7260 C.2   173  PHE173      0.2595
     58  O        -12.6660  169.1690   18.4390 O.2   173  PHE173     -0.2718
     59  CB       -15.7540  170.4610   18.6300 C.3   173  PHE173      0.0547
     60  CG       -16.0610  171.1730   19.9170 C.ar  173  PHE173     -0.0202
     61  CD1      -15.5250  170.7280   21.1120 C.ar  173  PHE173     -0.0042
     62  CD2      -16.8950  172.2790   19.9330 C.ar  173  PHE173     -0.0042
     63  CE1      -15.8090  171.3770   22.2980 C.ar  173  PHE173     -0.0003
     64  CE2      -17.1810  172.9310   21.1150 C.ar  173  PHE173     -0.0003
     65  CZ       -16.6370  172.4790   22.2990 C.ar  173  PHE173     -0.0000
     66  N        -13.9990  168.8360   16.6550 N.am  174  TYR174     -0.1976
     67  CA       -13.3160  167.5990   16.2960 C.3   174  TYR174      0.1639
     68  C        -11.8800  167.8650   15.8650 C.2   174  TYR174      0.2290
     69  O        -10.9720  167.1000   16.2080 O.2   174  TYR174     -0.2864
     70  CB       -14.0720  166.8770   15.1840 C.3   174  TYR174      0.0560
     71  CG       -13.3640  165.6320   14.7020 C.ar  174  TYR174     -0.0198
     72  CD1      -13.6210  164.3980   15.2800 C.ar  174  TYR174     -0.0009
     73  CD2      -12.4320  165.6920   13.6710 C.ar  174  TYR174     -0.0009
     74  CE1      -12.9750  163.2580   14.8460 C.ar  174  TYR174      0.0417
     75  CE2      -11.7800  164.5570   13.2300 C.ar  174  TYR174      0.0417
     76  CZ       -12.0550  163.3420   13.8200 C.ar  174  TYR174      0.1957
     77  OH       -11.4080  162.2070   13.3850 O.3   174  TYR174     -0.2866
     78  N         -9.7210  168.7790   18.9340 N.3   177  PHE177     -0.1241
     79  CA        -9.3330  167.5720   19.6530 C.3   177  PHE177      0.1605
     80  C         -8.1710  166.8850   18.9560 C.2   177  PHE177      0.2264
     81  O         -7.2020  166.4750   19.6060 O.2   177  PHE177     -0.2867
     82  CB       -10.5090  166.6060   19.7860 C.3   177  PHE177      0.0534
     83  CG       -10.1530  165.3380   20.5150 C.ar  177  PHE177     -0.0203
     84  CD1      -10.1190  165.3050   21.9010 C.ar  177  PHE177     -0.0042
     85  CD2       -9.8290  164.1880   19.8150 C.ar  177  PHE177     -0.0042
     86  CE1       -9.7820  164.1420   22.5750 C.ar  177  PHE177     -0.0003
     87  CE2       -9.4910  163.0220   20.4830 C.ar  177  PHE177     -0.0003
     88  CZ        -9.4680  163.0000   21.8640 C.ar  177  PHE177     -0.0000
     89  N         -5.0430  168.4990   19.7540 N.3   180  MET180     -0.1245
     90  CA        -4.6110  168.1280   21.0980 C.3   180  MET180      0.1570
     91  C         -3.9160  166.7740   21.0960 C.2   180  MET180      0.2261
     92  O         -2.8980  166.5910   21.7730 O.2   180  MET180     -0.2867
     93  CB        -5.8000  168.1080   22.0580 C.3   180  MET180      0.0387
     94  CG        -5.4760  167.4480   23.3980 C.3   180  MET180      0.0595
     95  SD        -6.7090  167.7380   24.6810 S.3   180  MET180     -0.1393
     96  CE        -8.0870  166.7830   24.0440 C.3   180  MET180      0.0692
@<TRIPOS>BOND
     1    54    52   ar
     2    53    52   ar
     3    52    51    1
     4    40    39    1
     5    35    36    1
     6    51    50    1
     7    39    36    1
     8    39    41    1
     9    36    37    1
    10    50    47    1
    11    37    38    2
    12    47    48    1
    13    47    46    1
    14    75    73   ar
    15    75    76   ar
    16    77    76    1
    17    73    71   ar
    18    48    49    2
    19    76    74   ar
    20    46    44   am
    21    71    70    1
    22    71    72   ar
    23    74    72   ar
    24    44    45    2
    25    44    43    1
    26    70    67    1
    27    42    43    1
    28    68    69    2
    29    68    67    1
    30    67    66    1
    31    66    57   am
    32    55    56    1
    33    57    56    1
    34    57    58    2
    35    56    59    1
    36    59    60    1
    37    78    79    1
    38    80    81    2
    39    80    79    1
    40    79    82    1
    41    89    90    1
    42    82    83    1
    43    85    87   ar
    44    85    83   ar
    45    60    62   ar
    46    60    61   ar
    47    62    64   ar
    48    87    88   ar
    49    83    84   ar
    50    91    90    1
    51    91    92    2
    52    90    93    1
    53    61    63   ar
    54    64    65   ar
    55    88    86   ar
    56    27    26    2
    57    84    86   ar
    58    93    94    1
    59    63    65   ar
    60    33    31   ar
    61    33    34   ar
    62    31    29   ar
    63    26    25    1
    64    94    95    1
    65    34    32   ar
    66    29    28    1
    67    29    30   ar
    68    25    28    1
    69    25    24    1
    70    96    95    1
    71    32    30   ar
    72    20    19    2
    73    12    11    2
    74    19    18    1
    75    23    21    1
    76    18    21    1
    77    18    17    1
    78    21    22    1
    79    11    17   am
    80    11    10    1
    81    16    15    1
    82    14    13    1
    83    14    15    1
    84    10    13    1
    85    10     9    1
    86     4     3    2
    87     7     5    1
    88     3     2    1
    89     2     5    1
    90     2     1    1
    91     5     6    1
    92     6     8    1
