@<TRIPOS>MOLECULE
tmp/5vb2D05.pdb
 80 73 0 0 0
SMALL
GASTEIGER

@<TRIPOS>ATOM
      1  N        -12.3150  156.6760   41.0120 N.3   131  SER131     -0.1202
      2  CA       -12.2960  157.5030   42.2150 C.3   131  SER131      0.2020
      3  C        -11.7240  158.8990   41.9730 C.2   131  SER131      0.2618
      4  O        -12.0320  159.8240   42.7350 O.2   131  SER131     -0.2717
      5  CB       -11.4990  156.7920   43.3090 C.3   131  SER131      0.2103
      6  OG       -10.1880  156.4900   42.8710 O.3   131  SER131     -0.2182
      7  N        -10.9070  159.0810   40.9320 N.am  132  VAL132     -0.1979
      8  CA       -10.2820  160.3800   40.6930 C.3   132  VAL132      0.1595
      9  C        -11.2450  161.3620   40.0260 C.2   132  VAL132      0.2287
     10  O        -11.0830  162.5800   40.1660 O.2   132  VAL132     -0.2864
     11  CB        -9.0210  160.2290   39.8270 C.3   132  VAL132      0.0276
     12  CG1       -8.2800  161.5550   39.7440 C.3   132  VAL132      0.0022
     13  CG2       -8.1040  159.1580   40.3740 C.3   132  VAL132      0.0022
     14  N        -12.9900  164.9590   41.4880 N.3   135  GLY135     -0.1210
     15  CA       -12.0880  166.0810   41.6950 C.3   135  GLY135      0.1956
     16  C        -11.7860  166.8290   40.4110 C.2   135  GLY135      0.2611
     17  O        -11.6480  168.0560   40.4130 O.2   135  GLY135     -0.2717
     18  N        -11.6950  166.1030   39.2920 N.am  136  MET136     -0.1979
     19  CA       -11.2940  166.6980   38.0220 C.3   136  MET136      0.1605
     20  C        -12.4100  167.4800   37.3420 C.2   136  MET136      0.2287
     21  O        -12.1180  168.2920   36.4590 O.2   136  MET136     -0.2864
     22  CB       -10.8150  165.6170   37.0490 C.3   136  MET136      0.0413
     23  CG        -9.8150  164.6130   37.6030 C.3   136  MET136      0.0598
     24  SD        -9.6080  163.2320   36.4500 S.3   136  MET136     -0.1393
     25  CE        -7.8290  163.1690   36.2620 C.3   136  MET136      0.0692
     26  N        -14.1400  170.0200   37.8660 N.3   138  SER138     -0.1202
     27  CA       -13.8060  171.4340   37.7410 C.3   138  SER138      0.2020
     28  C        -12.8780  171.6670   36.5550 C.2   138  SER138      0.2618
     29  O        -13.1580  172.4930   35.6790 O.2   138  SER138     -0.2717
     30  CB       -13.1510  171.9310   39.0280 C.3   138  SER138      0.2103
     31  OG       -13.7870  171.3860   40.1700 O.3   138  SER138     -0.2182
     32  N        -11.7620  170.9360   36.5150 N.am  139  VAL139     -0.1979
     33  CA       -10.7800  171.1120   35.4500 C.3   139  VAL139      0.1595
     34  C        -11.3610  170.6740   34.1110 C.2   139  VAL139      0.2287
     35  O        -11.2220  171.3690   33.0980 O.2   139  VAL139     -0.2864
     36  CB        -9.4920  170.3400   35.7910 C.3   139  VAL139      0.0276
     37  CG1       -8.4550  170.4960   34.6890 C.3   139  VAL139      0.0022
     38  CG2       -8.9330  170.8210   37.1230 C.3   139  VAL139      0.0022
     39  N         -2.4570  169.0130   35.9560 N.3   218  LEU218     -0.1245
     40  CA        -3.5230  168.3470   36.6950 C.3   218  LEU218      0.1561
     41  C         -3.0040  167.0920   37.3830 C.2   218  LEU218      0.2260
     42  O         -3.2080  166.8960   38.5850 O.2   218  LEU218     -0.2867
     43  CB        -4.6800  167.9960   35.7580 C.3   218  LEU218      0.0270
     44  CG        -5.6960  166.9850   36.3060 C.3   218  LEU218      0.0019
     45  CD1       -6.2470  167.4100   37.6670 C.3   218  LEU218      0.0001
     46  CD2       -6.8300  166.7950   35.3180 C.3   218  LEU218      0.0001
     47  N         -0.6330  167.6440   40.2500 N.3   221  ALA221     -0.1231
     48  CA        -1.3580  167.9650   41.4750 C.3   221  ALA221      0.1694
     49  C         -1.8840  166.7040   42.1470 C.2   221  ALA221      0.2591
     50  O         -1.6890  166.5010   43.3500 O.2   221  ALA221     -0.2718
     51  CB        -2.5050  168.9270   41.1650 C.3   221  ALA221      0.0304
     52  N         -2.5550  165.8410   41.3810 N.am  222  ILE222     -0.1980
     53  CA        -3.1030  164.6080   41.9450 C.3   222  ILE222      0.1595
     54  C         -2.0240  163.8510   42.7060 C.2   222  ILE222      0.2287
     55  O         -2.2370  163.3950   43.8350 O.2   222  ILE222     -0.2864
     56  CB        -3.7230  163.7420   40.8320 C.3   222  ILE222      0.0276
     57  CG1       -5.0020  164.4060   40.3170 C.3   222  ILE222      0.0022
     58  CG2       -4.0050  162.3180   41.3360 C.3   222  ILE222      0.0022
     59  CD1       -5.6080  163.7320   39.1140 C.3   222  ILE222      0.0001
     60  N         -1.0370  166.3990   45.7370 N.3   225  ASP225     -0.1225
     61  CA        -2.1150  166.5990   46.7010 C.3   225  ASP225      0.1805
     62  C         -2.4820  165.2970   47.4000 C.2   225  ASP225      0.2597
     63  O         -2.6920  165.2790   48.6170 O.2   225  ASP225     -0.2718
     64  CB        -3.3360  167.2010   46.0100 C.3   225  ASP225      0.1424
     65  CG        -3.1370  168.6550   45.6410 C.2   225  ASP225      0.3668
     66  OD1       -2.0690  169.2110   45.9720 O.co2 225  ASP225     -0.2456
     67  OD2       -4.0490  169.2430   45.0210 O.co2 225  ASP225     -0.2456
     68  N         -2.5740  164.1960   46.6490 N.am  226  ALA226     -0.1979
     69  CA        -2.7460  162.8950   47.2830 C.3   226  ALA226      0.1597
     70  C         -1.6100  162.6090   48.2470 C.2   226  ALA226      0.2287
     71  O         -1.7930  161.8810   49.2280 O.2   226  ALA226     -0.2864
     72  CB        -2.8200  161.7910   46.2290 C.3   226  ALA226      0.0319
     73  N         -1.9080  164.4400   51.7780 N.3   229  ILE229     -0.1245
     74  CA        -2.8590  163.7090   52.6080 C.3   229  ILE229      0.1561
     75  C         -2.1730  162.5340   53.2960 C.2   229  ILE229      0.2260
     76  O         -2.4460  162.2330   54.4640 O.2   229  ILE229     -0.2867
     77  CB        -4.0600  163.2610   51.7530 C.3   229  ILE229      0.0252
     78  CG1       -4.9490  164.4720   51.4590 C.3   229  ILE229      0.0019
     79  CG2       -4.8530  162.1480   52.4410 C.3   229  ILE229      0.0019
     80  CD1       -6.1050  164.1930   50.5220 C.3   229  ILE229      0.0001
@<TRIPOS>BOND
     1    35    34    2
     2    34    33    1
     3    37    36    1
     4    46    44    1
     5    33    36    1
     6    33    32    1
     7    29    28    2
     8    43    44    1
     9    43    40    1
    10    36    38    1
    11    39    40    1
    12    25    24    1
    13    44    45    1
    14    24    23    1
    15    21    20    2
    16    32    28   am
    17    28    27    1
    18    40    41    1
    19    22    23    1
    20    22    19    1
    21    20    19    1
    22    41    42    2
    23    27    26    1
    24    27    30    1
    25    19    18    1
    26    30    31    1
    27    59    57    1
    28    18    16   am
    29    12    11    1
    30    11    13    1
    31    11     8    1
    32     9    10    2
    33     9     8    1
    34    47    48    1
    35    57    56    1
    36    16    17    2
    37    16    15    1
    38     8     7    1
    39    56    58    1
    40    56    53    1
    41     7     3   am
    42     1     2    1
    43    51    48    1
    44    52    53    1
    45    52    49   am
    46    48    49    1
    47    14    15    1
    48    53    54    1
    49     3     2    1
    50     3     4    2
    51    49    50    2
    52     2     5    1
    53    54    55    2
    54     6     5    1
    55    67    65   ar
    56    65    66   ar
    57    65    64    1
    58    60    61    1
    59    64    61    1
    60    72    69    1
    61    68    69    1
    62    68    62   am
    63    61    62    1
    64    69    70    1
    65    62    63    2
    66    70    71    2
    67    80    78    1
    68    78    77    1
    69    77    79    1
    70    77    74    1
    71    73    74    1
    72    74    75    1
    73    75    76    2
