@<TRIPOS>MOLECULE
tmp/5vb2D08.pdb
 91 92 0 0 0
SMALL
GASTEIGER

@<TRIPOS>ATOM
      1  N        -12.6170  181.9030   11.9950 N.3   157  LEU157     -0.1231
      2  CA       -11.3500  182.2550   11.3660 C.3   157  LEU157      0.1693
      3  C        -11.0450  181.4140   10.1340 C.2   157  LEU157      0.2592
      4  O        -10.4970  181.9300    9.1550 O.2   157  LEU157     -0.2718
      5  CB       -10.2030  182.1000   12.3680 C.3   157  LEU157      0.0284
      6  CG       -10.0740  183.1200   13.4990 C.3   157  LEU157      0.0019
      7  CD1       -8.8370  182.7880   14.3100 C.3   157  LEU157      0.0001
      8  CD2      -10.0000  184.5420   12.9700 C.3   157  LEU157      0.0001
      9  N        -11.3850  180.1270   10.1600 N.am  158  PHE158     -0.1976
     10  CA       -10.9200  179.1960    9.1440 C.3   158  PHE158      0.1639
     11  C        -12.0240  178.3880    8.4850 C.2   158  PHE158      0.2290
     12  O        -11.7380  177.6740    7.5180 O.2   158  PHE158     -0.2864
     13  CB        -9.8990  178.2260    9.7540 C.3   158  PHE158      0.0560
     14  CG        -8.8230  178.9080   10.5520 C.ar  158  PHE158     -0.0200
     15  CD1       -8.0520  179.9100    9.9860 C.ar  158  PHE158     -0.0042
     16  CD2       -8.5960  178.5570   11.8740 C.ar  158  PHE158     -0.0042
     17  CE1       -7.0620  180.5410   10.7200 C.ar  158  PHE158     -0.0003
     18  CE2       -7.6080  179.1850   12.6140 C.ar  158  PHE158     -0.0003
     19  CZ        -6.8410  180.1780   12.0350 C.ar  158  PHE158     -0.0000
     20  N        -12.7710  179.3140    4.3090 N.3   161  ARG161     -0.1245
     21  CA       -11.8360  178.7720    3.3330 C.3   161  ARG161      0.1563
     22  C        -11.5420  177.2960    3.5550 C.2   161  ARG161      0.2260
     23  O        -11.0720  176.6280    2.6290 O.2   161  ARG161     -0.2867
     24  CB       -10.5340  179.5740    3.3670 C.3   161  ARG161      0.0307
     25  CG        -9.4170  179.0280    2.4910 C.3   161  ARG161      0.0489
     26  CD        -9.8370  178.9140    1.0350 C.3   161  ARG161      0.2205
     27  NE       -10.2920  180.1920    0.4990 N.pl3 161  ARG161     -0.0865
     28  CZ        -9.4900  181.2060    0.1950 C.cat 161  ARG161      0.5346
     29  NH1       -9.9940  182.3230   -0.2860 N.pl3 161  ARG161      0.1354
     30  NH2       -8.1870  181.1090    0.3850 N.pl3 161  ARG161      0.1354
     31  N         -3.0220  180.1200    3.4180 N.3   196  VAL196     -0.1231
     32  CA        -3.9880  181.2110    3.3410 C.3   196  VAL196      0.1692
     33  C         -3.7550  182.2320    4.4460 C.2   196  VAL196      0.2592
     34  O         -3.7210  183.4400    4.1950 O.2   196  VAL196     -0.2718
     35  CB        -5.4220  180.6420    3.4090 C.3   196  VAL196      0.0266
     36  CG1       -6.4520  181.7450    3.1630 C.3   196  VAL196      0.0020
     37  CG2       -5.5920  179.4970    2.4210 C.3   196  VAL196      0.0020
     38  N         -3.5920  181.7600    5.6840 N.am  197  TYR197     -0.1963
     39  CA        -3.4960  182.6130    6.8680 C.3   197  TYR197      0.1756
     40  C         -2.1410  182.3820    7.5260 C.2   197  TYR197      0.2461
     41  O         -2.0180  181.5290    8.4190 O.2   197  TYR197     -0.2730
     42  CB        -4.6250  182.3100    7.8490 C.3   197  TYR197      0.0574
     43  CG        -6.0170  182.2970    7.2510 C.ar  197  TYR197     -0.0198
     44  CD1       -6.6500  183.4750    6.8810 C.ar  197  TYR197     -0.0009
     45  CD2       -6.7090  181.1040    7.0850 C.ar  197  TYR197     -0.0009
     46  CE1       -7.9300  183.4650    6.3480 C.ar  197  TYR197      0.0417
     47  CE2       -7.9880  181.0840    6.5530 C.ar  197  TYR197      0.0417
     48  CZ        -8.5930  182.2670    6.1880 C.ar  197  TYR197      0.1957
     49  OH        -9.8650  182.2530    5.6600 O.3   197  TYR197     -0.2866
     50  N         -1.1050  183.1350    7.1490 N.am  198  PRO198     -0.2716
     51  CA         0.2510  182.7900    7.6120 C.3   198  PRO198      0.1536
     52  C          0.4430  182.8860    9.1170 C.2   198  PRO198      0.2599
     53  O          1.3780  182.2650    9.6390 O.2   198  PRO198     -0.2715
     54  CB         1.1380  183.7970    6.8690 C.3   198  PRO198      0.0310
     55  CG         0.2470  184.9540    6.6060 C.3   198  PRO198      0.0237
     56  CD        -1.1150  184.3760    6.3580 C.3   198  PRO198      0.0939
     57  N         -0.3960  183.6360    9.8320 N.am  199  TYR199     -0.1960
     58  CA        -0.2860  183.7610   11.2810 C.3   199  TYR199      0.1771
     59  C         -1.1910  182.7850   12.0250 C.2   199  TYR199      0.2619
     60  O         -1.4750  182.9940   13.2090 O.2   199  TYR199     -0.2715
     61  CB        -0.5970  185.1970   11.7130 C.3   199  TYR199      0.0574
     62  CG         0.5160  186.1880   11.4460 C.ar  199  TYR199     -0.0198
     63  CD1        1.8270  185.9150   11.8200 C.ar  199  TYR199     -0.0009
     64  CD2        0.2540  187.3990   10.8220 C.ar  199  TYR199     -0.0009
     65  CE1        2.8420  186.8200   11.5790 C.ar  199  TYR199      0.0417
     66  CE2        1.2620  188.3090   10.5760 C.ar  199  TYR199      0.0417
     67  CZ         2.5540  188.0150   10.9560 C.ar  199  TYR199      0.1957
     68  OH         3.5590  188.9230   10.7110 O.3   199  TYR199     -0.2866
     69  N         -1.6390  181.7180   11.3630 N.am  200  ALA200     -0.1977
     70  CA        -2.5000  180.7450   12.0220 C.3   200  ALA200      0.1597
     71  C         -1.7720  179.9900   13.1260 C.2   200  ALA200      0.2287
     72  O         -2.4260  179.3890   13.9840 O.2   200  ALA200     -0.2864
     73  CB        -3.0600  179.7590   10.9940 C.3   200  ALA200      0.0319
     74  N         -0.1180  181.3260   15.5420 N.3   202  VAL202     -0.1231
     75  CA        -0.3760  182.0440   16.7860 C.3   202  VAL202      0.1692
     76  C         -1.6330  181.5340   17.4720 C.2   202  VAL202      0.2592
     77  O         -1.8120  181.7480   18.6750 O.2   202  VAL202     -0.2718
     78  CB        -0.4750  183.5590   16.5060 C.3   202  VAL202      0.0266
     79  CG1       -1.0740  184.3100   17.6930 C.3   202  VAL202      0.0020
     80  CG2        0.8940  184.1160   16.1820 C.3   202  VAL202      0.0020
     81  N         -2.5180  180.8680   16.7340 N.am  203  PHE203     -0.1976
     82  CA        -3.7530  180.3450   17.3010 C.3   203  PHE203      0.1639
     83  C         -3.5900  178.9230   17.8200 C.2   203  PHE203      0.2290
     84  O         -4.1680  178.5730   18.8540 O.2   203  PHE203     -0.2864
     85  CB        -4.8640  180.3960   16.2470 C.3   203  PHE203      0.0560
     86  CG        -6.1460  179.7280   16.6710 C.ar  203  PHE203     -0.0200
     87  CD1       -6.2930  178.3520   16.5760 C.ar  203  PHE203     -0.0042
     88  CD2       -7.2110  180.4780   17.1370 C.ar  203  PHE203     -0.0042
     89  CE1       -7.4700  177.7360   16.9560 C.ar  203  PHE203     -0.0003
     90  CE2       -8.3920  179.8690   17.5160 C.ar  203  PHE203     -0.0003
     91  CZ        -8.5230  178.4960   17.4250 C.ar  203  PHE203     -0.0000
@<TRIPOS>BOND
     1    29    28    1
     2    28    30    1
     3    28    27    2
     4    27    26    1
     5    26    25    1
     6    37    35    1
     7    25    24    1
     8    23    22    2
     9    36    35    1
    10    21    24    1
    11    21    22    1
    12    21    20    1
    13    32    35    1
    14    32    31    1
    15    32    33    1
    16    34    33    2
    17    33    38   am
    18    49    48    1
    19    38    39    1
    20    48    46   ar
    21    48    47   ar
    22    46    44   ar
    23    56    55    1
    24    56    50    1
    25    47    45   ar
    26    55    54    1
    27    39    40    1
    28    39    42    1
    29    54    51    1
    30    44    43   ar
    31    45    43   ar
    32    50    40   am
    33    50    51    1
    34    43    42    1
    35    12    11    2
    36    40    41    2
    37    51    52    1
    38    11    10    1
    39    52    53    2
    40    52    57   am
    41    10    13    1
    42    10     9    1
    43     4     3    2
    44    13    14    1
    45    57    58    1
    46    15    14   ar
    47    15    17   ar
    48     3     9   am
    49     3     2    1
    50    14    16   ar
    51    66    64   ar
    52    66    67   ar
    53    68    67    1
    54    17    19   ar
    55    64    62   ar
    56    67    65   ar
    57    73    70    1
    58    58    61    1
    59    58    59    1
    60    69    70    1
    61    69    59   am
    62     2     1    1
    63     2     5    1
    64    62    61    1
    65    62    63   ar
    66    65    63   ar
    67    16    18   ar
    68    70    71    1
    69    59    60    2
    70    19    18   ar
    71     5     6    1
    72     8     6    1
    73    71    72    2
    74     6     7    1
    75    74    75    1
    76    80    78    1
    77    85    86    1
    78    85    82    1
    79    78    75    1
    80    78    79    1
    81    87    86   ar
    82    87    89   ar
    83    86    88   ar
    84    81    82    1
    85    81    76   am
    86    75    76    1
    87    89    91   ar
    88    88    90   ar
    89    82    83    1
    90    91    90   ar
    91    76    77    2
    92    83    84    2
