@<TRIPOS>MOLECULE
tmp/5vb2A05.pdb
 143 137 0 0 0
SMALL
GASTEIGER

@<TRIPOS>ATOM
      1  N         -5.2160  144.9790   35.6170 N.3   130  VAL130     -0.1231
      2  CA        -5.5430  146.0490   34.6800 C.3   130  VAL130      0.1692
      3  C         -5.3360  145.5810   33.2440 C.2   130  VAL130      0.2591
      4  O         -6.1900  145.7960   32.3760 O.2   130  VAL130     -0.2718
      5  CB        -4.7070  147.3020   34.9940 C.3   130  VAL130      0.0266
      6  CG1       -5.0890  148.4480   34.0680 C.3   130  VAL130      0.0020
      7  CG2       -4.8910  147.7090   36.4530 C.3   130  VAL130      0.0020
      8  N         -4.1920  144.9470   32.9690 N.am  131  ILE131     -0.1980
      9  CA        -3.9360  144.3970   31.6370 C.3   131  ILE131      0.1595
     10  C         -5.1310  143.5780   31.1670 C.2   131  ILE131      0.2287
     11  O         -5.6150  143.7360   30.0390 O.2   131  ILE131     -0.2864
     12  CB        -2.6480  143.5550   31.6470 C.3   131  ILE131      0.0276
     13  CG1       -1.4260  144.4690   31.7560 C.3   131  ILE131      0.0022
     14  CG2       -2.5540  142.6790   30.3910 C.3   131  ILE131      0.0022
     15  CD1       -0.1520  143.7420   32.1450 C.3   131  ILE131      0.0001
     16  N         -7.9900  145.7700   30.3690 N.3   134  MET134     -0.1230
     17  CA        -7.7730  146.4430   29.0920 C.3   134  MET134      0.1702
     18  C         -8.0180  145.4990   27.9240 C.2   134  MET134      0.2593
     19  O         -8.7330  145.8430   26.9760 O.2   134  MET134     -0.2718
     20  CB        -6.3550  147.0090   29.0320 C.3   134  MET134      0.0401
     21  CG        -6.1110  148.1570   29.9880 C.3   134  MET134      0.0596
     22  SD        -7.2620  149.5130   29.7220 S.3   134  MET134     -0.1393
     23  CE        -6.5930  150.2410   28.2290 C.3   134  MET134      0.0692
     24  N         -7.4210  144.3060   27.9680 N.am  135  THR135     -0.1953
     25  CA        -7.6280  143.3420   26.8940 C.3   135  THR135      0.1897
     26  C         -9.1120  143.1160   26.6440 C.2   135  THR135      0.2313
     27  O         -9.5600  143.0750   25.4920 O.2   135  THR135     -0.2863
     28  CB        -6.9370  142.0190   27.2280 C.3   135  THR135      0.1794
     29  OG1       -5.5400  142.2490   27.4490 O.3   135  THR135     -0.2208
     30  CG2       -7.1070  141.0190   26.0840 C.3   135  THR135      0.0378
     31  N        -10.4270  146.1870   24.8030 N.3   138  PHE138     -0.1241
     32  CA       -10.0720  146.0200   23.3980 C.3   138  PHE138      0.1605
     33  C        -10.9630  144.9780   22.7310 C.2   138  PHE138      0.2264
     34  O        -11.6260  145.2560   21.7250 O.2   138  PHE138     -0.2867
     35  CB        -8.5990  145.6210   23.2760 C.3   138  PHE138      0.0534
     36  CG        -7.6660  146.7810   23.0640 C.ar  138  PHE138     -0.0203
     37  CD1       -7.5550  147.7840   24.0100 C.ar  138  PHE138     -0.0042
     38  CD2       -6.8880  146.8580   21.9210 C.ar  138  PHE138     -0.0042
     39  CE1       -6.6910  148.8530   23.8150 C.ar  138  PHE138     -0.0003
     40  CE2       -6.0230  147.9210   21.7220 C.ar  138  PHE138     -0.0003
     41  CZ        -5.9250  148.9200   22.6710 C.ar  138  PHE138     -0.0000
     42  N         -9.9660  146.4880    5.0790 N.3   155  GLU155     -0.1245
     43  CA        -8.5440  146.4170    5.3950 C.3   155  GLU155      0.1567
     44  C         -8.2900  146.7650    6.8530 C.2   155  GLU155      0.2260
     45  O         -7.3920  146.2030    7.4890 O.2   155  GLU155     -0.2867
     46  CB        -7.7550  147.3530    4.4830 C.3   155  GLU155      0.0388
     47  CG        -6.2540  147.3170    4.7340 C.3   155  GLU155      0.1160
     48  CD        -5.4900  148.2240    3.8030 C.2   155  GLU155      0.3649
     49  OE1       -6.1230  148.8240    2.9080 O.co2 155  GLU155     -0.2457
     50  OE2       -4.2580  148.3420    3.9710 O.co2 155  GLU155     -0.2457
     51  N        -11.6250  142.1140    9.9350 N.3   159  THR159     -0.1203
     52  CA       -11.3910  140.9330   10.7470 C.3   159  THR159      0.1994
     53  C        -11.1980  141.3570   12.1970 C.2   159  THR159      0.2618
     54  O        -10.7180  142.4600   12.4730 O.2   159  THR159     -0.2717
     55  CB       -10.1650  140.1580   10.2130 C.3   159  THR159      0.1784
     56  OG1      -10.5270  139.4710    9.0110 O.3   159  THR159     -0.2211
     57  CG2       -9.6410  139.1540   11.2110 C.3   159  THR159      0.0376
     58  N        -11.6100  140.4860   13.1240 N.am  160  LEU160     -0.1965
     59  CA       -11.4090  140.7620   14.5430 C.3   160  LEU160      0.1728
     60  C         -9.9610  141.1480   14.8090 C.2   160  LEU160      0.2617
     61  O         -9.6800  142.1790   15.4270 O.2   160  LEU160     -0.2715
     62  CB       -11.7990  139.5410   15.3820 C.3   160  LEU160      0.0311
     63  CG       -12.4040  139.8100   16.7630 C.3   160  LEU160      0.0022
     64  CD1      -12.6250  138.5050   17.5110 C.3   160  LEU160      0.0001
     65  CD2      -11.5380  140.7460   17.5860 C.3   160  LEU160      0.0001
     66  N         -9.0250  140.3180   14.3500 N.am  161  GLY161     -0.1940
     67  CA        -7.6130  140.6310   14.4600 C.3   161  GLY161      0.2014
     68  C         -7.2020  141.9260   13.7880 C.2   161  GLY161      0.2638
     69  O         -6.2000  142.5310   14.1880 O.2   161  GLY161     -0.2714
     70  N         -7.9470  142.3670   12.7750 N.am  162  GLU162     -0.1977
     71  CA        -7.6120  143.6210   12.1100 C.3   162  GLU162      0.1602
     72  C         -8.1260  144.8180   12.8970 C.2   162  GLU162      0.2287
     73  O         -7.4270  145.8310   13.0190 O.2   162  GLU162     -0.2864
     74  CB        -8.1740  143.6300   10.6890 C.3   162  GLU162      0.0415
     75  CG        -7.4070  142.7300    9.7410 C.3   162  GLU162      0.1163
     76  CD        -7.9730  142.7290    8.3390 C.2   162  GLU162      0.3649
     77  OE1       -9.0990  143.2350    8.1500 O.co2 162  GLU162     -0.2457
     78  OE2       -7.2900  142.2220    7.4240 O.co2 162  GLU162     -0.2457
     79  N         -8.4560  144.7170   16.0890 N.3   164  PHE164     -0.1227
     80  CA        -7.4840  144.7250   17.1770 C.3   164  PHE164      0.1736
     81  C         -6.2450  145.5240   16.7940 C.2   164  PHE164      0.2595
     82  O         -5.8120  146.4160   17.5330 O.2   164  PHE164     -0.2718
     83  CB        -7.0970  143.2950   17.5540 C.3   164  PHE164      0.0547
     84  CG        -7.6500  142.8540   18.8730 C.ar  164  PHE164     -0.0202
     85  CD1       -7.0460  143.2450   20.0550 C.ar  164  PHE164     -0.0042
     86  CD2       -8.7780  142.0550   18.9330 C.ar  164  PHE164     -0.0042
     87  CE1       -7.5540  142.8450   21.2710 C.ar  164  PHE164     -0.0003
     88  CE2       -9.2930  141.6510   20.1460 C.ar  164  PHE164     -0.0003
     89  CZ        -8.6790  142.0460   21.3180 C.ar  164  PHE164     -0.0000
     90  N         -5.6560  145.2110   15.6380 N.am  165  TYR165     -0.1976
     91  CA        -4.4780  145.9480   15.1950 C.3   165  TYR165      0.1639
     92  C         -4.7930  147.4270   15.0250 C.2   165  TYR165      0.2290
     93  O         -3.9980  148.2890   15.4180 O.2   165  TYR165     -0.2864
     94  CB        -3.9450  145.3630   13.8880 C.3   165  TYR165      0.0560
     95  CG        -2.7670  146.1300   13.3300 C.ar  165  TYR165     -0.0198
     96  CD1       -1.4660  145.7860   13.6690 C.ar  165  TYR165     -0.0009
     97  CD2       -2.9550  147.2040   12.4700 C.ar  165  TYR165     -0.0009
     98  CE1       -0.3890  146.4860   13.1680 C.ar  165  TYR165      0.0417
     99  CE2       -1.8850  147.9090   11.9640 C.ar  165  TYR165      0.0417
    100  CZ        -0.6040  147.5460   12.3150 C.ar  165  TYR165      0.1957
    101  OH         0.4680  148.2460   11.8120 O.3   165  TYR165     -0.2866
    102  N         -5.3380  149.1740   18.4540 N.3   168  PHE168     -0.1241
    103  CA        -4.0420  149.4570   19.0580 C.3   168  PHE168      0.1605
    104  C         -3.4020  150.6760   18.4080 C.2   168  PHE168      0.2264
    105  O         -2.8490  151.5370   19.1010 O.2   168  PHE168     -0.2867
    106  CB        -3.1120  148.2510   18.9430 C.3   168  PHE168      0.0534
    107  CG        -1.7350  148.5060   19.4890 C.ar  168  PHE168     -0.0203
    108  CD1       -1.4670  148.3410   20.8380 C.ar  168  PHE168     -0.0042
    109  CD2       -0.7110  148.9250   18.6560 C.ar  168  PHE168     -0.0042
    110  CE1       -0.2030  148.5790   21.3420 C.ar  168  PHE168     -0.0003
    111  CE2        0.5570  149.1660   19.1570 C.ar  168  PHE168     -0.0003
    112  CZ         0.8100  148.9920   20.5000 C.ar  168  PHE168     -0.0000
    113  N         -4.9210  153.6880   19.6760 N.3   171  MET171     -0.1245
    114  CA        -4.4070  153.9430   21.0170 C.3   171  MET171      0.1570
    115  C         -3.0660  154.6600   20.9550 C.2   171  MET171      0.2261
    116  O         -2.8380  155.6320   21.6840 O.2   171  MET171     -0.2867
    117  CB        -4.2840  152.6340   21.7970 C.3   171  MET171      0.0387
    118  CG        -3.5080  152.7680   23.1010 C.3   171  MET171      0.0595
    119  SD        -3.7440  151.3720   24.2180 S.3   171  MET171     -0.1393
    120  CE        -2.7930  150.1060   23.3820 C.3   171  MET171      0.0692
    121  N         -7.0180  155.1460   31.7420 N.3   205  VAL205     -0.1231
    122  CA        -6.5340  153.9780   32.4720 C.3   205  VAL205      0.1692
    123  C         -5.0110  153.9720   32.5250 C.2   205  VAL205      0.2591
    124  O         -4.4110  153.8090   33.5940 O.2   205  VAL205     -0.2718
    125  CB        -7.0800  152.6890   31.8360 C.3   205  VAL205      0.0266
    126  CG1       -6.4210  151.4610   32.4530 C.3   205  VAL205      0.0020
    127  CG2       -8.5860  152.6230   32.0110 C.3   205  VAL205      0.0020
    128  N         -4.3600  154.1310   31.3720 N.am  206  MET206     -0.1979
    129  CA        -2.9020  154.0900   31.3400 C.3   206  MET206      0.1605
    130  C         -2.2990  155.0770   32.3330 C.2   206  MET206      0.2287
    131  O         -1.4640  154.7090   33.1660 O.2   206  MET206     -0.2864
    132  CB        -2.3970  154.3900   29.9320 C.3   206  MET206      0.0413
    133  CG        -2.4800  153.2190   28.9680 C.3   206  MET206      0.0598
    134  SD        -1.8320  153.6460   27.3370 S.3   206  MET206     -0.1393
    135  CE        -0.1370  154.0900   27.7400 C.3   206  MET206      0.0692
    136  N         -3.3840  154.3880   36.1050 N.3   209  LEU209     -0.1245
    137  CA        -2.6500  153.2170   36.5730 C.3   209  LEU209      0.1561
    138  C         -1.3110  153.6190   37.1800 C.2   209  LEU209      0.2260
    139  O         -0.9830  153.2320   38.3080 O.2   209  LEU209     -0.2867
    140  CB        -2.4380  152.2370   35.4180 C.3   209  LEU209      0.0270
    141  CG        -1.3690  151.1510   35.5990 C.3   209  LEU209      0.0019
    142  CD1       -1.9800  149.8000   35.9270 C.3   209  LEU209      0.0001
    143  CD2       -0.5280  151.0790   34.3520 C.3   209  LEU209      0.0001
@<TRIPOS>BOND
     1    49    48   ar
     2    48    50   ar
     3    48    47    1
     4    46    47    1
     5    46    43    1
     6    42    43    1
     7    43    44    1
     8    44    45    2
     9    78    76   ar
    10    77    76   ar
    11    76    75    1
    12    56    55    1
    13    75    74    1
    14    51    52    1
    15    55    52    1
    16    55    57    1
    17    74    71    1
    18    52    53    1
    19   101   100    1
    20    99   100   ar
    21    99    97   ar
    22    71    70    1
    23    71    72    1
    24    53    54    2
    25    53    58   am
    26   100    98   ar
    27    97    95   ar
    28    70    68   am
    29    72    73    2
    30    58    59    1
    31    98    96   ar
    32    95    96   ar
    33    95    94    1
    34    68    69    2
    35    68    67    1
    36    94    91    1
    37    66    67    1
    38    66    60   am
    39    59    60    1
    40    59    62    1
    41    60    61    2
    42    92    91    1
    43    92    93    2
    44    91    90    1
    45    62    63    1
    46    90    81   am
    47    79    80    1
    48    63    64    1
    49    63    65    1
    50    81    80    1
    51    81    82    2
    52    80    83    1
    53    83    84    1
    54   104   103    1
    55   104   105    2
    56   102   103    1
    57   109   111   ar
    58   109   107   ar
    59    84    86   ar
    60    84    85   ar
    61    86    88   ar
    62   106   103    1
    63   106   107    1
    64   111   112   ar
    65   107   108   ar
    66   113   114    1
    67    85    87   ar
    68    88    89   ar
    69   112   110   ar
    70   108   110   ar
    71   115   114    1
    72   115   116    2
    73   114   117    1
    74    87    89   ar
    75    40    38   ar
    76    40    41   ar
    77    34    33    2
    78   117   118    1
    79    38    36   ar
    80    41    39   ar
    81    33    32    1
    82    36    35    1
    83    36    37   ar
    84   118   119    1
    85    35    32    1
    86   120   119    1
    87    32    31    1
    88    39    37   ar
    89    27    26    2
    90    30    28    1
    91    26    25    1
    92    25    28    1
    93    25    24    1
    94    19    18    2
    95    28    29    1
    96   134   135    1
    97   134   133    1
    98    18    24   am
    99    18    17    1
   100    23    22    1
   101   133   132    1
   102    20    17    1
   103    20    21    1
   104    17    16    1
   105    22    21    1
   106   132   129    1
   107    11    10    2
   108    14    12    1
   109    10     9    1
   110   129   128    1
   111   129   130    1
   112   128   123   am
   113     9    12    1
   114     9     8    1
   115    12    13    1
   116   121   122    1
   117    13    15    1
   118   125   127    1
   119   125   126    1
   120   125   122    1
   121   130   131    2
   122     4     3    2
   123   122   123    1
   124   123   124    2
   125     8     3   am
   126     3     2    1
   127     6     5    1
   128   143   141    1
   129     2     5    1
   130     2     1    1
   131     5     7    1
   132   140   141    1
   133   140   137    1
   134   141   142    1
   135   136   137    1
   136   137   138    1
   137   138   139    2
