@<TRIPOS>MOLECULE
tmp/5vb2A04.pdb
 135 134 0 0 0
SMALL
GASTEIGER

@<TRIPOS>ATOM
      1  N        -11.4970  145.2520   27.2820 N.3   137  PHE137     -0.1241
      2  CA       -11.9810  146.4780   26.6590 C.3   137  PHE137      0.1605
      3  C        -11.6780  146.4800   25.1670 C.2   137  PHE137      0.2264
      4  O        -12.5600  146.7420   24.3400 O.2   137  PHE137     -0.2867
      5  CB       -11.3500  147.6860   27.3510 C.3   137  PHE137      0.0534
      6  CG       -11.8250  149.0040   26.8230 C.ar  137  PHE137     -0.0203
      7  CD1      -13.0780  149.4870   27.1550 C.ar  137  PHE137     -0.0042
      8  CD2      -11.0120  149.7680   26.0020 C.ar  137  PHE137     -0.0042
      9  CE1      -13.5170  150.7040   26.6710 C.ar  137  PHE137     -0.0003
     10  CE2      -11.4460  150.9860   25.5160 C.ar  137  PHE137     -0.0003
     11  CZ       -12.7000  151.4540   25.8510 C.ar  137  PHE137     -0.0000
     12  N        -14.4030  146.2680   22.0010 N.3   141  PHE141     -0.1241
     13  CA       -14.4340  147.2890   20.9610 C.3   141  PHE141      0.1605
     14  C        -13.9520  146.7430   19.6260 C.2   141  PHE141      0.2264
     15  O        -14.3990  147.2070   18.5710 O.2   141  PHE141     -0.2867
     16  CB       -13.5970  148.4930   21.3860 C.3   141  PHE141      0.0534
     17  CG       -14.3600  149.4900   22.2040 C.ar  141  PHE141     -0.0203
     18  CD1      -14.8310  149.1550   23.4620 C.ar  141  PHE141     -0.0042
     19  CD2      -14.6180  150.7580   21.7110 C.ar  141  PHE141     -0.0042
     20  CE1      -15.5420  150.0660   24.2140 C.ar  141  PHE141     -0.0003
     21  CE2      -15.3260  151.6730   22.4600 C.ar  141  PHE141     -0.0003
     22  CZ       -15.7880  151.3270   23.7140 C.ar  141  PHE141     -0.0000
     23  N        -17.0560  145.3460   18.1810 N.3   144  MET144     -0.1245
     24  CA       -17.9360  146.4230   17.7350 C.3   144  MET144      0.1570
     25  C        -17.4140  147.0570   16.4520 C.2   144  MET144      0.2261
     26  O        -18.1750  147.2950   15.5070 O.2   144  MET144     -0.2867
     27  CB       -18.0760  147.4810   18.8300 C.3   144  MET144      0.0387
     28  CG       -18.7250  146.9690   20.0930 C.3   144  MET144      0.0595
     29  SD       -18.9780  148.2250   21.3640 S.3   144  MET144     -0.1393
     30  CE       -20.6840  148.6750   21.0440 C.3   144  MET144      0.0692
     31  N        -19.3040  147.1960   12.9080 N.3   148  LEU148     -0.1231
     32  CA       -19.7180  148.5320   12.4970 C.3   148  LEU148      0.1693
     33  C        -19.0330  149.0130   11.2280 C.2   148  LEU148      0.2592
     34  O        -19.6580  149.7130   10.4250 O.2   148  LEU148     -0.2718
     35  CB       -19.4370  149.5430   13.6160 C.3   148  LEU148      0.0284
     36  CG       -20.3680  149.5790   14.8280 C.3   148  LEU148      0.0019
     37  CD1      -19.9460  150.7210   15.7490 C.3   148  LEU148      0.0001
     38  CD2      -21.8280  149.7330   14.4200 C.3   148  LEU148      0.0001
     39  N        -17.7640  148.6590   11.0260 N.am  149  PHE149     -0.1976
     40  CA       -16.9590  149.2640    9.9750 C.3   149  PHE149      0.1639
     41  C        -16.2760  148.2700    9.0480 C.2   149  PHE149      0.2290
     42  O        -15.6780  148.7000    8.0570 O.2   149  PHE149     -0.2864
     43  CB       -15.8860  150.1700   10.5980 C.3   149  PHE149      0.0560
     44  CG       -16.4350  151.1820   11.5660 C.ar  149  PHE149     -0.0200
     45  CD1      -17.4710  152.0230   11.1970 C.ar  149  PHE149     -0.0042
     46  CD2      -15.9230  151.2820   12.8480 C.ar  149  PHE149     -0.0042
     47  CE1      -17.9790  152.9540   12.0840 C.ar  149  PHE149     -0.0003
     48  CE2      -16.4270  152.2090   13.7410 C.ar  149  PHE149     -0.0003
     49  CZ       -17.4560  153.0450   13.3580 C.ar  149  PHE149     -0.0000
     50  N        -17.6140  148.2530    4.9760 N.3   152  ARG152     -0.1245
     51  CA       -17.1390  149.2780    4.0580 C.3   152  ARG152      0.1563
     52  C        -15.6430  149.5390    4.1630 C.2   152  ARG152      0.2260
     53  O        -15.0830  150.1930    3.2790 O.2   152  ARG152     -0.2867
     54  CB       -17.8900  150.5890    4.3070 C.3   152  ARG152      0.0307
     55  CG       -19.3430  150.5800    3.8470 C.3   152  ARG152      0.0489
     56  CD       -19.5150  151.3280    2.5380 C.3   152  ARG152      0.2205
     57  NE       -20.9050  151.7170    2.3030 N.pl3 152  ARG152     -0.0865
     58  CZ       -21.2790  152.7650    1.5720 C.cat 152  ARG152      0.5346
     59  NH1      -20.3720  153.5520    1.0050 N.pl3 152  ARG152      0.1354
     60  NH2      -22.5660  153.0370    1.4140 N.pl3 152  ARG152      0.1354
     61  N        -18.3060  157.8990    5.2850 N.3   187  VAL187     -0.1231
     62  CA       -19.3800  156.9150    5.2040 C.3   187  VAL187      0.1692
     63  C        -20.2700  156.9680    6.4370 C.2   187  VAL187      0.2592
     64  O        -21.4990  156.9990    6.3330 O.2   187  VAL187     -0.2718
     65  CB       -18.7790  155.5050    5.0200 C.3   187  VAL187      0.0266
     66  CG1      -19.8810  154.4780    4.7900 C.3   187  VAL187      0.0020
     67  CG2      -17.7770  155.4950    3.8890 C.3   187  VAL187      0.0020
     68  N        -19.6580  156.9710    7.6210 N.am  188  TYR188     -0.1963
     69  CA       -20.3700  156.9040    8.8950 C.3   188  TYR188      0.1756
     70  C        -20.0690  158.1760    9.6780 C.2   188  TYR188      0.2461
     71  O        -19.0950  158.2230   10.4440 O.2   188  TYR188     -0.2730
     72  CB       -19.9510  155.6660    9.6850 C.3   188  TYR188      0.0574
     73  CG       -20.0960  154.3550    8.9380 C.ar  188  TYR188     -0.0198
     74  CD1      -21.3460  153.8460    8.6190 C.ar  188  TYR188     -0.0009
     75  CD2      -18.9790  153.6160    8.5750 C.ar  188  TYR188     -0.0009
     76  CE1      -21.4800  152.6440    7.9470 C.ar  188  TYR188      0.0417
     77  CE2      -19.1030  152.4130    7.9040 C.ar  188  TYR188      0.0417
     78  CZ       -20.3540  151.9320    7.5920 C.ar  188  TYR188      0.1957
     79  OH       -20.4840  150.7350    6.9250 O.3   188  TYR188     -0.2866
     80  N        -20.8910  159.2200    9.5490 N.am  189  PRO189     -0.2716
     81  CA       -20.5030  160.5250   10.1110 C.3   189  PRO189      0.1536
     82  C        -20.3670  160.5360   11.6250 C.2   189  PRO189      0.2599
     83  O        -19.6940  161.4260   12.1590 O.2   189  PRO189     -0.2715
     84  CB       -21.6320  161.4520    9.6430 C.3   189  PRO189      0.0310
     85  CG       -22.8060  160.5560    9.5040 C.3   189  PRO189      0.0237
     86  CD       -22.2650  159.2410    9.0180 C.3   189  PRO189      0.0939
     87  N        -20.9790  159.5850   12.3330 N.am  190  TYR190     -0.1960
     88  CA       -20.9280  159.5330   13.7890 C.3   190  TYR190      0.1771
     89  C        -19.8380  158.5990   14.3060 C.2   190  TYR190      0.2619
     90  O        -19.8870  158.1850   15.4680 O.2   190  TYR190     -0.2715
     91  CB       -22.2860  159.1050   14.3490 C.3   190  TYR190      0.0574
     92  CG       -23.3630  160.1640   14.2750 C.ar  190  TYR190     -0.0198
     93  CD1      -23.1480  161.4390   14.7780 C.ar  190  TYR190     -0.0009
     94  CD2      -24.5980  159.8850   13.7070 C.ar  190  TYR190     -0.0009
     95  CE1      -24.1320  162.4040   14.7180 C.ar  190  TYR190      0.0417
     96  CE2      -25.5880  160.8470   13.6400 C.ar  190  TYR190      0.0417
     97  CZ       -25.3480  162.1060   14.1470 C.ar  190  TYR190      0.1957
     98  OH       -26.3280  163.0700   14.0870 O.3   190  TYR190     -0.2866
     99  N        -18.8530  158.2630   13.4730 N.am  191  ALA191     -0.1977
    100  CA       -17.7930  157.3630   13.9090 C.3   191  ALA191      0.1597
    101  C        -16.9480  157.9640   15.0250 C.2   191  ALA191      0.2287
    102  O        -16.2730  157.2210   15.7450 O.2   191  ALA191     -0.2864
    103  CB       -16.9010  156.9860   12.7240 C.3   191  ALA191      0.0319
    104  N        -18.0430  159.2160   17.7280 N.3   193  VAL193     -0.1231
    105  CA       -18.6420  158.7830   18.9850 C.3   193  VAL193      0.1692
    106  C        -18.0630  157.4590   19.4580 C.2   193  VAL193      0.2592
    107  O        -18.1580  157.1300   20.6440 O.2   193  VAL193     -0.2718
    108  CB       -20.1730  158.6930   18.8210 C.3   193  VAL193      0.0266
    109  CG1      -20.8210  157.9140   19.9740 C.3   193  VAL193      0.0020
    110  CG2      -20.7590  160.0850   18.7230 C.3   193  VAL193      0.0020
    111  N        -17.4700  156.6820   18.5550 N.am  194  PHE194     -0.1976
    112  CA       -16.9010  155.3870   18.9020 C.3   194  PHE194      0.1639
    113  C        -15.4280  155.4910   19.2710 C.2   194  PHE194      0.2290
    114  O        -14.9680  154.7950   20.1810 O.2   194  PHE194     -0.2864
    115  CB       -17.0880  154.4230   17.7270 C.3   194  PHE194      0.0560
    116  CG       -16.4530  153.0710   17.9240 C.ar  194  PHE194     -0.0200
    117  CD1      -15.0940  152.8850   17.7120 C.ar  194  PHE194     -0.0042
    118  CD2      -17.2240  151.9760   18.2780 C.ar  194  PHE194     -0.0042
    119  CE1      -14.5120  151.6390   17.8780 C.ar  194  PHE194     -0.0003
    120  CE2      -16.6500  150.7270   18.4430 C.ar  194  PHE194     -0.0003
    121  CZ       -15.2910  150.5580   18.2410 C.ar  194  PHE194     -0.0000
    122  N        -14.3470  158.3140   22.7120 N.3   197  PRO197     -0.2116
    123  CA       -14.3900  157.5400   23.9640 C.3   197  PRO197      0.1372
    124  C        -13.2940  156.4940   24.0750 C.2   197  PRO197      0.2244
    125  O        -12.6330  156.4000   25.1180 O.2   197  PRO197     -0.2868
    126  CB       -15.7840  156.9040   23.9180 C.3   197  PRO197      0.0268
    127  CG       -16.5930  157.8790   23.1860 C.3   197  PRO197      0.0207
    128  CD       -15.6980  158.4800   22.1430 C.3   197  PRO197      0.0892
    129  N        -10.9970  156.6460   27.3910 N.3   201  VAL201     -0.1245
    130  CA       -10.9300  155.5150   28.3160 C.3   201  VAL201      0.1561
    131  C         -9.5160  154.9540   28.3690 C.2   201  VAL201      0.2260
    132  O         -8.9170  154.8210   29.4430 O.2   201  VAL201     -0.2867
    133  CB       -11.9430  154.4320   27.9050 C.3   201  VAL201      0.0252
    134  CG1      -11.6840  153.1290   28.6600 C.3   201  VAL201      0.0019
    135  CG2      -13.3600  154.9190   28.1490 C.3   201  VAL201      0.0019
@<TRIPOS>BOND
     1    59    58    1
     2    60    58    1
     3    58    57    2
     4    57    56    1
     5    56    55    1
     6    53    52    2
     7    55    54    1
     8    67    65    1
     9    51    52    1
    10    51    54    1
    11    51    50    1
    12    66    65    1
    13    65    62    1
    14    62    61    1
    15    62    63    1
    16    64    63    2
    17    63    68   am
    18    79    78    1
    19    78    77   ar
    20    78    76   ar
    21    68    69    1
    22    77    75   ar
    23    76    74   ar
    24    42    41    2
    25    75    73   ar
    26    74    73   ar
    27    69    70    1
    28    69    72    1
    29    73    72    1
    30    86    85    1
    31    86    80    1
    32    41    40    1
    33    85    84    1
    34    80    70   am
    35    80    81    1
    36    84    81    1
    37    70    71    2
    38    40    43    1
    39    40    39    1
    40    81    82    1
    41    34    33    2
    42    43    44    1
    43    39    33   am
    44    45    44   ar
    45    45    47   ar
    46    33    32    1
    47    44    46   ar
    48    82    83    2
    49    82    87   am
    50    47    49   ar
    51    87    88    1
    52    32    31    1
    53    32    35    1
    54   103   100    1
    55    46    48   ar
    56    49    48   ar
    57    99   100    1
    58    99    89   am
    59    35    36    1
    60    96    94   ar
    61    96    97   ar
    62    94    92   ar
    63    88    89    1
    64    88    91    1
    65   100   101    1
    66    98    97    1
    67    97    95   ar
    68    92    91    1
    69    92    93   ar
    70    89    90    2
    71    38    36    1
    72    95    93   ar
    73    36    37    1
    74   101   102    2
    75    26    25    2
    76    25    24    1
    77   117   119   ar
    78   117   116   ar
    79   115   116    1
    80   115   112    1
    81   104   105    1
    82    24    23    1
    83    24    27    1
    84   119   121   ar
    85   116   118   ar
    86   121   120   ar
    87   118   120   ar
    88   111   112    1
    89   111   106   am
    90    15    14    2
    91   110   108    1
    92   108   105    1
    93   108   109    1
    94    27    28    1
    95   112   113    1
    96   105   106    1
    97   113   114    2
    98   106   107    2
    99    14    13    1
   100    28    29    1
   101    13    16    1
   102    13    12    1
   103    30    29    1
   104    16    17    1
   105    19    17   ar
   106    19    21   ar
   107   128   122    1
   108   128   127    1
   109    17    18   ar
   110    21    22   ar
   111   122   123    1
   112   127   126    1
   113    18    20   ar
   114    22    20   ar
   115   126   123    1
   116   123   124    1
   117   124   125    2
   118     4     3    2
   119     3     2    1
   120    10    11   ar
   121    10     8   ar
   122    11     9   ar
   123     8     6   ar
   124     2     1    1
   125     2     5    1
   126     9     7   ar
   127     6     7   ar
   128     6     5    1
   129   129   130    1
   130   133   135    1
   131   133   130    1
   132   133   134    1
   133   130   131    1
   134   131   132    2
