@<TRIPOS>MOLECULE
tmp/5vb7A00.pdb
 248 239 0 0 0
SMALL
GASTEIGER

@<TRIPOS>ATOM
      1  N          8.0080   19.3980   14.6130 N.3    21  CYS21      -0.1221
      2  CA         7.3360   20.5740   15.1560 C.3    21  CYS21       0.1808
      3  C          6.4700   21.3000   14.1330 C.2    21  CYS21       0.2601
      4  O          5.8110   22.2800   14.4980 O.2    21  CYS21      -0.2717
      5  CB         8.3490   21.5390   15.7700 C.3    21  CYS21       0.0970
      6  SG         9.4790   22.2600   14.5670 S.3    21  CYS21      -0.0800
      7  N          6.4700   20.8520   12.8740 N.am   22  GLN22      -0.1965
      8  CA         5.6330   21.3910   11.8020 C.3    22  GLN22       0.1733
      9  C          6.0580   22.7840   11.3500 C.2    22  GLN22       0.2616
     10  O          6.4340   22.9720   10.1890 O.2    22  GLN22      -0.2715
     11  CB         4.1410   21.3550   12.1580 C.3    22  GLN22       0.0408
     12  CG         3.2400   21.8000   11.0150 C.3    22  GLN22       0.0908
     13  CD         1.7690   21.8250   11.3870 C.2    22  GLN22       0.2608
     14  OE1        1.3860   21.4710   12.5040 O.2    22  GLN22      -0.2717
     15  NE2        0.9350   22.2470   10.4460 N.am   22  GLN22      -0.0878
     16  N          5.9960   23.7670   12.2440 N.am   23  LEU23      -0.1977
     17  CA         6.3390   25.1440   11.9150 C.3    23  LEU23       0.1596
     18  C          7.5630   25.5730   12.7120 C.2    23  LEU23       0.2287
     19  O          7.6710   25.2790   13.9070 O.2    23  LEU23      -0.2864
     20  CB         5.1790   26.0900   12.2330 C.3    23  LEU23       0.0297
     21  CG         3.8090   25.7370   11.6490 C.3    23  LEU23       0.0022
     22  CD1        2.7460   26.6830   12.1850 C.3    23  LEU23       0.0001
     23  CD2        3.8440   25.7650   10.1250 C.3    23  LEU23       0.0001
     24  N          7.5110   31.8530   12.7890 N.3    28  LEU28      -0.1245
     25  CA         6.3170   32.3930   13.4340 C.3    28  LEU28       0.1561
     26  C          6.6060   33.7240   14.1130 C.2    28  LEU28       0.2260
     27  O          5.7460   34.6120   14.1410 O.2    28  LEU28      -0.2867
     28  CB         5.7510   31.3900   14.4410 C.3    28  LEU28       0.0270
     29  CG         5.0990   30.1430   13.8440 C.3    28  LEU28       0.0019
     30  CD1        4.8120   29.1100   14.9240 C.3    28  LEU28       0.0001
     31  CD2        3.8270   30.5220   13.0970 C.3    28  LEU28       0.0001
     32  N        -15.4520   25.9790    7.9380 N.3    53  TRP53      -0.1241
     33  CA       -15.3360   24.7110    8.6490 C.3    53  TRP53       0.1605
     34  C        -14.4360   23.7420    7.8960 C.2    53  TRP53       0.2264
     35  O        -13.6530   23.0060    8.5080 O.2    53  TRP53      -0.2867
     36  CB       -16.7210   24.1040    8.8820 C.3    53  TRP53       0.0550
     37  CG       -17.3110   24.4460   10.2200 C.ar   53  TRP53       0.0003
     38  CD1      -18.0920   25.5240   10.5230 C.ar   53  TRP53       0.0946
     39  CD2      -17.1680   23.7010   11.4370 C.ar   53  TRP53       0.0152
     40  NE1      -18.4430   25.4960   11.8510 N.ar   53  TRP53      -0.2442
     41  CE2      -17.8880   24.3880   12.4360 C.ar   53  TRP53       0.0810
     42  CE3      -16.4990   22.5200   11.7800 C.ar   53  TRP53       0.0012
     43  CZ2      -17.9600   23.9350   13.7540 C.ar   53  TRP53       0.0191
     44  CZ3      -16.5720   22.0720   13.0890 C.ar   53  TRP53       0.0001
     45  CH2      -17.2960   22.7790   14.0600 C.ar   53  TRP53       0.0015
     46  N        -10.7100   24.8770    8.3260 N.3    56  CYS56      -0.1221
     47  CA       -10.2060   24.6340    9.6750 C.3    56  CYS56       0.1808
     48  C         -9.9900   23.1480    9.9340 C.2    56  CYS56       0.2601
     49  O         -8.9960   22.7610   10.5600 O.2    56  CYS56      -0.2717
     50  CB       -11.1520   25.2340   10.7110 C.3    56  CYS56       0.0970
     51  SG       -11.1820   27.0330   10.6740 S.3    56  CYS56      -0.0800
     52  N        -10.9110   22.3020    9.4660 N.am   57  ALA57      -0.1979
     53  CA       -10.7360   20.8620    9.6210 C.3    57  ALA57       0.1597
     54  C         -9.5050   20.3770    8.8640 C.2    57  ALA57       0.2287
     55  O         -8.8110   19.4550    9.3110 O.2    57  ALA57      -0.2864
     56  CB       -11.9910   20.1240    9.1570 C.3    57  ALA57       0.0319
     57  N         -6.7420   22.2290    8.3100 N.3    59  HIS59      -0.1226
     58  CA        -5.5710   22.6600    9.0690 C.3    59  HIS59       0.1752
     59  C         -5.3560   21.7910   10.3010 C.2    59  HIS59       0.2595
     60  O         -4.2110   21.4900   10.6570 O.2    59  HIS59      -0.2718
     61  CB        -5.6910   24.1330    9.4540 C.3    59  HIS59       0.0759
     62  CG        -5.6160   25.0590    8.2840 C.ar   59  HIS59       0.0818
     63  ND1       -4.5470   25.0700    7.4160 N.ar   59  HIS59      -0.2268
     64  CD2       -6.4760   26.0020    7.8340 C.ar   59  HIS59       0.1154
     65  CE1       -4.7500   25.9800    6.4800 C.ar   59  HIS59       0.1986
     66  NE2       -5.9150   26.5580    6.7100 N.ar   59  HIS59      -0.2212
     67  N         -6.4410   21.3880   10.9710 N.am   60  LEU60      -0.1980
     68  CA        -6.3110   20.5080   12.1290 C.3    60  LEU60       0.1596
     69  C         -5.7940   19.1370   11.7210 C.2    60  LEU60       0.2287
     70  O         -4.9510   18.5540   12.4130 O.2    60  LEU60      -0.2864
     71  CB        -7.6490   20.3750   12.8540 C.3    60  LEU60       0.0297
     72  CG        -7.6130   19.5160   14.1250 C.3    60  LEU60       0.0022
     73  CD1       -6.6050   20.0790   15.1180 C.3    60  LEU60       0.0001
     74  CD2       -8.9870   19.4010   14.7670 C.3    60  LEU60       0.0001
     75  N         -2.0600   19.3400   11.0930 N.3    63  ALA63      -0.1245
     76  CA        -1.3360   19.4450   12.3560 C.3    63  ALA63       0.1562
     77  C         -1.3320   18.1160   13.1020 C.2    63  ALA63       0.2260
     78  O         -0.3090   17.7200   13.6720 O.2    63  ALA63      -0.2867
     79  CB        -1.9420   20.5550   13.2170 C.3    63  ALA63       0.0290
     80  N         -5.3360   15.7070   19.3270 N.3    94  MET94      -0.1245
     81  CA        -5.9450   17.0350   19.3410 C.3    94  MET94       0.1570
     82  C         -5.4150   17.8770   20.4960 C.2    94  MET94       0.2261
     83  O         -5.1530   19.0760   20.3340 O.2    94  MET94      -0.2867
     84  CB        -7.4650   16.9000   19.4330 C.3    94  MET94       0.0387
     85  CG        -8.1950   18.1650   19.8570 C.3    94  MET94       0.0595
     86  SD        -8.9080   19.0950   18.4880 S.3    94  MET94      -0.1393
     87  CE        -7.8250   20.5160   18.4480 C.3    94  MET94       0.0692
     88  N         -2.0570   19.2380   19.7490 N.3    97  VAL97      -0.1231
     89  CA        -2.1480   20.3390   18.7900 C.3    97  VAL97       0.1692
     90  C         -2.5260   21.6340   19.4960 C.2    97  VAL97       0.2591
     91  O         -1.9690   22.7020   19.2080 O.2    97  VAL97      -0.2718
     92  CB        -3.1400   19.9920   17.6630 C.3    97  VAL97       0.0266
     93  CG1       -3.5000   21.2430   16.8730 C.3    97  VAL97       0.0020
     94  CG2       -2.5670   18.9140   16.7530 C.3    97  VAL97       0.0020
     95  N         -3.4830   21.5630   20.4270 N.am   98  LEU98      -0.1980
     96  CA        -3.9020   22.7570   21.1540 C.3    98  LEU98       0.1596
     97  C         -2.7520   23.3670   21.9450 C.2    98  LEU98       0.2287
     98  O         -2.6800   24.5930   22.0820 O.2    98  LEU98      -0.2864
     99  CB        -5.0770   22.4270   22.0740 C.3    98  LEU98       0.0297
    100  CG        -6.3730   22.0400   21.3640 C.3    98  LEU98       0.0022
    101  CD1       -7.3590   21.4300   22.3410 C.3    98  LEU98       0.0001
    102  CD2       -6.9790   23.2530   20.6900 C.3    98  LEU98       0.0001
    103  N          0.5620   22.9360   21.0530 N.3   100  ARG100     -0.1231
    104  CA         1.5020   23.4410   20.0550 C.3   100  ARG100      0.1694
    105  C          1.0610   24.7900   19.5040 C.2   100  ARG100      0.2591
    106  O          1.8950   25.5690   19.0340 O.2   100  ARG100     -0.2718
    107  CB         1.6470   22.4370   18.9080 C.3   100  ARG100      0.0321
    108  CG         2.4030   21.1800   19.2570 C.3   100  ARG100      0.0489
    109  CD         2.4890   20.2660   18.0490 C.3   100  ARG100      0.2205
    110  NE         3.5720   19.2940   18.1720 N.pl3 100  ARG100     -0.0865
    111  CZ         4.2010   18.7410   17.1400 C.cat 100  ARG100      0.5346
    112  NH1        3.8610   19.0600   15.8950 N.pl3 100  ARG100      0.1354
    113  NH2        5.1770   17.8700   17.3550 N.pl3 100  ARG100      0.1354
    114  N         -0.2400   25.0820   19.5650 N.am  101  MET101     -0.1979
    115  CA        -0.7850   26.2910   18.9670 C.3   101  MET101      0.1605
    116  C         -0.2830   27.5680   19.6380 C.2   101  MET101      0.2287
    117  O         -0.2450   28.6200   18.9870 O.2   101  MET101     -0.2864
    118  CB        -2.3130   26.2080   18.9620 C.3   101  MET101      0.0413
    119  CG        -2.9990   27.4630   18.4850 C.3   101  MET101      0.0598
    120  SD        -4.6810   27.1550   17.9490 S.3   101  MET101     -0.1393
    121  CE        -5.1160   25.7870   19.0050 C.3   101  MET101      0.0692
    122  N          2.6350   28.4300   20.1880 N.3   103  ARG103     -0.1231
    123  CA         3.7680   28.9630   19.4380 C.3   103  ARG103      0.1694
    124  C          3.3190   29.9380   18.3570 C.2   103  ARG103      0.2591
    125  O          4.0730   30.8480   17.9970 O.2   103  ARG103     -0.2718
    126  CB         4.5800   27.8310   18.8170 C.3   103  ARG103      0.0321
    127  CG         4.9700   26.7640   19.8090 C.3   103  ARG103      0.0489
    128  CD         5.4380   25.5020   19.1110 C.3   103  ARG103      0.2205
    129  NE         6.7780   25.6220   18.5410 N.pl3 103  ARG103     -0.0865
    130  CZ         7.0510   25.5010   17.2450 C.cat 103  ARG103      0.5346
    131  NH1        6.0730   25.2690   16.3800 N.pl3 103  ARG103      0.1354
    132  NH2        8.3000   25.6120   16.8120 N.pl3 103  ARG103      0.1354
    133  N          2.1060   29.7720   17.8350 N.am  104  ALA104     -0.1980
    134  CA         1.5780   30.6440   16.7970 C.3   104  ALA104      0.1597
    135  C          0.7070   31.7590   17.3530 C.2   104  ALA104      0.2287
    136  O          0.0860   32.4920   16.5750 O.2   104  ALA104     -0.2864
    137  CB         0.7780   29.8320   15.7770 C.3   104  ALA104      0.0319
    138  N         -3.4320   35.1700   16.2190 N.3   112  VAL112     -0.1231
    139  CA        -2.8670   33.8540   15.9540 C.3   112  VAL112      0.1692
    140  C         -2.4950   33.7750   14.4790 C.2   112  VAL112      0.2592
    141  O         -3.1460   34.3760   13.6200 O.2   112  VAL112     -0.2718
    142  CB        -3.8440   32.7210   16.3600 C.3   112  VAL112      0.0266
    143  CG1       -5.0140   32.6430   15.3900 C.3   112  VAL112      0.0020
    144  CG2       -3.1190   31.3880   16.4400 C.3   112  VAL112      0.0020
    145  N         -1.4190   33.0440   14.1930 N.am  113  PHE113     -0.1962
    146  CA        -0.9740   32.8670   12.8170 C.3   113  PHE113      0.1771
    147  C         -1.9290   31.9250   12.0980 C.2   113  PHE113      0.2619
    148  O         -2.0990   30.7720   12.5080 O.2   113  PHE113     -0.2715
    149  CB         0.4420   32.2970   12.8000 C.3   113  PHE113      0.0574
    150  CG         1.0160   32.1330   11.4190 C.ar  113  PHE113     -0.0200
    151  CD1        1.6130   33.2030   10.7710 C.ar  113  PHE113     -0.0042
    152  CD2        0.9640   30.9090   10.7710 C.ar  113  PHE113     -0.0042
    153  CE1        2.1440   33.0580    9.5030 C.ar  113  PHE113     -0.0003
    154  CE2        1.4920   30.7560    9.5030 C.ar  113  PHE113     -0.0003
    155  CZ         2.0830   31.8320    8.8680 C.ar  113  PHE113     -0.0000
    156  N         -2.5550   32.4110   11.0290 N.am  114  PHE114     -0.1974
    157  CA        -3.5420   31.6230   10.3000 C.3   114  PHE114      0.1639
    158  C         -3.4340   31.9310    8.8160 C.2   114  PHE114      0.2290
    159  O         -3.7100   33.0580    8.3930 O.2   114  PHE114     -0.2864
    160  CB        -4.9570   31.9220   10.8010 C.3   114  PHE114      0.0560
    161  CG        -6.0180   31.0930   10.1400 C.ar  114  PHE114     -0.0200
    162  CD1       -6.1380   29.7430   10.4270 C.ar  114  PHE114     -0.0042
    163  CD2       -6.8960   31.6620    9.2350 C.ar  114  PHE114     -0.0042
    164  CE1       -7.1160   28.9750    9.8200 C.ar  114  PHE114     -0.0003
    165  CE2       -7.8760   30.9000    8.6240 C.ar  114  PHE114     -0.0003
    166  CZ        -7.9860   29.5550    8.9170 C.ar  114  PHE114     -0.0000
    167  N        -12.6950   34.4860   12.7110 N.3   124  PHE124     -0.1241
    168  CA       -13.3360   33.1780   12.6590 C.3   124  PHE124      0.1605
    169  C        -14.8410   33.2480   12.9000 C.2   124  PHE124      0.2264
    170  O        -15.4610   32.2310   13.2280 O.2   124  PHE124     -0.2867
    171  CB       -12.6750   32.2310   13.6630 C.3   124  PHE124      0.0534
    172  CG       -11.1910   32.0840   13.4670 C.ar  124  PHE124     -0.0203
    173  CD1      -10.6870   31.1400   12.5860 C.ar  124  PHE124     -0.0042
    174  CD2      -10.3010   32.8890   14.1610 C.ar  124  PHE124     -0.0042
    175  CE1       -9.3210   31.0010   12.3990 C.ar  124  PHE124     -0.0003
    176  CE2       -8.9320   32.7540   13.9800 C.ar  124  PHE124     -0.0003
    177  CZ        -8.4420   31.8080   13.0970 C.ar  124  PHE124     -0.0000
    178  N        -17.5660   30.7170   11.3750 N.3   127  LEU127     -0.1245
    179  CA       -17.7360   29.3460   11.8520 C.3   127  LEU127      0.1561
    180  C        -19.0200   29.1800   12.6530 C.2   127  LEU127      0.2260
    181  O        -19.6040   28.0900   12.6710 O.2   127  LEU127     -0.2867
    182  CB       -16.5370   28.9180   12.7000 C.3   127  LEU127      0.0270
    183  CG       -15.1900   28.7090   12.0060 C.3   127  LEU127      0.0019
    184  CD1      -14.1100   28.4500   13.0410 C.3   127  LEU127      0.0001
    185  CD2      -15.2590   27.5620   11.0150 C.3   127  LEU127      0.0001
    186  N        -19.2670   29.4130   16.0590 N.3   129  CYS129     -0.1235
    187  CA       -18.9540   28.7000   17.2960 C.3   129  CYS129      0.1677
    188  C        -18.0260   29.5970   18.1200 C.2   129  CYS129      0.2270
    189  O        -16.8710   29.2780   18.4050 O.2   129  CYS129     -0.2867
    190  CB       -18.3500   27.3170   17.0390 C.3   129  CYS129      0.0956
    191  SG       -16.8700   27.3000   15.9890 S.3   129  CYS129     -0.0801
    192  N        -16.3390   28.1650   21.3850 N.3   132  LEU132     -0.1231
    193  CA       -15.1790   27.3310   21.0920 C.3   132  LEU132      0.1693
    194  C        -13.9770   28.1790   20.6910 C.2   132  LEU132      0.2591
    195  O        -12.8490   27.9130   21.1250 O.2   132  LEU132     -0.2718
    196  CB       -15.5300   26.3440   19.9810 C.3   132  LEU132      0.0284
    197  CG       -14.3960   25.4990   19.4030 C.3   132  LEU132      0.0019
    198  CD1      -13.7940   24.5970   20.4660 C.3   132  LEU132      0.0001
    199  CD2      -14.9250   24.6850   18.2420 C.3   132  LEU132      0.0001
    200  N        -14.1990   29.2140   19.8740 N.am  133  ILE133     -0.1980
    201  CA       -13.0910   30.0480   19.4070 C.3   133  ILE133      0.1595
    202  C        -12.4330   30.7680   20.5810 C.2   133  ILE133      0.2287
    203  O        -11.2090   30.7400   20.7430 O.2   133  ILE133     -0.2864
    204  CB       -13.5680   31.0300   18.3190 C.3   133  ILE133      0.0276
    205  CG1      -14.0290   30.2710   17.0690 C.3   133  ILE133      0.0022
    206  CG2      -12.4670   32.0320   17.9770 C.3   133  ILE133      0.0022
    207  CD1      -12.9810   29.3550   16.4660 C.3   133  ILE133      0.0001
    208  N        -10.3380   28.5140   22.7060 N.3   136  ILE136     -0.1231
    209  CA        -9.0410   28.2210   22.0990 C.3   136  ILE136      0.1692
    210  C         -8.0730   29.3730   22.3320 C.2   136  ILE136      0.2592
    211  O         -6.9040   29.1670   22.6840 O.2   136  ILE136     -0.2718
    212  CB        -9.2060   27.9110   20.6000 C.3   136  ILE136      0.0266
    213  CG1       -9.8590   26.5430   20.4080 C.3   136  ILE136      0.0019
    214  CG2       -7.8630   27.9610   19.9000 C.3   136  ILE136      0.0020
    215  CD1      -10.1900   26.2220   18.9670 C.3   136  ILE136      0.0001
    216  N         -8.5480   30.6070   22.1410 N.am  137  PHE137     -0.1976
    217  CA        -7.6890   31.7710   22.3340 C.3   137  PHE137      0.1639
    218  C         -7.2900   31.9290   23.7960 C.2   137  PHE137      0.2290
    219  O         -6.1480   32.2990   24.0940 O.2   137  PHE137     -0.2864
    220  CB        -8.3760   33.0310   21.8060 C.3   137  PHE137      0.0560
    221  CG        -8.1600   33.2670   20.3350 C.ar  137  PHE137     -0.0200
    222  CD1       -8.6960   32.4030   19.3920 C.ar  137  PHE137     -0.0042
    223  CD2       -7.4260   34.3550   19.8960 C.ar  137  PHE137     -0.0042
    224  CE1       -8.4980   32.6180   18.0360 C.ar  137  PHE137     -0.0003
    225  CE2       -7.2240   34.5770   18.5440 C.ar  137  PHE137     -0.0003
    226  CZ        -7.7620   33.7060   17.6120 C.ar  137  PHE137     -0.0000
    227  N        -15.2850   20.9770   20.6860 N.3   215  HIS215     -0.1241
    228  CA       -15.0580   20.7950   19.2600 C.3   215  HIS215      0.1621
    229  C        -15.9660   19.7110   18.6960 C.2   215  HIS215      0.2264
    230  O        -16.5230   19.8650   17.6020 O.2   215  HIS215     -0.2867
    231  CB       -13.5880   20.4650   19.0140 C.3   215  HIS215      0.0745
    232  CG       -13.3040   19.9990   17.6250 C.ar  215  HIS215      0.0817
    233  ND1      -12.8600   18.7250   17.3460 N.ar  215  HIS215     -0.2268
    234  CD2      -13.4130   20.6300   16.4330 C.ar  215  HIS215      0.1154
    235  CE1      -12.7000   18.5930   16.0420 C.ar  215  HIS215      0.1986
    236  NE2      -13.0290   19.7350   15.4650 N.ar  215  HIS215     -0.2212
    237  N         -9.9320   13.3600    9.8780 N.3   238  TYR238     -0.1241
    238  CA       -10.7550   14.1990   10.7430 C.3   238  TYR238      0.1605
    239  C        -12.0700   13.5100   11.0820 C.2   238  TYR238      0.2264
    240  O        -12.5060   13.5250   12.2390 O.2   238  TYR238     -0.2867
    241  CB       -11.0100   15.5420   10.0590 C.3   238  TYR238      0.0534
    242  CG       -11.8440   16.5230   10.8540 C.ar  238  TYR238     -0.0201
    243  CD1      -13.2310   16.5140   10.7750 C.ar  238  TYR238     -0.0009
    244  CD2      -11.2430   17.4760   11.6620 C.ar  238  TYR238     -0.0009
    245  CE1      -13.9930   17.4150   11.4890 C.ar  238  TYR238      0.0417
    246  CE2      -11.9960   18.3810   12.3800 C.ar  238  TYR238      0.0417
    247  CZ       -13.3700   18.3470   12.2890 C.ar  238  TYR238      0.1957
    248  OH       -14.1260   19.2470   13.0040 O.3   238  TYR238     -0.2866
@<TRIPOS>BOND
     1    65    66   ar
     2    65    63   ar
     3    66    64   ar
     4    63    62   ar
     5    64    62   ar
     6    34    35    2
     7    34    33    1
     8    32    33    1
     9    62    61    1
    10    57    58    1
    11    46    47    1
    12   159   158    2
    13   165   166   ar
    14   165   163   ar
    15    33    36    1
    16   158   157    1
    17    54    55    2
    18    54    53    1
    19   155   153   ar
    20   155   154   ar
    21    36    37    1
    22   166   164   ar
    23    58    61    1
    24    58    59    1
    25    56    53    1
    26   163   161   ar
    27    52    53    1
    28    52    48   am
    29   153   151   ar
    30   154   152   ar
    31    47    48    1
    32    47    50    1
    33   164   162   ar
    34   237   238    1
    35    48    49    2
    36   241   238    1
    37   241   242    1
    38    23    21    1
    39   161   162   ar
    40   161   160    1
    41    10     9    2
    42    37    38   ar
    43    37    39   ar
    44   157   160    1
    45   157   156    1
    46    59    60    2
    47    59    67   am
    48    15    13   am
    49    38    40   ar
    50    51    50    1
    51   238   239    1
    52   152   150   ar
    53   151   150   ar
    54   243   242   ar
    55   243   245   ar
    56   242   244   ar
    57    67    68    1
    58    12    13    1
    59    12    11    1
    60   185   183    1
    61   156   147   am
    62   239   240    2
    63    75    76    1
    64     9     8    1
    65     9    16   am
    66   178   179    1
    67    13    14    2
    68   150   149    1
    69    39    42   ar
    70    39    41   ar
    71   245   247   ar
    72    21    22    1
    73    21    20    1
    74   244   246   ar
    75    69    68    1
    76    69    70    2
    77    42    44   ar
    78     8    11    1
    79     8     7    1
    80    40    41   ar
    81   179   180    1
    82   179   182    1
    83    17    20    1
    84    17    16    1
    85    17    18    1
    86   183   182    1
    87   183   184    1
    88   147   148    2
    89   147   146    1
    90    68    71    1
    91   247   246   ar
    92   247   248    1
    93    76    77    1
    94    76    79    1
    95   175   173   ar
    96   175   177   ar
    97    41    43   ar
    98   173   172   ar
    99   180   181    2
   100   168   167    1
   101   168   169    1
   102   168   171    1
   103    18    19    2
   104    24    25    1
   105   149   146    1
   106   146   145    1
   107    71    72    1
   108     7     3   am
   109   169   170    2
   110    44    45   ar
   111    31    29    1
   112   177   176   ar
   113    77    78    2
   114    25    26    1
   115    25    28    1
   116   172   171    1
   117   172   174   ar
   118   141   140    2
   119    43    45   ar
   120    29    28    1
   121    29    30    1
   122   176   174   ar
   123    26    27    2
   124    72    74    1
   125    72    73    1
   126     3     4    2
   127     3     2    1
   128   145   140   am
   129   140   139    1
   130     6     5    1
   131     1     2    1
   132     2     5    1
   133   143   142    1
   134   236   235   ar
   135   236   234   ar
   136   137   134    1
   137   112   111    1
   138   139   138    1
   139   139   142    1
   140   191   190    1
   141   235   233   ar
   142   186   187    1
   143   142   144    1
   144   131   130    1
   145   234   232   ar
   146   207   205    1
   147   136   135    2
   148    94    92    1
   149   134   135    1
   150   134   133    1
   151   132   130    1
   152    93    92    1
   153   190   187    1
   154   205   204    1
   155   111   113    1
   156   111   110    2
   157   130   129    2
   158   187   188    1
   159   233   232   ar
   160   230   229    2
   161   226   224   ar
   162   226   225   ar
   163   232   231    1
   164    92    89    1
   165   133   124   am
   166   120   119    1
   167   120   121    1
   168   206   204    1
   169   125   124    2
   170   224   222   ar
   171   109   110    1
   172   109   108    1
   173   188   189    2
   174   199   197    1
   175   204   201    1
   176   124   123    1
   177    87    86    1
   178   119   118    1
   179    86    85    1
   180   129   128    1
   181   225   223   ar
   182   229   228    1
   183    89    90    1
   184    89    88    1
   185   126   123    1
   186   126   127    1
   187   107   108    1
   188   107   104    1
   189   118   115    1
   190   215   213    1
   191   115   114    1
   192   115   116    1
   193   117   116    2
   194   231   228    1
   195   106   105    2
   196   128   127    1
   197    91    90    2
   198   228   227    1
   199    80    81    1
   200    81    84    1
   201    81    82    1
   202   222   221   ar
   203   197   196    1
   204   197   198    1
   205   201   200    1
   206   201   202    1
   207    84    85    1
   208   123   122    1
   209    90    95   am
   210   105   114   am
   211   105   104    1
   212   200   194   am
   213   223   221   ar
   214   214   212    1
   215   196   193    1
   216   104   103    1
   217    83    82    2
   218   221   220    1
   219   213   212    1
   220    95    96    1
   221   202   203    2
   222   212   209    1
   223   102   100    1
   224   194   193    1
   225   194   195    2
   226   193   192    1
   227    96    97    1
   228    96    99    1
   229   100    99    1
   230   100   101    1
   231   220   217    1
   232    97    98    2
   233   209   210    1
   234   209   208    1
   235   216   210   am
   236   216   217    1
   237   210   211    2
   238   217   218    1
   239   218   219    2
