@<TRIPOS>MOLECULE
tmp/5vb8A00.pdb
 106 107 0 0 0
SMALL
GASTEIGER

@<TRIPOS>ATOM
      1  N        -47.8770  -79.8780  -76.2450 N.3   140  PHE140     -0.1241
      2  CA       -48.8790  -79.7460  -77.3000 C.3   140  PHE140      0.1605
      3  C        -48.2900  -79.1800  -78.5830 C.2   140  PHE140      0.2264
      4  O        -48.5780  -79.6920  -79.6650 O.2   140  PHE140     -0.2867
      5  CB       -50.0620  -78.9110  -76.8040 C.3   140  PHE140      0.0534
      6  CG       -51.0800  -79.7620  -76.0880 C.ar  140  PHE140     -0.0203
      7  CD1      -50.6990  -80.5110  -74.9540 C.ar  140  PHE140     -0.0042
      8  CD2      -52.3790  -79.8870  -76.5630 C.ar  140  PHE140     -0.0042
      9  CE1      -51.6040  -81.3220  -74.3110 C.ar  140  PHE140     -0.0003
     10  CE2      -53.2860  -80.6970  -75.9080 C.ar  140  PHE140     -0.0003
     11  CZ       -52.8890  -81.4270  -74.7940 C.ar  140  PHE140     -0.0000
     12  N        -46.7720  -82.1290  -80.1730 N.3   143  MET143     -0.1245
     13  CA       -47.7930  -82.9750  -80.7990 C.3   143  MET143      0.1570
     14  C        -48.4650  -82.2910  -81.9750 C.2   143  MET143      0.2261
     15  O        -48.8550  -82.9680  -82.9200 O.2   143  MET143     -0.2867
     16  CB       -48.8650  -83.3890  -79.7930 C.3   143  MET143      0.0387
     17  CG       -48.3160  -83.9860  -78.4750 C.3   143  MET143      0.0595
     18  SD       -49.7700  -84.4110  -77.4940 S.3   143  MET143     -0.1393
     19  CE       -49.7280  -86.1590  -77.8180 C.3   143  MET143      0.0692
     20  N        -48.7220  -83.4840  -85.8970 N.3   147  LEU147     -0.1231
     21  CA       -50.0430  -83.8680  -86.3750 C.3   147  LEU147      0.1693
     22  C        -50.5140  -83.0620  -87.5900 C.2   147  LEU147      0.2592
     23  O        -51.2480  -83.5950  -88.4300 O.2   147  LEU147     -0.2718
     24  CB       -51.0570  -83.7100  -85.2560 C.3   147  LEU147      0.0284
     25  CG       -51.0790  -84.7470  -84.1630 C.3   147  LEU147      0.0019
     26  CD1      -52.1000  -84.2490  -83.1670 C.3   147  LEU147      0.0001
     27  CD2      -51.4590  -86.0900  -84.7540 C.3   147  LEU147      0.0001
     28  N        -50.1190  -81.7910  -87.7090 N.am  148  PHE148     -0.1976
     29  CA       -50.7490  -80.8890  -88.6620 C.3   148  PHE148      0.1639
     30  C        -49.7700  -80.0480  -89.4610 C.2   148  PHE148      0.2290
     31  O        -50.2140  -79.2330  -90.2730 O.2   148  PHE148     -0.2864
     32  CB       -51.7050  -79.9160  -87.9410 C.3   148  PHE148      0.0560
     33  CG       -52.5650  -80.5500  -86.9110 C.ar  148  PHE148     -0.0200
     34  CD1      -53.5470  -81.4330  -87.2640 C.ar  148  PHE148     -0.0042
     35  CD2      -52.4070  -80.2310  -85.5790 C.ar  148  PHE148     -0.0042
     36  CE1      -54.3700  -82.0290  -86.2910 C.ar  148  PHE148     -0.0003
     37  CE2      -53.2160  -80.7980  -84.6110 C.ar  148  PHE148     -0.0003
     38  CZ       -54.2130  -81.6890  -84.9690 C.ar  148  PHE148     -0.0000
     39  N        -59.6910  -81.6790  -92.9770 N.3   186  VAL186     -0.1231
     40  CA       -58.6720  -82.6540  -93.3450 C.3   186  VAL186      0.1692
     41  C        -58.5430  -83.6740  -92.2270 C.2   186  VAL186      0.2592
     42  O        -58.2380  -84.8510  -92.4530 O.2   186  VAL186     -0.2718
     43  CB       -57.3340  -81.9450  -93.5890 C.3   186  VAL186      0.0266
     44  CG1      -56.2730  -82.9220  -94.0030 C.3   186  VAL186      0.0020
     45  CG2      -57.4770  -80.8230  -94.6070 C.3   186  VAL186      0.0020
     46  N        -58.7460  -83.1940  -90.9990 N.am  187  TYR187     -0.1963
     47  CA       -58.5390  -83.9580  -89.7750 C.3   187  TYR187      0.1756
     48  C        -59.8240  -83.8050  -88.9770 C.2   187  TYR187      0.2461
     49  O        -59.9100  -83.0060  -88.0350 O.2   187  TYR187     -0.2730
     50  CB       -57.3200  -83.4830  -88.9960 C.3   187  TYR187      0.0574
     51  CG       -56.0470  -83.6320  -89.7720 C.ar  187  TYR187     -0.0198
     52  CD1      -55.5390  -84.9010  -90.1100 C.ar  187  TYR187     -0.0009
     53  CD2      -55.3420  -82.5170  -90.1860 C.ar  187  TYR187     -0.0009
     54  CE1      -54.3530  -85.0350  -90.8300 C.ar  187  TYR187      0.0417
     55  CE2      -54.1470  -82.6450  -90.8960 C.ar  187  TYR187      0.0417
     56  CZ       -53.6640  -83.8980  -91.2120 C.ar  187  TYR187      0.1957
     57  OH       -52.4950  -83.9880  -91.9290 O.3   187  TYR187     -0.2866
     58  N        -60.8300  -84.5450  -89.3330 N.am  188  PRO188     -0.2716
     59  CA       -62.1190  -84.4050  -88.6660 C.3   188  PRO188      0.1536
     60  C        -62.0540  -84.4870  -87.1500 C.2   188  PRO188      0.2599
     61  O        -62.9370  -83.9370  -86.4770 O.2   188  PRO188     -0.2715
     62  CB       -62.9270  -85.5550  -89.2610 C.3   188  PRO188      0.0310
     63  CG       -61.9690  -86.3350  -90.1230 C.3   188  PRO188      0.0237
     64  CD       -60.8790  -85.4810  -90.4670 C.3   188  PRO188      0.0939
     65  N        -61.0280  -85.1350  -86.5900 N.am  189  TYR189     -0.1960
     66  CA       -60.9200  -85.2500  -85.1410 C.3   189  TYR189      0.1771
     67  C        -60.0560  -84.1660  -84.5010 C.2   189  TYR189      0.2619
     68  O        -59.8080  -84.2120  -83.3090 O.2   189  TYR189     -0.2715
     69  CB       -60.3980  -86.6300  -84.8000 C.3   189  TYR189      0.0574
     70  CG       -61.4310  -87.7060  -85.0990 C.ar  189  TYR189     -0.0198
     71  CD1      -62.6400  -87.7460  -84.4020 C.ar  189  TYR189     -0.0009
     72  CD2      -61.2100  -88.6690  -86.0820 C.ar  189  TYR189     -0.0009
     73  CE1      -63.5870  -88.7100  -84.6670 C.ar  189  TYR189      0.0417
     74  CE2      -62.1430  -89.6410  -86.3460 C.ar  189  TYR189      0.0417
     75  CZ       -63.3400  -89.6590  -85.6330 C.ar  189  TYR189      0.1957
     76  OH       -64.2940  -90.6380  -85.8770 O.3   189  TYR189     -0.2866
     77  N        -59.6660  -83.1390  -85.2420 N.am  190  ALA190     -0.1977
     78  CA       -58.8640  -82.0680  -84.6510 C.3   190  ALA190      0.1597
     79  C        -59.5050  -81.5000  -83.3650 C.2   190  ALA190      0.2287
     80  O        -58.7960  -80.9590  -82.5100 O.2   190  ALA190     -0.2864
     81  CB       -58.6290  -80.9680  -85.7230 C.3   190  ALA190      0.0319
     82  N        -60.6850  -83.0470  -80.9430 N.3   192  VAL192     -0.1231
     83  CA       -60.2710  -83.8370  -79.7960 C.3   192  VAL192      0.1692
     84  C        -58.9830  -83.2970  -79.2140 C.2   192  VAL192      0.2592
     85  O        -58.7290  -83.4510  -78.0040 O.2   192  VAL192     -0.2718
     86  CB       -60.0660  -85.3220  -80.1680 C.3   192  VAL192      0.0266
     87  CG1      -59.5170  -86.0760  -78.9900 C.3   192  VAL192      0.0020
     88  CG2      -61.3970  -85.9360  -80.6440 C.3   192  VAL192      0.0020
     89  N        -58.1690  -82.6710  -80.0560 N.am  193  PHE193     -0.1976
     90  CA       -56.9380  -82.0370  -79.6320 C.3   193  PHE193      0.1639
     91  C        -57.1640  -80.6280  -79.0790 C.2   193  PHE193      0.2290
     92  O        -56.5300  -80.2200  -78.1150 O.2   193  PHE193     -0.2864
     93  CB       -55.9790  -82.0270  -80.8150 C.3   193  PHE193      0.0560
     94  CG       -54.6630  -81.3700  -80.5570 C.ar  193  PHE193     -0.0200
     95  CD1      -54.5390  -79.9870  -80.5590 C.ar  193  PHE193     -0.0042
     96  CD2      -53.5220  -82.1420  -80.3710 C.ar  193  PHE193     -0.0042
     97  CE1      -53.2940  -79.3900  -80.3510 C.ar  193  PHE193     -0.0003
     98  CE2      -52.2820  -81.5560  -80.1400 C.ar  193  PHE193     -0.0003
     99  CZ       -52.1610  -80.1890  -80.1450 C.ar  193  PHE193     -0.0000
    100  N        -59.8740  -79.8540  -75.4860 N.3   196  PRO196     -0.2116
    101  CA       -59.2450  -80.0560  -74.1680 C.3   196  PRO196      0.1372
    102  C        -58.1040  -79.0900  -73.8700 C.2   196  PRO196      0.2244
    103  O        -57.9770  -78.6190  -72.7310 O.2   196  PRO196     -0.2868
    104  CB       -58.7720  -81.5110  -74.2330 C.3   196  PRO196      0.0268
    105  CG       -59.6410  -82.1370  -75.3720 C.3   196  PRO196      0.0207
    106  CD       -59.7920  -81.0530  -76.3360 C.3   196  PRO196      0.0892
@<TRIPOS>BOND
     1    45    43    1
     2    44    43    1
     3    43    40    1
     4    40    39    1
     5    40    41    1
     6    42    41    2
     7    41    46   am
     8    57    56    1
     9    56    55   ar
    10    56    54   ar
    11    46    47    1
    12    55    53   ar
    13    54    52   ar
    14    64    63    1
    15    64    58    1
    16    31    30    2
    17    53    51   ar
    18    63    62    1
    19    52    51   ar
    20    47    50    1
    21    47    48    1
    22    51    50    1
    23    30    29    1
    24    58    48   am
    25    58    59    1
    26    62    59    1
    27    48    49    2
    28    59    60    1
    29    29    32    1
    30    29    28    1
    31    23    22    2
    32    32    33    1
    33    28    22   am
    34    22    21    1
    35    34    33   ar
    36    34    36   ar
    37    60    65   am
    38    60    61    2
    39    33    35   ar
    40    65    66    1
    41    21    20    1
    42    21    24    1
    43    74    72   ar
    44    74    75   ar
    45    36    38   ar
    46    72    70   ar
    47    76    75    1
    48    81    78    1
    49    75    73   ar
    50    35    37   ar
    51    24    25    1
    52    77    78    1
    53    77    67   am
    54    66    69    1
    55    66    67    1
    56    70    69    1
    57    70    71   ar
    58    38    37   ar
    59    27    25    1
    60    73    71   ar
    61    78    79    1
    62    67    68    2
    63    25    26    1
    64    79    80    2
    65    15    14    2
    66    14    13    1
    67    82    83    1
    68    93    94    1
    69    93    90    1
    70    13    12    1
    71    13    16    1
    72    88    86    1
    73    95    94   ar
    74    95    97   ar
    75    94    96   ar
    76    96    98   ar
    77    97    99   ar
    78    86    83    1
    79    86    87    1
    80    99    98   ar
    81    89    90    1
    82    89    84   am
    83    83    84    1
    84    16    17    1
    85     4     3    2
    86    90    91    1
    87    84    85    2
    88    91    92    2
    89     3     2    1
    90    17    18    1
    91    19    18    1
    92     2     5    1
    93     2     1    1
    94     5     6    1
    95     8     6   ar
    96     8    10   ar
    97   106   100    1
    98   106   105    1
    99     6     7   ar
   100    10    11   ar
   101   100   101    1
   102   105   104    1
   103     7     9   ar
   104    11     9   ar
   105   104   101    1
   106   101   102    1
   107   102   103    2
