@<TRIPOS>MOLECULE
tmp/5vb8A02.pdb
 95 93 0 0 0
SMALL
GASTEIGER

@<TRIPOS>ATOM
      1  N        -32.6590  -52.4770  -58.3440 N.3    77  PRO77      -0.2102
      2  CA       -33.2890  -52.7790  -59.6450 C.3    77  PRO77       0.1504
      3  C        -33.7030  -51.5270  -60.3860 C.2    77  PRO77       0.2575
      4  O        -33.5610  -51.4520  -61.6160 O.2    77  PRO77      -0.2718
      5  CB       -34.5120  -53.6310  -59.2730 C.3    77  PRO77       0.0282
      6  CG       -34.4170  -53.8890  -57.8030 C.3    77  PRO77       0.0208
      7  CD       -33.5630  -52.8030  -57.2280 C.3    77  PRO77       0.0893
      8  N        -34.2170  -50.5320  -59.6670 N.am   78  TRP78      -0.1977
      9  CA       -34.6860  -49.3310  -60.3330 C.3    78  TRP78       0.1640
     10  C        -33.5380  -48.6020  -61.0050 C.2    78  TRP78       0.2290
     11  O        -33.7170  -47.9890  -62.0690 O.2    78  TRP78      -0.2864
     12  CB       -35.4050  -48.4490  -59.3130 C.3    78  TRP78       0.0576
     13  CG       -36.5030  -49.2130  -58.6570 C.ar   78  TRP78       0.0006
     14  CD1      -36.4400  -49.8740  -57.4790 C.ar   78  TRP78       0.0946
     15  CD2      -37.8220  -49.4360  -59.1720 C.ar   78  TRP78       0.0152
     16  NE1      -37.6470  -50.4860  -57.2050 N.ar   78  TRP78      -0.2442
     17  CE2      -38.5130  -50.2270  -58.2340 C.ar   78  TRP78       0.0810
     18  CE3      -38.4840  -49.0390  -60.3260 C.ar   78  TRP78       0.0012
     19  CZ2      -39.8420  -50.6300  -58.4250 C.ar   78  TRP78       0.0191
     20  CZ3      -39.7890  -49.4390  -60.5140 C.ar   78  TRP78       0.0001
     21  CH2      -40.4550  -50.2260  -59.5660 C.ar   78  TRP78       0.0015
     22  N        -32.1590  -50.8060  -63.9240 N.3    81  PHE81      -0.1241
     23  CA       -32.9920  -50.3790  -65.0420 C.3    81  PHE81       0.1605
     24  C        -32.4580  -49.0610  -65.6010 C.2    81  PHE81       0.2264
     25  O        -31.8690  -49.0540  -66.6770 O.2    81  PHE81      -0.2867
     26  CB       -34.4610  -50.2540  -64.6390 C.3    81  PHE81       0.0534
     27  CG       -35.3450  -49.9790  -65.7900 C.ar   81  PHE81      -0.0203
     28  CD1      -35.3840  -50.8630  -66.8550 C.ar   81  PHE81      -0.0042
     29  CD2      -36.1150  -48.8390  -65.8380 C.ar   81  PHE81      -0.0042
     30  CE1      -36.1770  -50.6310  -67.9250 C.ar   81  PHE81      -0.0003
     31  CE2      -36.9220  -48.5870  -66.9280 C.ar   81  PHE81      -0.0003
     32  CZ       -36.9540  -49.4850  -67.9760 C.ar   81  PHE81      -0.0000
     33  N        -39.6510  -45.0880  -69.4900 N.3   103  PHE103     -0.1241
     34  CA       -40.0810  -45.8570  -68.3290 C.3   103  PHE103      0.1605
     35  C        -39.4160  -45.3560  -67.0630 C.2   103  PHE103      0.2264
     36  O        -39.9030  -45.6210  -65.9570 O.2   103  PHE103     -0.2867
     37  CB       -39.8000  -47.3390  -68.5560 C.3   103  PHE103      0.0534
     38  CG       -40.9050  -48.0360  -69.2990 C.ar  103  PHE103     -0.0203
     39  CD1      -42.1640  -48.1990  -68.7160 C.ar  103  PHE103     -0.0042
     40  CD2      -40.7110  -48.5000  -70.5980 C.ar  103  PHE103     -0.0042
     41  CE1      -43.2000  -48.8290  -69.4260 C.ar  103  PHE103     -0.0003
     42  CE2      -41.7620  -49.1310  -71.3150 C.ar  103  PHE103     -0.0003
     43  CZ       -42.9910  -49.2940  -70.7330 C.ar  103  PHE103     -0.0000
     44  N        -41.3380  -44.3450  -64.2990 N.3   106  VAL106     -0.1231
     45  CA       -41.8690  -45.3120  -63.3380 C.3   106  VAL106      0.1692
     46  C        -40.9240  -45.4450  -62.1490 C.2   106  VAL106      0.2592
     47  O        -41.3350  -45.3390  -60.9940 O.2   106  VAL106     -0.2718
     48  CB       -42.1060  -46.6720  -64.0440 C.3   106  VAL106      0.0266
     49  CG1      -42.2670  -47.8030  -63.0540 C.3   106  VAL106      0.0020
     50  CG2      -43.3320  -46.6130  -64.8900 C.3   106  VAL106      0.0020
     51  N        -39.6490  -45.7110  -62.4350 N.am  107  THR107     -0.1953
     52  CA       -38.5970  -45.7030  -61.4250 C.3   107  THR107      0.1897
     53  C        -38.5810  -44.3820  -60.6780 C.2   107  THR107      0.2313
     54  O        -38.6200  -44.3520  -59.4500 O.2   107  THR107     -0.2863
     55  CB       -37.2360  -45.9500  -62.1060 C.3   107  THR107      0.1794
     56  OG1      -36.8530  -44.7920  -62.8780 O.3   107  THR107     -0.2208
     57  CG2      -37.2760  -47.1800  -63.0710 C.3   107  THR107      0.0378
     58  N        -43.5140  -46.7850  -58.8860 N.3   113  ARG113     -0.1245
     59  CA       -42.6920  -47.9230  -58.4960 C.3   113  ARG113      0.1563
     60  C        -43.4710  -48.8480  -57.5710 C.2   113  ARG113      0.2260
     61  O        -43.4080  -50.0800  -57.7080 O.2   113  ARG113     -0.2867
     62  CB       -41.3970  -47.4390  -57.8410 C.3   113  ARG113      0.0307
     63  CG       -41.5280  -46.5910  -56.5880 C.3   113  ARG113      0.0489
     64  CD       -40.1370  -46.1600  -56.1430 C.3   113  ARG113      0.2205
     65  NE       -40.0380  -46.0800  -54.6970 N.pl3 113  ARG113     -0.0865
     66  CZ       -39.2350  -46.8270  -53.9480 C.cat 113  ARG113      0.5346
     67  NH1      -38.4280  -47.7230  -54.4910 N.pl3 113  ARG113      0.1354
     68  NH2      -39.2890  -46.7120  -52.6350 N.pl3 113  ARG113      0.1354
     69  N        -45.7770  -51.1260  -59.7650 N.3   116  VAL116     -0.1231
     70  CA       -44.9430  -52.1120  -60.4470 C.3   116  VAL116      0.1692
     71  C        -44.4200  -53.1150  -59.4360 C.2   116  VAL116      0.2592
     72  O        -44.6160  -54.3300  -59.5780 O.2   116  VAL116     -0.2718
     73  CB       -43.7960  -51.4180  -61.2020 C.3   116  VAL116      0.0266
     74  CG1      -42.7760  -52.4320  -61.7400 C.3   116  VAL116      0.0020
     75  CG2      -44.3820  -50.5770  -62.3000 C.3   116  VAL116      0.0020
     76  N        -43.7630  -52.6040  -58.3830 N.am  117  SER117     -0.1952
     77  CA       -43.2750  -53.4640  -57.3140 C.3   117  SER117      0.1924
     78  C        -44.3980  -54.3470  -56.7970 C.2   117  SER117      0.2314
     79  O        -44.2400  -55.5630  -56.6460 O.2   117  SER117     -0.2863
     80  CB       -42.6890  -52.6110  -56.1890 C.3   117  SER117      0.2116
     81  OG       -42.6690  -53.3370  -54.9690 O.3   117  SER117     -0.2180
     82  N        -45.0720  -56.9330  -59.5550 N.3   120  ILE120     -0.1231
     83  CA       -43.9470  -57.8580  -59.6520 C.3   120  ILE120      0.1692
     84  C        -43.9510  -58.7800  -58.4530 C.2   120  ILE120      0.2592
     85  O        -43.5720  -59.9540  -58.5450 O.2   120  ILE120     -0.2718
     86  CB       -42.6040  -57.1050  -59.7530 C.3   120  ILE120      0.0266
     87  CG1      -42.5380  -56.2600  -61.0390 C.3   120  ILE120      0.0019
     88  CG2      -41.4370  -58.0870  -59.6500 C.3   120  ILE120      0.0020
     89  CD1      -41.7710  -56.8710  -62.1750 C.3   120  ILE120      0.0001
     90  N        -44.3540  -58.2520  -57.2990 N.am  121  SER121     -0.1952
     91  CA       -44.3250  -59.0340  -56.0690 C.3   121  SER121      0.1924
     92  C        -45.1740  -60.2950  -56.2230 C.2   121  SER121      0.2314
     93  O        -44.7430  -61.3960  -55.8630 O.2   121  SER121     -0.2863
     94  CB       -44.8000  -58.1740  -54.8910 C.3   121  SER121      0.2116
     95  OG       -44.8500  -58.8250  -53.7220 O.3   121  SER121     -0.2180
@<TRIPOS>BOND
     1    42    43   ar
     2    42    40   ar
     3    43    41   ar
     4    40    38   ar
     5    33    34    1
     6    41    39   ar
     7    38    39   ar
     8    38    37    1
     9    37    34    1
    10    34    35    1
    11    32    30   ar
    12    32    31   ar
    13    30    28   ar
    14    35    36    2
    15    31    29   ar
    16    28    27   ar
    17    25    24    2
    18    29    27   ar
    19    27    26    1
    20    24    23    1
    21    23    26    1
    22    23    22    1
    23    50    48    1
    24    44    45    1
    25    48    45    1
    26    48    49    1
    27    45    46    1
    28    57    55    1
    29    56    55    1
    30    51    46   am
    31    51    52    1
    32    75    73    1
    33    89    87    1
    34    46    47    2
    35    55    52    1
    36    11    10    2
    37    74    73    1
    38     4     3    2
    39    52    53    1
    40    73    70    1
    41    87    86    1
    42    10     9    1
    43    53    54    2
    44    20    18   ar
    45    20    21   ar
    46    70    69    1
    47    70    71    1
    48     3     8   am
    49     3     2    1
    50     9     8    1
    51     9    12    1
    52    18    15   ar
    53    86    83    1
    54    86    88    1
    55    83    82    1
    56    83    84    1
    57     2     5    1
    58     2     1    1
    59    72    71    2
    60    21    19   ar
    61    71    76   am
    62    12    13    1
    63     5     6    1
    64    15    13   ar
    65    15    17   ar
    66    58    59    1
    67    13    14   ar
    68    85    84    2
    69    59    62    1
    70    59    60    1
    71    84    90   am
    72    19    17   ar
    73    76    77    1
    74     1     7    1
    75    17    16   ar
    76    62    63    1
    77     6     7    1
    78    61    60    2
    79    14    16   ar
    80    77    78    1
    81    77    80    1
    82    90    91    1
    83    78    79    2
    84    63    64    1
    85    92    91    1
    86    92    93    2
    87    80    81    1
    88    64    65    1
    89    91    94    1
    90    94    95    1
    91    65    66    2
    92    67    66    1
    93    66    68    1
