@<TRIPOS>MOLECULE
tmp/5vbcB00.pdb
 63 58 0 0 0
SMALL
GASTEIGER

@<TRIPOS>ATOM
      1  N        -49.5500    0.6310   14.4820 N.3     2  LEU2       -0.1245
      2  CA       -50.5270   -0.0610   15.3090 C.3     2  LEU2        0.1561
      3  C        -51.6400   -0.6240   14.4530 C.2     2  LEU2        0.2260
      4  O        -52.1670    0.0520   13.5670 O.2     2  LEU2       -0.2867
      5  CB       -51.1430    0.8680   16.3420 C.3     2  LEU2        0.0270
      6  CG       -50.3750    1.3550   17.5510 C.3     2  LEU2        0.0019
      7  CD1      -51.3720    2.1650   18.3620 C.3     2  LEU2        0.0001
      8  CD2      -49.8190    0.1790   18.3470 C.3     2  LEU2        0.0001
      9  N        -48.0650   -6.3760   16.1120 N.3   104  MET104     -0.1245
     10  CA       -48.3620   -4.9390   16.1140 C.3   104  MET104      0.1570
     11  C        -49.8130   -4.5990   16.4640 C.2   104  MET104      0.2261
     12  O        -50.2160   -3.4390   16.3420 O.2   104  MET104     -0.2867
     13  CB       -48.0130   -4.2600   14.7770 C.3   104  MET104      0.0387
     14  CG       -46.5270   -4.2240   14.4420 C.3   104  MET104      0.0595
     15  SD       -45.5210   -3.4820   15.7460 S.3   104  MET104     -0.1393
     16  CE       -46.1180   -1.8030   15.6790 C.3   104  MET104      0.0692
     17  N        -45.4360   -6.1960   24.3890 N.3   172  LYS172     -0.1245
     18  CA       -44.5450   -5.1810   24.9250 C.3   172  LYS172      0.1561
     19  C        -45.3750   -4.0260   25.4550 C.2   172  LYS172      0.2260
     20  O        -46.3480   -3.6020   24.8230 O.2   172  LYS172     -0.2867
     21  CB       -43.5690   -4.6450   23.8680 C.3   172  LYS172      0.0271
     22  CG       -42.4390   -3.7970   24.4530 C.3   172  LYS172      0.0035
     23  CD       -41.6460   -3.0480   23.3760 C.3   172  LYS172      0.0206
     24  CE       -40.5250   -2.2150   23.9920 C.3   172  LYS172      0.1093
     25  NZ       -39.7330   -1.4620   22.9720 N.3   172  LYS172     -0.1314
     26  N        -45.4110   -0.0890   26.2630 N.3   174  VAL174     -0.1245
     27  CA       -44.7260    1.1150   25.8140 C.3   174  VAL174      0.1561
     28  C        -45.4820    2.3270   26.3340 C.2   174  VAL174      0.2260
     29  O        -46.6850    2.2710   26.5890 O.2   174  VAL174     -0.2867
     30  CB       -44.6070    1.1890   24.2760 C.3   174  VAL174      0.0252
     31  CG1      -43.6400    0.1210   23.7640 C.3   174  VAL174      0.0019
     32  CG2      -45.9870    1.0320   23.6320 C.3   174  VAL174      0.0019
     33  N        -46.3380    6.3710   25.4490 N.3   176  TYR176     -0.1241
     34  CA       -46.3720    7.3300   24.3610 C.3   176  TYR176      0.1605
     35  C        -47.0360    8.6180   24.8210 C.2   176  TYR176      0.2264
     36  O        -47.9240    8.6210   25.6800 O.2   176  TYR176     -0.2867
     37  CB       -47.1210    6.7720   23.1430 C.3   176  TYR176      0.0534
     38  CG       -46.2760    5.9660   22.1860 C.ar  176  TYR176     -0.0201
     39  CD1      -45.9450    4.6530   22.4650 C.ar  176  TYR176     -0.0009
     40  CD2      -45.8510    6.5070   20.9730 C.ar  176  TYR176     -0.0009
     41  CE1      -45.1850    3.9050   21.5860 C.ar  176  TYR176      0.0417
     42  CE2      -45.0980    5.7640   20.0830 C.ar  176  TYR176      0.0417
     43  CZ       -44.7590    4.4650   20.4020 C.ar  176  TYR176      0.1957
     44  OH       -44.0000    3.7060   19.5430 O.3   176  TYR176     -0.2866
     45  N        -48.8690   -3.8280   23.2290 N.3   187  VAL187     -0.1231
     46  CA       -48.8900   -4.1330   21.7970 C.3   187  VAL187      0.1692
     47  C        -48.2820   -5.5160   21.5850 C.2   187  VAL187      0.2592
     48  O        -47.2280   -5.8230   22.1560 O.2   187  VAL187     -0.2718
     49  CB       -48.1160   -3.0730   20.9880 C.3   187  VAL187      0.0266
     50  CG1      -48.2430   -3.3240   19.4800 C.3   187  VAL187      0.0020
     51  CG2      -48.5760   -1.6610   21.3650 C.3   187  VAL187      0.0020
     52  N        -48.9470   -6.3550   20.7820 N.am  188  ALA188     -0.1966
     53  CA       -48.3780   -7.6580   20.4400 C.3   188  ALA188      0.1728
     54  C        -47.0750   -7.4820   19.6630 C.2   188  ALA188      0.2616
     55  O        -46.9610   -6.6130   18.7960 O.2   188  ALA188     -0.2715
     56  CB       -49.3700   -8.4850   19.6160 C.3   188  ALA188      0.0334
     57  N        -46.0760   -8.2980   19.9810 N.am  189  THR189     -0.1951
     58  CA       -44.8000   -8.1960   19.2820 C.3   189  THR189      0.1897
     59  C        -44.5360   -9.3860   18.3780 C.2   189  THR189      0.2313
     60  O        -43.4750   -9.4500   17.7520 O.2   189  THR189     -0.2863
     61  CB       -43.6410   -8.0220   20.2720 C.3   189  THR189      0.1794
     62  OG1      -43.7100   -9.0340   21.2770 O.3   189  THR189     -0.2208
     63  CG2      -43.7040   -6.6500   20.9150 C.3   189  THR189      0.0378
@<TRIPOS>BOND
     1     4     3    2
     2    14    13    1
     3    14    15    1
     4     3     2    1
     5     1     2    1
     6    13    10    1
     7     2     5    1
     8    16    15    1
     9     9    10    1
    10    10    11    1
    11    12    11    2
    12     5     6    1
    13     6     8    1
    14     6     7    1
    15    60    59    2
    16    59    58    1
    17    55    54    2
    18    58    57    1
    19    58    61    1
    20    50    49    1
    21    44    43    1
    22    56    53    1
    23    54    57   am
    24    54    53    1
    25    42    43   ar
    26    42    40   ar
    27    61    63    1
    28    61    62    1
    29    43    41   ar
    30    53    52    1
    31    52    47   am
    32    40    38   ar
    33    49    51    1
    34    49    46    1
    35    47    46    1
    36    47    48    2
    37    41    39   ar
    38    46    45    1
    39    38    39   ar
    40    38    37    1
    41    25    24    1
    42    37    34    1
    43    23    24    1
    44    23    22    1
    45    32    30    1
    46    31    30    1
    47    21    22    1
    48    21    18    1
    49    30    27    1
    50    34    35    1
    51    34    33    1
    52    17    18    1
    53    35    36    2
    54    20    19    2
    55    18    19    1
    56    27    26    1
    57    27    28    1
    58    28    29    2
