@<TRIPOS>MOLECULE
tmp/5vbeA01.pdb
 124 114 0 0 0
SMALL
GASTEIGER

@<TRIPOS>ATOM
      1  N        -22.6630   12.9720  -24.0010 N.3     7  VAL7       -0.1245
      2  CA       -21.6820   12.4180  -23.0850 C.3     7  VAL7        0.1561
      3  C        -20.4100   12.1330  -23.8640 C.2     7  VAL7        0.2260
      4  O        -20.4670   11.4390  -24.8850 O.2     7  VAL7       -0.2867
      5  CB       -22.2030   11.1330  -22.4250 C.3     7  VAL7        0.0252
      6  CG1      -21.2180   10.5630  -21.4080 C.3     7  VAL7        0.0019
      7  CG2      -23.5530   11.3930  -21.7760 C.3     7  VAL7        0.0019
      8  N        -16.8250   10.2760  -23.8630 N.3     9  VAL9       -0.1245
      9  CA       -16.1700    9.1300  -23.2270 C.3     9  VAL9        0.1561
     10  C        -14.9120    8.7710  -24.0070 C.2     9  VAL9        0.2260
     11  O        -14.7640    9.1100  -25.1840 O.2     9  VAL9       -0.2867
     12  CB       -17.0920    7.8910  -23.1060 C.3     9  VAL9        0.0252
     13  CG1      -18.3720    8.2310  -22.3400 C.3     9  VAL9        0.0019
     14  CG2      -17.4040    7.2630  -24.4500 C.3     9  VAL9        0.0019
     15  N        -16.6810   13.1110  -19.0800 N.3    58  THR58      -0.1218
     16  CA       -16.4210   12.0540  -18.1130 C.3    58  THR58       0.1862
     17  C        -14.9340   11.9470  -17.7940 C.2    58  THR58       0.2287
     18  O        -14.0730   12.2350  -18.6260 O.2    58  THR58      -0.2866
     19  CB       -16.9180   10.6810  -18.6060 C.3    58  THR58       0.1770
     20  OG1      -16.1590   10.2430  -19.7510 O.3    58  THR58      -0.2211
     21  CG2      -18.3860   10.7300  -18.9520 C.3    58  THR58       0.0375
     22  N        -12.1690    9.2380  -15.3850 N.3    60  GLY60      -0.1210
     23  CA       -11.9420    8.1250  -14.4860 C.3    60  GLY60       0.1956
     24  C        -12.5250    6.8250  -14.9960 C.2    60  GLY60       0.2611
     25  O        -13.1270    6.7420  -16.0710 O.2    60  GLY60      -0.2717
     26  N        -12.3250    5.7790  -14.1960 N.am   61  GLN61      -0.1979
     27  CA       -12.8610    4.4500  -14.4980 C.3    61  GLN61       0.1601
     28  C        -13.1530    3.6610  -13.2210 C.2    61  GLN61       0.2287
     29  O        -14.2480    3.7340  -12.6640 O.2    61  GLN61      -0.2864
     30  CB       -11.8900    3.6560  -15.3730 C.3    61  GLN61       0.0394
     31  CG       -11.4360    4.3900  -16.6330 C.3    61  GLN61       0.0908
     32  CD       -10.5940    3.5360  -17.5760 C.2    61  GLN61       0.2608
     33  OE1       -9.8870    4.0700  -18.4310 O.2    61  GLN61      -0.2717
     34  NE2      -10.6670    2.2120  -17.4320 N.am   61  GLN61      -0.0878
     35  N        -21.9010   10.2070  -13.5060 N.3    65  ARG65      -0.1245
     36  CA       -21.6460    9.4610  -14.7330 C.3    65  ARG65       0.1563
     37  C        -22.7850    8.4890  -15.0170 C.2    65  ARG65       0.2260
     38  O        -23.3520    8.4860  -16.1140 O.2    65  ARG65      -0.2867
     39  CB       -20.3100    8.7170  -14.6300 C.3    65  ARG65       0.0307
     40  CG       -19.5600    8.5850  -15.9540 C.3    65  ARG65       0.0489
     41  CD       -18.1960    7.9190  -15.7780 C.3    65  ARG65       0.2205
     42  NE       -18.2680    6.4610  -15.8750 N.pl3  65  ARG65      -0.0865
     43  CZ       -18.5160    5.6430  -14.8540 C.cat  65  ARG65       0.5346
     44  NH1      -18.7230    6.1260  -13.6370 N.pl3  65  ARG65       0.1354
     45  NH2      -18.5610    4.3310  -15.0520 N.pl3  65  ARG65       0.1354
     46  N        -25.1740    8.7730  -18.2600 N.3    69  CYS69      -0.1235
     47  CA       -25.1210    7.6430  -19.1610 C.3    69  CYS69       0.1677
     48  C        -26.4890    7.0880  -19.4130 C.2    69  CYS69       0.2270
     49  O        -26.8510    6.8210  -20.5100 O.2    69  CYS69      -0.2867
     50  CB       -24.1820    6.5330  -18.7080 C.3    69  CYS69       0.0956
     51  SG       -22.5010    7.0750  -18.7890 S.3    69  CYS69      -0.0801
     52  N        -23.5240   10.0200  -27.5990 N.3    75  PHE75      -0.1241
     53  CA       -22.1840    9.7700  -27.0710 C.3    75  PHE75       0.1605
     54  C        -21.1010   10.0940  -28.0760 C.2    75  PHE75       0.2264
     55  O        -21.1620    9.6430  -29.2290 O.2    75  PHE75      -0.2867
     56  CB       -22.0700    8.3050  -26.6390 C.3    75  PHE75       0.0534
     57  CG       -23.0400    7.9500  -25.5610 C.ar   75  PHE75      -0.0203
     58  CD1      -24.3640    7.6940  -25.8520 C.ar   75  PHE75      -0.0042
     59  CD2      -22.6380    7.9440  -24.2350 C.ar   75  PHE75      -0.0042
     60  CE1      -25.2620    7.4170  -24.8360 C.ar   75  PHE75      -0.0003
     61  CE2      -23.5130    7.6790  -23.2340 C.ar   75  PHE75      -0.0003
     62  CZ       -24.8330    7.4190  -23.5220 C.ar   75  PHE75      -0.0000
     63  N         -3.6530    2.1960  -28.2100 N.3    85  LYS85      -0.1245
     64  CA        -4.4280    1.5770  -27.1480 C.3    85  LYS85       0.1561
     65  C         -5.7790    2.2570  -26.9930 C.2    85  LYS85       0.2260
     66  O         -6.7860    1.5850  -26.7760 O.2    85  LYS85      -0.2867
     67  CB        -3.6750    1.5790  -25.8170 C.3    85  LYS85       0.0271
     68  CG        -4.4620    0.8390  -24.7340 C.3    85  LYS85       0.0035
     69  CD        -3.7270    0.5710  -23.4710 C.3    85  LYS85       0.0206
     70  CE        -4.4570   -0.5330  -22.7020 C.3    85  LYS85       0.1093
     71  NZ        -5.8990   -0.2270  -22.4710 N.3    85  LYS85      -0.1314
     72  N         -9.4100    0.4710  -27.1910 N.3    89  ASP89      -0.1239
     73  CA       -10.2920    0.5930  -26.0320 C.3    89  ASP89       0.1674
     74  C        -11.7130    0.9980  -26.4140 C.2    89  ASP89       0.2266
     75  O        -12.6220    0.8000  -25.5980 O.2    89  ASP89      -0.2867
     76  CB        -9.8160    1.6880  -25.0590 C.3    89  ASP89       0.1410
     77  CG        -8.5980    1.3040  -24.2000 C.2    89  ASP89       0.3668
     78  OD1       -8.1720    0.1400  -24.1340 O.co2  89  ASP89      -0.2456
     79  OD2       -8.0600    2.2270  -23.5540 O.co2  89  ASP89      -0.2456
     80  N        -14.7300   -1.2540  -25.6800 N.3    92  GLN92      -0.1231
     81  CA       -15.2460   -1.4050  -24.3170 C.3    92  GLN92       0.1698
     82  C        -16.2560   -0.3200  -23.9900 C.2    92  GLN92       0.2592
     83  O        -17.3060   -0.5940  -23.3900 O.2    92  GLN92      -0.2718
     84  CB       -14.0800   -1.4010  -23.3170 C.3    92  GLN92       0.0381
     85  CG       -13.0170   -2.4700  -23.6270 C.3    92  GLN92       0.0905
     86  CD       -13.6170   -3.8630  -23.7670 C.2    92  GLN92       0.2608
     87  OE1      -14.6130   -4.1880  -23.1210 O.2    92  GLN92      -0.2717
     88  NE2      -13.0180   -4.6880  -24.6230 N.am   92  GLN92      -0.0878
     89  N        -15.9610    0.9220  -24.4050 N.am   93  TYR93      -0.1976
     90  CA       -16.9160    2.0140  -24.2150 C.3    93  TYR93       0.1639
     91  C        -18.2040    1.7720  -24.9800 C.2    93  TYR93       0.2290
     92  O        -19.2900    1.9480  -24.4360 O.2    93  TYR93      -0.2864
     93  CB       -16.2890    3.3450  -24.6330 C.3    93  TYR93       0.0560
     94  CG       -15.1610    3.7370  -23.7360 C.ar   93  TYR93      -0.0198
     95  CD1      -15.4070    4.3470  -22.5140 C.ar   93  TYR93      -0.0009
     96  CD2      -13.8420    3.4970  -24.0980 C.ar   93  TYR93      -0.0009
     97  CE1      -14.3570    4.6910  -21.6560 C.ar   93  TYR93       0.0417
     98  CE2      -12.7970    3.8390  -23.2560 C.ar   93  TYR93       0.0417
     99  CZ       -13.0550    4.4340  -22.0430 C.ar   93  TYR93       0.1957
    100  OH       -12.0040    4.7440  -21.2150 O.3    93  TYR93      -0.2866
    101  N        -20.2940   -0.9460  -23.2910 N.3    96  GLN96      -0.1231
    102  CA       -20.9500   -0.4930  -22.0720 C.3    96  GLN96       0.1698
    103  C        -22.1140    0.4360  -22.3790 C.2    96  GLN96       0.2592
    104  O        -23.1680    0.3460  -21.7360 O.2    96  GLN96      -0.2718
    105  CB       -19.9500    0.2020  -21.1460 C.3    96  GLN96       0.0381
    106  CG       -20.5050    0.5780  -19.7870 C.3    96  GLN96       0.0905
    107  CD       -21.0650   -0.6050  -18.9990 C.2    96  GLN96       0.2608
    108  OE1      -21.8240   -0.4130  -18.0520 O.2    96  GLN96      -0.2717
    109  NE2      -20.6870   -1.8240  -19.3760 N.am   96  GLN96      -0.0878
    110  N        -21.9530    1.3330  -23.3530 N.am   97  ILE97      -0.1980
    111  CA       -23.0650    2.2110  -23.7170 C.3    97  ILE97       0.1595
    112  C        -24.2540    1.3900  -24.2150 C.2    97  ILE97       0.2287
    113  O        -25.4050    1.6680  -23.8610 O.2    97  ILE97      -0.2864
    114  CB       -22.5990    3.2300  -24.7620 C.3    97  ILE97       0.0276
    115  CG1      -21.6700    4.2620  -24.1260 C.3    97  ILE97       0.0022
    116  CG2      -23.7760    3.9560  -25.3970 C.3    97  ILE97       0.0022
    117  CD1      -20.8490    5.0640  -25.1330 C.3    97  ILE97       0.0001
    118  N        -26.0020   -0.0490  -21.1390 N.3   100  VAL100     -0.1245
    119  CA       -26.7720    0.9560  -20.4910 C.3   100  VAL100      0.1561
    120  C        -28.0470    1.2900  -21.1870 C.2   100  VAL100      0.2260
    121  O        -29.0130    1.4720  -20.5440 O.2   100  VAL100     -0.2867
    122  CB       -25.9390    2.2300  -20.2490 C.3   100  VAL100      0.0252
    123  CG1      -26.7470    3.3700  -19.7390 C.3   100  VAL100      0.0019
    124  CG2      -24.8220    1.9330  -19.3080 C.3   100  VAL100      0.0019
@<TRIPOS>BOND
     1    55    54    2
     2    63    64    1
     3    54    53    1
     4    52    53    1
     5    72    73    1
     6    64    65    1
     7    64    67    1
     8    53    56    1
     9    65    66    2
    10    56    57    1
    11    74    73    1
    12    74    75    2
    13    73    76    1
    14    58    57   ar
    15    58    60   ar
    16    67    68    1
    17    80    81    1
    18    57    59   ar
    19   116   114    1
    20    11    10    2
    21   117   115    1
    22    76    77    1
    23    91    92    2
    24    91    90    1
    25     4     3    2
    26    60    62   ar
    27   114   115    1
    28   114   111    1
    29    68    69    1
    30    93    90    1
    31    93    94    1
    32    88    86   am
    33    14    12    1
    34    89    90    1
    35    89    82   am
    36    81    82    1
    37    81    84    1
    38    59    61   ar
    39   112   113    2
    40   112   111    1
    41    77    78   ar
    42    77    79   ar
    43    96    94   ar
    44    96    98   ar
    45    10     9    1
    46     1     2    1
    47    82    83    2
    48     3     2    1
    49     8     9    1
    50    86    85    1
    51    86    87    2
    52    94    95   ar
    53   111   110    1
    54    85    84    1
    55    62    61   ar
    56    69    70    1
    57   110   103   am
    58   101   102    1
    59    98    99   ar
    60     9    12    1
    61    12    13    1
    62     2     5    1
    63    70    71    1
    64    95    97   ar
    65     5     7    1
    66     5     6    1
    67   103   102    1
    68   103   104    2
    69   102   105    1
    70    99    97   ar
    71    99   100    1
    72   120   121    2
    73   120   119    1
    74   105   106    1
    75   118   119    1
    76    49    48    2
    77   119   122    1
    78   122   123    1
    79   122   124    1
    80   106   107    1
    81    20    19    1
    82    48    47    1
    83   109   107   am
    84    47    50    1
    85    47    46    1
    86    15    16    1
    87   107   108    2
    88    21    19    1
    89    51    50    1
    90    18    17    2
    91    19    16    1
    92    33    32    2
    93    16    17    1
    94    32    34   am
    95    32    31    1
    96    31    30    1
    97    38    37    2
    98    25    24    2
    99    40    41    1
   100    40    39    1
   101    42    41    1
   102    42    43    2
   103    22    23    1
   104    30    27    1
   105    45    43    1
   106    37    36    1
   107    24    23    1
   108    24    26   am
   109    43    44    1
   110    36    39    1
   111    36    35    1
   112    27    26    1
   113    27    28    1
   114    28    29    2
