@<TRIPOS>MOLECULE
tmp/5vbfA00.pdb
 105 101 0 0 0
SMALL
GASTEIGER

@<TRIPOS>ATOM
      1  N         12.8780   -2.5000   -9.2060 N.3   107  SER107     -0.1217
      2  CA        12.8820   -3.0410  -10.5600 C.3   107  SER107      0.1889
      3  C         13.9910   -2.4280  -11.4040 C.2   107  SER107      0.2288
      4  O         14.6870   -3.1430  -12.1360 O.2   107  SER107     -0.2866
      5  CB        11.5200   -2.7890  -11.2130 C.3   107  SER107      0.2089
      6  OG        11.5820   -2.9280  -12.6230 O.3   107  SER107     -0.2183
      7  N          5.6140    8.3000  -16.6770 N.3   153  ASN153     -0.1225
      8  CA         4.7470    7.3030  -16.0350 C.3   153  ASN153      0.1785
      9  C          5.5390    6.3850  -15.1100 C.2   153  ASN153      0.2597
     10  O          5.0590    6.0230  -14.0300 O.2   153  ASN153     -0.2718
     11  CB         3.9180    6.5320  -17.0800 C.3   153  ASN153      0.1169
     12  CG         4.7240    5.5310  -17.9270 C.2   153  ASN153      0.2627
     13  OD1        5.9040    5.7040  -18.2020 O.2   153  ASN153     -0.2716
     14  ND2        4.0420    4.4810  -18.3690 N.am  153  ASN153     -0.0877
     15  N          6.7620    6.0400  -15.4910 N.am  154  PHE154     -0.1976
     16  CA         7.7340    5.4010  -14.6040 C.3   154  PHE154      0.1639
     17  C          9.0140    6.2100  -14.7240 C.2   154  PHE154      0.2290
     18  O          9.9640    5.7900  -15.4040 O.2   154  PHE154     -0.2864
     19  CB         7.9820    3.9320  -14.9660 C.3   154  PHE154      0.0560
     20  CG         6.8260    3.0350  -14.6770 C.ar  154  PHE154     -0.0200
     21  CD1        5.7750    2.9110  -15.5890 C.ar  154  PHE154     -0.0042
     22  CD2        6.7670    2.3240  -13.4810 C.ar  154  PHE154     -0.0042
     23  CE1        4.6810    2.0790  -15.3240 C.ar  154  PHE154     -0.0003
     24  CE2        5.6670    1.4790  -13.1950 C.ar  154  PHE154     -0.0003
     25  CZ         4.6280    1.3550  -14.1180 C.ar  154  PHE154     -0.0000
     26  N         12.3620    4.1400  -13.6960 N.3   157  SER157     -0.1202
     27  CA        12.7510    2.9220  -14.3980 C.3   157  SER157      0.2020
     28  C         12.8010    3.1090  -15.9180 C.2   157  SER157      0.2618
     29  O         13.6520    2.4940  -16.5700 O.2   157  SER157     -0.2717
     30  CB        11.8300    1.7570  -14.0080 C.3   157  SER157      0.2103
     31  OG        10.5010    1.9730  -14.4410 O.3   157  SER157     -0.2182
     32  N         11.9420    3.9510  -16.5120 N.am  158  GLN158     -0.1979
     33  CA        12.1030    4.2460  -17.9430 C.3   158  GLN158      0.1601
     34  C         13.4550    4.9090  -18.2260 C.2   158  GLN158      0.2287
     35  O         14.1200    4.5900  -19.2190 O.2   158  GLN158     -0.2864
     36  CB        10.9810    5.1500  -18.4710 C.3   158  GLN158      0.0394
     37  CG         9.5700    4.6370  -18.3490 C.3   158  GLN158      0.0908
     38  CD         9.2330    3.5960  -19.4010 C.2   158  GLN158      0.2608
     39  OE1       10.0990    2.8470  -19.8600 O.2   158  GLN158     -0.2717
     40  NE2        7.9640    3.5360  -19.7770 N.am  158  GLN158     -0.0878
     41  N         16.4190    2.4730  -18.0950 N.3   161  HIS161     -0.1241
     42  CA        16.6090    1.7200  -19.3310 C.3   161  HIS161      0.1621
     43  C         17.5420    2.4450  -20.2810 C.2   161  HIS161      0.2264
     44  O         18.4490    1.8400  -20.8660 O.2   161  HIS161     -0.2867
     45  CB        15.2660    1.4490  -19.9920 C.3   161  HIS161      0.0745
     46  CG        14.6130    0.2130  -19.4830 C.ar  161  HIS161      0.0817
     47  ND1       13.4120    0.2290  -18.8090 N.ar  161  HIS161     -0.2268
     48  CD2       15.0010   -1.0830  -19.5460 C.ar  161  HIS161      0.1154
     49  CE1       13.0930   -1.0070  -18.4680 C.ar  161  HIS161      0.1986
     50  NE2       14.0360   -1.8210  -18.9110 N.ar  161  HIS161     -0.2212
     51  N         -3.9040   -5.6330  -11.5900 N.3   276  TYR276     -0.1241
     52  CA        -2.8380   -5.2370  -12.5000 C.3   276  TYR276      0.1605
     53  C         -3.2280   -4.0030  -13.3120 C.2   276  TYR276      0.2264
     54  O         -2.4230   -3.0780  -13.4710 O.2   276  TYR276     -0.2867
     55  CB        -2.4950   -6.4060  -13.4160 C.3   276  TYR276      0.0534
     56  CG        -1.2410   -6.2180  -14.2410 C.ar  276  TYR276     -0.0201
     57  CD1        0.0100   -6.0700  -13.6380 C.ar  276  TYR276     -0.0009
     58  CD2       -1.3070   -6.1840  -15.6260 C.ar  276  TYR276     -0.0009
     59  CE1        1.1620   -5.8950  -14.4090 C.ar  276  TYR276      0.0417
     60  CE2       -0.1680   -6.0150  -16.3970 C.ar  276  TYR276      0.0417
     61  CZ         1.0580   -5.8730  -15.7900 C.ar  276  TYR276      0.1957
     62  OH         2.1730   -5.6970  -16.5780 O.3   276  TYR276     -0.2866
     63  N          0.1280    3.0260  -18.0430 N.3   284  VAL284     -0.1231
     64  CA         1.0940    1.9570  -18.2680 C.3   284  VAL284      0.1692
     65  C          1.0500    1.6050  -19.7460 C.2   284  VAL284      0.2592
     66  O         -0.0230    1.3170  -20.2860 O.2   284  VAL284     -0.2718
     67  CB         0.7660    0.7320  -17.3900 C.3   284  VAL284      0.0266
     68  CG1        1.7850   -0.3640  -17.5770 C.3   284  VAL284      0.0020
     69  CG2        0.6520    1.1390  -15.9050 C.3   284  VAL284      0.0020
     70  N          2.2120    1.6070  -20.3990 N.am  285  CYS285     -0.1956
     71  CA         2.2480    1.3640  -21.8400 C.3   285  CYS285      0.1843
     72  C          1.6710    0.0000  -22.2080 C.2   285  CYS285      0.2625
     73  O          1.0920   -0.1500  -23.2880 O.2   285  CYS285     -0.2714
     74  CB         3.6850    1.4950  -22.3700 C.3   285  CYS285      0.0997
     75  SG         4.4990    3.1010  -22.0670 S.3   285  CYS285     -0.0797
     76  N          1.7980   -0.9940  -21.3270 N.am  286  VAL286     -0.1977
     77  CA         1.2860   -2.3360  -21.5890 C.3   286  VAL286      0.1596
     78  C         -0.0760   -2.5720  -20.9400 C.2   286  VAL286      0.2287
     79  O         -0.5410   -3.7140  -20.9050 O.2   286  VAL286     -0.2864
     80  CB         2.2690   -3.4200  -21.1250 C.3   286  VAL286      0.0276
     81  CG1        3.6140   -3.2900  -21.8420 C.3   286  VAL286      0.0022
     82  CG2        2.4140   -3.3870  -19.6010 C.3   286  VAL286      0.0022
     83  N          6.2080   -9.6370  -17.8310 N.3   441  MET441     -0.1230
     84  CA         7.0820   -8.7210  -18.5470 C.3   441  MET441      0.1702
     85  C          8.0610   -8.0060  -17.6300 C.2   441  MET441      0.2592
     86  O          8.8310   -7.1700  -18.1070 O.2   441  MET441     -0.2718
     87  CB         6.2500   -7.6900  -19.3140 C.3   441  MET441      0.0401
     88  CG         5.4350   -8.2680  -20.4420 C.3   441  MET441      0.0596
     89  SD         4.1430   -7.1300  -21.0050 S.3   441  MET441     -0.1393
     90  CE         3.0970   -7.0810  -19.5600 C.3   441  MET441      0.0692
     91  N          8.0170   -8.2930  -16.3300 N.am  442  GLY442     -0.1957
     92  CA         8.8990   -7.7200  -15.3380 C.3   442  GLY442      0.1869
     93  C         10.3820   -8.0730  -15.3790 C.2   442  GLY442      0.2309
     94  O         11.2230   -7.2180  -15.0880 O.2   442  GLY442     -0.2863
     95  N         11.6440   -6.4610  -23.9820 N.3   448  PHE448     -0.1241
     96  CA        10.4220   -5.6670  -23.8770 C.3   448  PHE448      0.1605
     97  C         10.3930   -4.7080  -25.0580 C.2   448  PHE448      0.2264
     98  O         11.2710   -3.8490  -25.1710 O.2   448  PHE448     -0.2867
     99  CB        10.4280   -4.9000  -22.5430 C.3   448  PHE448      0.0534
    100  CG         9.2120   -4.0540  -22.2900 C.ar  448  PHE448     -0.0203
    101  CD1        9.0330   -2.8390  -22.9480 C.ar  448  PHE448     -0.0042
    102  CD2        8.2730   -4.4390  -21.3260 C.ar  448  PHE448     -0.0042
    103  CE1        7.9120   -2.0490  -22.6880 C.ar  448  PHE448     -0.0003
    104  CE2        7.1570   -3.6500  -21.0620 C.ar  448  PHE448     -0.0003
    105  CZ         6.9820   -2.4530  -21.7430 C.ar  448  PHE448     -0.0000
@<TRIPOS>BOND
     1    98    97    2
     2    97    96    1
     3    95    96    1
     4    96    99    1
     5    73    72    2
     6   101   103   ar
     7   101   100   ar
     8   103   105   ar
     9    99   100    1
    10    74    75    1
    11    74    71    1
    12   100   102   ar
    13    72    71    1
    14    72    76   am
    15    81    80    1
    16    71    70    1
    17   105   104   ar
    18    77    76    1
    19    77    80    1
    20    77    78    1
    21   102   104   ar
    22    80    82    1
    23    89    88    1
    24    89    90    1
    25    78    79    2
    26    44    43    2
    27    88    87    1
    28    70    65   am
    29    66    65    2
    30    43    42    1
    31    45    46    1
    32    45    42    1
    33    39    38    2
    34    40    38   am
    35    65    64    1
    36    48    46   ar
    37    48    50   ar
    38    46    47   ar
    39    38    37    1
    40    42    41    1
    41    87    84    1
    42    35    34    2
    43    50    49   ar
    44    47    49   ar
    45    84    83    1
    46    84    85    1
    47    36    37    1
    48    36    33    1
    49    14    12   am
    50    64    63    1
    51    64    67    1
    52    34    33    1
    53    13    12    2
    54    86    85    2
    55    33    32    1
    56    12    11    1
    57    85    91   am
    58    68    67    1
    59    67    69    1
    60    11     8    1
    61     7     8    1
    62    62    61    1
    63    29    28    2
    64    32    28   am
    65    60    61   ar
    66    60    58   ar
    67    91    92    1
    68     8     9    1
    69    28    27    1
    70    61    59   ar
    71    58    56   ar
    72    21    23   ar
    73    21    20   ar
    74    15     9   am
    75    15    16    1
    76    18    17    2
    77    93    92    1
    78    93    94    2
    79    23    25   ar
    80     9    10    2
    81    19    20    1
    82    19    16    1
    83    17    16    1
    84    20    22   ar
    85    31    30    1
    86    59    57   ar
    87    27    30    1
    88    27    26    1
    89    56    57   ar
    90    56    55    1
    91    25    24   ar
    92    22    24   ar
    93    54    53    2
    94    55    52    1
    95    53    52    1
    96     6     5    1
    97    52    51    1
    98     4     3    2
    99     3     2    1
   100     5     2    1
   101     2     1    1
