@<TRIPOS>MOLECULE
tmp/5vblB00.pdb
 133 125 0 0 0
SMALL
GASTEIGER

@<TRIPOS>ATOM
      1  N        186.4380   -3.3110   42.4210 N.3    92  PHE92      -0.1241
      2  CA       185.2040   -3.8230   41.8430 C.3    92  PHE92       0.1605
      3  C        184.9310   -3.2450   40.4590 C.2    92  PHE92       0.2264
      4  O        184.4200   -3.9790   39.6160 O.2    92  PHE92      -0.2867
      5  CB       184.0250   -3.6570   42.8130 C.3    92  PHE92       0.0534
      6  CG       184.1720   -4.5690   44.0110 C.ar   92  PHE92      -0.0203
      7  CD1      183.7600   -5.8960   43.9500 C.ar   92  PHE92      -0.0042
      8  CD2      184.7860   -4.1210   45.1760 C.ar   92  PHE92      -0.0042
      9  CE1      183.9340   -6.7500   45.0430 C.ar   92  PHE92      -0.0003
     10  CE2      184.9570   -4.9750   46.2690 C.ar   92  PHE92      -0.0003
     11  CZ       184.5310   -6.2840   46.1950 C.ar   92  PHE92      -0.0000
     12  N        184.4540   -5.8570   37.4240 N.3    96  TYR96      -0.1241
     13  CA       183.3360   -5.8600   36.4890 C.3    96  TYR96       0.1605
     14  C        183.7720   -5.5230   35.0650 C.2    96  TYR96       0.2264
     15  O        183.5020   -6.3140   34.1630 O.2    96  TYR96      -0.2867
     16  CB       182.1810   -4.9600   36.9780 C.3    96  TYR96       0.0534
     17  CG       181.6240   -5.3430   38.3350 C.ar   96  TYR96      -0.0201
     18  CD1      181.2470   -6.6530   38.6130 C.ar   96  TYR96      -0.0009
     19  CD2      181.4240   -4.3830   39.3240 C.ar   96  TYR96      -0.0009
     20  CE1      180.7430   -7.0120   39.8610 C.ar   96  TYR96       0.0417
     21  CE2      180.9300   -4.7320   40.5800 C.ar   96  TYR96       0.0417
     22  CZ       180.5790   -6.0460   40.8400 C.ar   96  TYR96       0.1957
     23  OH       180.0750   -6.3980   42.0660 O.3    96  TYR96      -0.2866
     24  N        178.1170    1.5870   38.0680 N.3   141  LEU141     -0.1231
     25  CA       176.8790    1.4710   38.8440 C.3   141  LEU141      0.1693
     26  C        176.8760    0.2710   39.7900 C.2   141  LEU141      0.2591
     27  O        176.4060    0.4010   40.9200 O.2   141  LEU141     -0.2718
     28  CB       175.6470    1.4400   37.9290 C.3   141  LEU141      0.0284
     29  CG       175.1050    2.8000   37.4970 C.3   141  LEU141      0.0019
     30  CD1      174.3390    2.6870   36.2000 C.3   141  LEU141      0.0001
     31  CD2      174.2140    3.4120   38.5730 C.3   141  LEU141      0.0001
     32  N        177.3950   -0.8900   39.3350 N.am  142  LEU142     -0.1980
     33  CA       177.4680   -2.1160   40.1400 C.3   142  LEU142      0.1596
     34  C        178.5030   -2.0140   41.2670 C.2   142  LEU142      0.2287
     35  O        178.3810   -2.7210   42.2690 O.2   142  LEU142     -0.2864
     36  CB       177.7330   -3.3560   39.2630 C.3   142  LEU142      0.0297
     37  CG       176.5710   -3.8460   38.3870 C.3   142  LEU142      0.0022
     38  CD1      177.0840   -4.6340   37.2040 C.3   142  LEU142      0.0001
     39  CD2      175.5760   -4.6820   39.1830 C.3   142  LEU142      0.0001
     40  N        177.6940    0.5320   45.4000 N.3   145  PRO145     -0.2102
     41  CA       177.4750    0.1950   46.8220 C.3   145  PRO145      0.1504
     42  C        178.7690    0.0680   47.6310 C.2   145  PRO145      0.2575
     43  O        178.7310    0.2260   48.8470 O.2   145  PRO145     -0.2718
     44  CB       176.7110   -1.1330   46.7650 C.3   145  PRO145      0.0282
     45  CG       176.1140   -1.1750   45.4050 C.3   145  PRO145      0.0208
     46  CD       177.1330   -0.5240   44.5300 C.3   145  PRO145      0.0893
     47  N        179.9100   -0.1840   46.9520 N.am  146  VAL146     -0.1980
     48  CA       181.2380   -0.2760   47.5720 C.3   146  VAL146      0.1595
     49  C        181.7150    1.1460   47.9180 C.2   146  VAL146      0.2287
     50  O        182.2660    1.3530   48.9950 O.2   146  VAL146     -0.2864
     51  CB       182.2650   -1.0530   46.6960 C.3   146  VAL146      0.0276
     52  CG1      183.6000   -1.2270   47.4150 C.3   146  VAL146      0.0022
     53  CG2      181.7150   -2.4120   46.2720 C.3   146  VAL146      0.0022
     54  N        181.7660    1.5730   52.1480 N.3   150  ARG150     -0.1245
     55  CA       183.1340    1.5360   52.6860 C.3   150  ARG150      0.1563
     56  C        183.4880    2.7810   53.4920 C.2   150  ARG150      0.2260
     57  O        183.2360    3.8960   53.0380 O.2   150  ARG150     -0.2867
     58  CB       184.1810    1.2780   51.5910 C.3   150  ARG150      0.0307
     59  CG       184.2350   -0.1670   51.1180 C.3   150  ARG150      0.0489
     60  CD       185.3910   -0.9400   51.7170 C.3   150  ARG150      0.2205
     61  NE       185.4800   -2.2880   51.1540 N.pl3 150  ARG150     -0.0865
     62  CZ       186.5250   -3.0980   51.2980 C.cat 150  ARG150      0.5346
     63  NH1      186.5140   -4.3060   50.7520 N.pl3 150  ARG150      0.1354
     64  NH2      187.5920   -2.7020   51.9820 N.pl3 150  ARG150      0.1354
     65  N        183.5190   -2.8140   54.7260 N.3   165  MET165     -0.1245
     66  CA       182.1480   -2.5670   54.2810 C.3   165  MET165      0.1570
     67  C        181.2620   -2.3800   55.5170 C.2   165  MET165      0.2261
     68  O        181.0600   -3.3290   56.2800 O.2   165  MET165     -0.2867
     69  CB       181.6360   -3.7440   53.4270 C.3   165  MET165      0.0387
     70  CG       182.2180   -3.7920   52.0250 C.3   165  MET165      0.0595
     71  SD       181.4760   -2.6000   50.8840 S.3   165  MET165     -0.1393
     72  CE       179.8850   -3.3740   50.5770 C.3   165  MET165      0.0692
     73  N        177.7460   -1.9510   56.9950 N.3   167  TYR167     -0.1241
     74  CA       176.3290   -2.1870   56.7190 C.3   167  TYR167      0.1605
     75  C        175.3860   -1.4940   57.7100 C.2   167  TYR167      0.2264
     76  O        174.1770   -1.5060   57.4920 O.2   167  TYR167     -0.2867
     77  CB       176.0270   -3.6930   56.6130 C.3   167  TYR167      0.0534
     78  CG       176.7320   -4.3650   55.4550 C.ar  167  TYR167     -0.0201
     79  CD1      176.3700   -4.0920   54.1380 C.ar  167  TYR167     -0.0009
     80  CD2      177.7630   -5.2730   55.6740 C.ar  167  TYR167     -0.0009
     81  CE1      177.0200   -4.7040   53.0670 C.ar  167  TYR167      0.0417
     82  CE2      178.4230   -5.8870   54.6100 C.ar  167  TYR167      0.0417
     83  CZ       178.0460   -5.6020   53.3080 C.ar  167  TYR167      0.1957
     84  OH       178.6860   -6.2050   52.2520 O.3   167  TYR167     -0.2866
     85  N        175.5530   -8.6270   53.4680 N.3   180  GLU180     -0.1245
     86  CA       176.8700   -9.1320   53.0750 C.3   180  GLU180      0.1567
     87  C        176.6830  -10.3260   52.1330 C.2   180  GLU180      0.2260
     88  O        177.3960  -10.4240   51.1350 O.2   180  GLU180     -0.2867
     89  CB       177.7270   -9.4960   54.3090 C.3   180  GLU180      0.0388
     90  CG       179.1030  -10.0890   54.0100 C.3   180  GLU180      0.1160
     91  CD       179.9880   -9.3660   53.0080 C.2   180  GLU180      0.3649
     92  OE1      180.3770   -9.9970   51.9990 O.co2 180  GLU180     -0.2457
     93  OE2      180.3020   -8.1750   53.2330 O.co2 180  GLU180     -0.2457
     94  N        174.8180   -8.6560   48.6960 N.3   183  LEU183     -0.1231
     95  CA       175.7420   -7.9400   47.8110 C.3   183  LEU183      0.1693
     96  C        176.9500   -8.7940   47.4140 C.2   183  LEU183      0.2592
     97  O        177.5410   -8.5500   46.3640 O.2   183  LEU183     -0.2718
     98  CB       176.2020   -6.6030   48.4250 C.3   183  LEU183      0.0284
     99  CG       175.1230   -5.5500   48.7300 C.3   183  LEU183      0.0019
    100  CD1      175.6700   -4.4720   49.6290 C.3   183  LEU183      0.0001
    101  CD2      174.5610   -4.9220   47.4590 C.3   183  LEU183      0.0001
    102  N        177.2970   -9.7750   48.2490 N.am  184  GLY184     -0.1957
    103  CA       178.4120  -10.6890   48.0200 C.3   184  GLY184      0.1869
    104  C        178.1440  -11.7110   46.9350 C.2   184  GLY184      0.2309
    105  O        179.0000  -11.9270   46.0740 O.2   184  GLY184     -0.2863
    106  N        175.6230  -11.5390   44.5760 N.3   186  SER186     -0.1202
    107  CA       175.3690  -10.7730   43.3520 C.3   186  SER186      0.2020
    108  C        176.6650  -10.2690   42.7040 C.2   186  SER186      0.2619
    109  O        176.7290  -10.1890   41.4790 O.2   186  SER186     -0.2717
    110  CB       174.4090   -9.6170   43.6190 C.3   186  SER186      0.2103
    111  OG       174.9390   -8.6990   44.5600 O.3   186  SER186     -0.2182
    112  N        177.6990   -9.9650   43.5250 N.am  187  SER187     -0.1951
    113  CA       179.0210   -9.5210   43.0650 C.3   187  SER187      0.1924
    114  C        179.7210  -10.6460   42.2970 C.2   187  SER187      0.2314
    115  O        180.3090  -10.3900   41.2500 O.2   187  SER187     -0.2863
    116  CB       179.8820   -9.0790   44.2460 C.3   187  SER187      0.2116
    117  OG       181.1320   -8.5570   43.8280 O.3   187  SER187     -0.2180
    118  N        177.2140  -11.3880   38.9010 N.3   190  VAL190     -0.1245
    119  CA       177.3480  -10.4050   37.8200 C.3   190  VAL190      0.1561
    120  C        178.8290  -10.1210   37.4420 C.2   190  VAL190      0.2260
    121  O        179.0860   -9.5500   36.3790 O.2   190  VAL190     -0.2867
    122  CB       176.5410   -9.1100   38.1370 C.3   190  VAL190      0.0252
    123  CG1      177.3450   -8.1100   38.9670 C.3   190  VAL190      0.0019
    124  CG2      176.0050   -8.4610   36.8640 C.3   190  VAL190      0.0019
    125  N        185.3590  -17.3540   48.7680 N.3   291  LYS291     -0.1245
    126  CA       184.3880  -16.3850   49.2800 C.3   291  LYS291      0.1561
    127  C        182.9630  -16.9570   49.3300 C.2   291  LYS291      0.2260
    128  O        182.2420  -16.6700   50.2850 O.2   291  LYS291     -0.2867
    129  CB       184.4460  -15.0670   48.4960 C.3   291  LYS291      0.0271
    130  CG       184.0700  -13.8570   49.3430 C.3   291  LYS291      0.0035
    131  CD       184.4040  -12.5440   48.6570 C.3   291  LYS291      0.0206
    132  CE       184.0010  -11.3650   49.5060 C.3   291  LYS291      0.1093
    133  NZ       184.3310  -10.0740   48.8510 N.3   291  LYS291     -0.1314
@<TRIPOS>BOND
     1    15    14    2
     2    14    13    1
     3    30    29    1
     4   121   120    2
     5    13    16    1
     6    13    12    1
     7   124   122    1
     8    16    17    1
     9    38    37    1
    10   120   119    1
    11    29    28    1
    12    29    31    1
    13   119   122    1
    14   119   118    1
    15    28    25    1
    16    24    25    1
    17   122   123    1
    18    17    18   ar
    19    17    19   ar
    20    37    39    1
    21    37    36    1
    22    18    20   ar
    23    25    26    1
    24    36    33    1
    25    19    21   ar
    26    32    26   am
    27    32    33    1
    28     4     3    2
    29    26    27    2
    30    20    22   ar
    31    33    34    1
    32     3     2    1
    33    21    22   ar
    34    22    23    1
    35   115   114    2
    36    34    35    2
    37   109   108    2
    38     2     1    1
    39     2     5    1
    40   114   113    1
    41   108   107    1
    42   108   112   am
    43     5     6    1
    44   113   112    1
    45   113   116    1
    46   107   110    1
    47   107   106    1
    48   110   111    1
    49   117   116    1
    50     7     6   ar
    51     7     9   ar
    52     6     8   ar
    53    46    40    1
    54    46    45    1
    55     9    11   ar
    56     8    10   ar
    57    40    41    1
    58    45    44    1
    59   105   104    2
    60    11    10   ar
    61    53    51    1
    62    97    96    2
    63    51    52    1
    64    51    48    1
    65    44    41    1
    66    41    42    1
    67   104   103    1
    68    47    48    1
    69    47    42   am
    70    96    95    1
    71    96   102   am
    72   101    99    1
    73    48    49    1
    74    42    43    2
    75    95    98    1
    76    95    94    1
    77    49    50    2
    78   103   102    1
    79    98    99    1
    80   129   126    1
    81   129   130    1
    82   131   130    1
    83   131   132    1
    84    99   100    1
    85   125   126    1
    86   133   132    1
    87   126   127    1
    88   127   128    2
    89    72    71    1
    90    63    62    1
    91    71    70    1
    92    59    58    1
    93    59    60    1
    94    88    87    2
    95    61    62    2
    96    61    60    1
    97    62    64    1
    98    58    55    1
    99    92    91   ar
   100    70    69    1
   101    87    86    1
   102    54    55    1
   103    84    83    1
   104    55    56    1
   105    91    93   ar
   106    91    90    1
   107    57    56    2
   108    81    83   ar
   109    81    79   ar
   110    86    85    1
   111    86    89    1
   112    83    82   ar
   113    69    66    1
   114    90    89    1
   115    79    78   ar
   116    66    65    1
   117    66    67    1
   118    82    80   ar
   119    78    80   ar
   120    78    77    1
   121    67    68    2
   122    77    74    1
   123    74    73    1
   124    74    75    1
   125    76    75    2
