@<TRIPOS>MOLECULE
tmp/5vbpB01.pdb
 127 123 0 0 0
SMALL
GASTEIGER

@<TRIPOS>ATOM
      1  N         -7.0260   60.9600   34.6230 N.3    40  TRP40      -0.1228
      2  CA        -5.6810   60.4890   34.9330 C.3    40  TRP40       0.1722
      3  C         -4.8640   61.4100   35.8620 C.2    40  TRP40       0.2437
      4  O         -4.1300   60.8810   36.6990 O.2    40  TRP40      -0.2733
      5  CB        -4.9060   60.1730   33.6410 C.3    40  TRP40       0.0563
      6  CG        -4.6330   61.3300   32.7270 C.ar   40  TRP40       0.0003
      7  CD1       -5.3930   61.7390   31.6670 C.ar   40  TRP40       0.0946
      8  CD2       -3.5200   62.2170   32.7930 C.ar   40  TRP40       0.0152
      9  NE1       -4.8250   62.8320   31.0770 N.ar   40  TRP40      -0.2442
     10  CE2       -3.6720   63.1510   31.7500 C.ar   40  TRP40       0.0810
     11  CE3       -2.4190   62.3270   33.6520 C.ar   40  TRP40       0.0012
     12  CZ2       -2.7560   64.1830   31.5320 C.ar   40  TRP40       0.0191
     13  CZ3       -1.5110   63.3420   33.4440 C.ar   40  TRP40       0.0001
     14  CH2       -1.6800   64.2610   32.3830 C.ar   40  TRP40       0.0015
     15  N         -5.0110   62.7630   35.7800 N.am   41  PRO41      -0.2718
     16  CA        -4.1890   63.5510   36.7070 C.3    41  PRO41       0.1535
     17  C         -4.6400   63.4220   38.1530 C.2    41  PRO41       0.2598
     18  O         -3.9290   63.8870   39.0370 O.2    41  PRO41      -0.2715
     19  CB        -4.3650   65.0040   36.2080 C.3    41  PRO41       0.0310
     20  CG        -4.8270   64.8720   34.7930 C.3    41  PRO41       0.0237
     21  CD        -5.7170   63.6470   34.8310 C.3    41  PRO41       0.0939
     22  N         -5.8040   62.8110   38.3740 N.am   42  PHE42      -0.1974
     23  CA        -6.4350   62.7670   39.6920 C.3    42  PHE42       0.1639
     24  C         -6.4220   61.3600   40.2970 C.2    42  PHE42       0.2290
     25  O         -6.9750   61.1120   41.3730 O.2    42  PHE42      -0.2864
     26  CB        -7.8730   63.3060   39.5630 C.3    42  PHE42       0.0560
     27  CG        -7.9230   64.7110   39.0350 C.ar   42  PHE42      -0.0200
     28  CD1       -7.6910   65.7920   39.8800 C.ar   42  PHE42      -0.0042
     29  CD2       -8.1530   64.9480   37.6910 C.ar   42  PHE42      -0.0042
     30  CE1       -7.7240   67.0770   39.3920 C.ar   42  PHE42      -0.0003
     31  CE2       -8.1860   66.2240   37.1920 C.ar   42  PHE42      -0.0003
     32  CZ        -7.9640   67.2950   38.0370 C.ar   42  PHE42      -0.0000
     33  N         -3.7570   59.7240   41.3580 N.3    44  GLN44      -0.1245
     34  CA        -2.6930   59.5380   42.3540 C.3    44  GLN44       0.1566
     35  C         -2.3640   60.9030   42.9420 C.2    44  GLN44       0.2260
     36  O         -2.7550   61.9260   42.4010 O.2    44  GLN44      -0.2867
     37  CB        -1.4450   58.8900   41.7320 C.3    44  GLN44       0.0367
     38  CG        -0.8750   59.6730   40.5580 C.3    44  GLN44       0.0905
     39  CD        -1.7140   59.5400   39.2880 C.2    44  GLN44       0.2608
     40  OE1       -2.0640   58.4300   38.8680 O.2    44  GLN44      -0.2717
     41  NE2       -2.0160   60.6740   38.6560 N.am   44  GLN44      -0.0878
     42  N         -0.6470   64.3860   43.7720 N.3    46  VAL46      -0.1245
     43  CA         0.2160   65.2730   43.0170 C.3    46  VAL46       0.1561
     44  C          1.6750   65.0480   43.4040 C.2    46  VAL46       0.2260
     45  O          2.0530   65.2050   44.5780 O.2    46  VAL46      -0.2867
     46  CB        -0.1770   66.7580   43.2470 C.3    46  VAL46       0.0252
     47  CG1        0.7840   67.7210   42.5150 C.3    46  VAL46       0.0019
     48  CG2       -1.6310   66.9830   42.8110 C.3    46  VAL46       0.0019
     49  N          8.2240   65.7170   40.7400 N.3    50  LYS50      -0.1231
     50  CA         8.2750   65.3570   39.3230 C.3    50  LYS50       0.1693
     51  C          7.7560   66.4920   38.4510 C.2    50  LYS50       0.2591
     52  O          8.3080   66.7720   37.4080 O.2    50  LYS50      -0.2718
     53  CB         7.4530   64.0880   39.0670 C.3    50  LYS50       0.0285
     54  CG         7.4710   63.6090   37.6340 C.3    50  LYS50       0.0035
     55  CD         6.7230   62.2860   37.4440 C.3    50  LYS50       0.0206
     56  CE         5.9730   62.2600   36.0920 C.3    50  LYS50       0.1093
     57  NZ         5.7600   60.8930   35.4790 N.3    50  LYS50      -0.1314
     58  N          6.6810   67.1360   38.8940 N.am   51  LEU51      -0.1980
     59  CA         6.0610   68.2160   38.1370 C.3    51  LEU51       0.1596
     60  C          6.7750   69.5710   38.2880 C.2    51  LEU51       0.2287
     61  O          6.3930   70.5690   37.6580 O.2    51  LEU51      -0.2864
     62  CB         4.5890   68.3550   38.5600 C.3    51  LEU51       0.0297
     63  CG         3.6960   67.1530   38.2390 C.3    51  LEU51       0.0022
     64  CD1        2.3280   67.3600   38.8040 C.3    51  LEU51       0.0001
     65  CD2        3.5880   66.9470   36.7510 C.3    51  LEU51       0.0001
     66  N          6.8010   71.6090   40.9470 N.3    53  LEU53      -0.1245
     67  CA         5.8720   72.5580   41.5650 C.3    53  LEU53       0.1561
     68  C          6.1880   72.6990   43.0610 C.2    53  LEU53       0.2260
     69  O          5.4510   72.2050   43.9220 O.2    53  LEU53      -0.2867
     70  CB         4.4300   72.1010   41.3680 C.3    53  LEU53       0.0270
     71  CG         3.9720   71.9520   39.9210 C.3    53  LEU53       0.0019
     72  CD1        2.5680   71.3580   39.8640 C.3    53  LEU53       0.0001
     73  CD2        4.0260   73.2770   39.2340 C.3    53  LEU53       0.0001
     74  N          3.4390   73.6260   45.6390 N.3    56  TYR56      -0.1241
     75  CA         2.1400   72.9400   45.6830 C.3    56  TYR56       0.1605
     76  C          1.7480   72.6220   47.1280 C.2    56  TYR56       0.2264
     77  O          0.6320   72.9290   47.5500 O.2    56  TYR56      -0.2867
     78  CB         2.1270   71.6420   44.8420 C.3    56  TYR56       0.0534
     79  CG         0.7450   71.0320   44.8110 C.ar   56  TYR56      -0.0201
     80  CD1       -0.2160   71.4440   43.8710 C.ar   56  TYR56      -0.0009
     81  CD2        0.3700   70.0980   45.7610 C.ar   56  TYR56      -0.0009
     82  CE1       -1.4970   70.9140   43.8900 C.ar   56  TYR56       0.0417
     83  CE2       -0.8990   69.5620   45.7800 C.ar   56  TYR56       0.0417
     84  CZ        -1.8280   69.9590   44.8530 C.ar   56  TYR56       0.1957
     85  OH        -3.0860   69.4220   44.9040 O.3    56  TYR56      -0.2866
     86  N         -7.7190   71.5910   43.4130 N.3    95  CYS95      -0.1235
     87  CA        -7.3750   71.8760   42.0330 C.3    95  CYS95       0.1677
     88  C         -7.7620   73.3010   41.7060 C.2    95  CYS95       0.2270
     89  O         -7.0020   74.0180   41.0330 O.2    95  CYS95      -0.2867
     90  CB        -8.0760   70.9020   41.0960 C.3    95  CYS95       0.0956
     91  SG        -7.6660   71.0920   39.3700 S.3    95  CYS95      -0.0801
     92  N         -5.2760   75.8570   43.6090 N.3    98  TYR98      -0.1227
     93  CA        -3.8860   75.9130   43.1760 C.3    98  TYR98       0.1736
     94  C         -3.6970   76.4160   41.7480 C.2    98  TYR98       0.2595
     95  O         -2.7250   77.1590   41.4550 O.2    98  TYR98      -0.2718
     96  CB        -3.2190   74.5380   43.2980 C.3    98  TYR98       0.0548
     97  CG        -1.7770   74.6150   42.8690 C.ar   98  TYR98      -0.0200
     98  CD1       -0.8140   75.1430   43.7280 C.ar   98  TYR98      -0.0009
     99  CD2       -1.3840   74.2160   41.5980 C.ar   98  TYR98      -0.0009
    100  CE1        0.4890   75.2500   43.3460 C.ar   98  TYR98       0.0417
    101  CE2       -0.0690   74.3280   41.1950 C.ar   98  TYR98       0.0417
    102  CZ         0.8660   74.8450   42.0740 C.ar   98  TYR98       0.1957
    103  OH         2.1880   74.9600   41.7100 O.3    98  TYR98      -0.2866
    104  N         -4.6080   76.0200   40.8670 N.am   99  ASN99      -0.1974
    105  CA        -4.4510   76.2510   39.4260 C.3    99  ASN99       0.1688
    106  C         -5.2700   77.4420   38.9210 C.2    99  ASN99       0.2292
    107  O         -6.3530   77.7270   39.4190 O.2    99  ASN99      -0.2864
    108  CB        -4.8470   74.9990   38.6360 C.3    99  ASN99       0.1181
    109  CG        -3.9780   73.7880   38.9690 C.2    99  ASN99       0.2629
    110  OD1       -2.8490   73.6490   38.4800 O.2    99  ASN99      -0.2716
    111  ND2       -4.4930   72.9220   39.8130 N.am   99  ASN99      -0.0877
    112  N         -7.8210   77.0230   33.1590 N.3   103  ASP103     -0.1239
    113  CA        -6.7280   76.2070   32.6060 C.3   103  ASP103      0.1674
    114  C         -7.2670   74.7830   32.3740 C.2   103  ASP103      0.2266
    115  O         -8.2700   74.3950   32.9870 O.2   103  ASP103     -0.2867
    116  CB        -5.5040   76.1950   33.5470 C.3   103  ASP103      0.1410
    117  CG        -4.4910   77.3080   33.2470 C.2   103  ASP103      0.3668
    118  OD1       -4.8780   78.3040   32.5890 O.co2 103  ASP103     -0.2456
    119  OD2       -3.3150   77.1950   33.6790 O.co2 103  ASP103     -0.2456
    120  N         -6.3130   71.8400   33.3260 N.3   105  ILE105     -0.1245
    121  CA        -6.3980   70.9670   34.5010 C.3   105  ILE105      0.1561
    122  C         -7.6730   71.2830   35.3030 C.2   105  ILE105      0.2260
    123  O         -8.3210   70.3890   35.8500 O.2   105  ILE105     -0.2867
    124  CB        -5.1240   71.0910   35.3950 C.3   105  ILE105      0.0252
    125  CG1       -5.1100   70.0130   36.4750 C.3   105  ILE105      0.0019
    126  CG2       -4.9920   72.4950   36.0030 C.3   105  ILE105      0.0019
    127  CD1       -4.9210   68.5970   35.9410 C.3   105  ILE105      0.0001
@<TRIPOS>BOND
     1     9     7   ar
     2     9    10   ar
     3    12    10   ar
     4    12    14   ar
     5     7     6   ar
     6    10     8   ar
     7   114   113    1
     8   114   115    2
     9    14    13   ar
    10   118   117   ar
    11   113   112    1
    12   113   116    1
    13     6     8   ar
    14     6     5    1
    15     8    11   ar
    16   117   116    1
    17   117   119   ar
    18   120   121    1
    19    13    11   ar
    20     5     2    1
    21   121   122    1
    22   121   124    1
    23     1     2    1
    24    20    21    1
    25    20    19    1
    26    21    15    1
    27     2     3    1
    28   122   123    2
    29   124   126    1
    30   124   125    1
    31    57    56    1
    32    15     3   am
    33    15    16    1
    34     3     4    2
    35   127   125    1
    36    56    55    1
    37    19    16    1
    38    16    17    1
    39    65    63    1
    40    31    29   ar
    41    31    32   ar
    42    52    51    2
    43    55    54    1
    44    54    53    1
    45    61    60    2
    46    29    27   ar
    47    32    30   ar
    48    59    60    1
    49    59    62    1
    50    59    58    1
    51    17    22   am
    52    17    18    2
    53    63    62    1
    54    63    64    1
    55    22    23    1
    56    51    58   am
    57    51    50    1
    58   110   109    2
    59   108   109    1
    60   108   105    1
    61    41    39   am
    62    40    39    2
    63   106   107    2
    64   106   105    1
    65   109   111   am
    66    27    26    1
    67    27    28   ar
    68    53    50    1
    69    73    71    1
    70    39    38    1
    71    50    49    1
    72    91    90    1
    73    30    28   ar
    74   105   104    1
    75    26    23    1
    76    23    24    1
    77    72    71    1
    78    71    70    1
    79    24    25    2
    80    38    37    1
    81   104    94   am
    82    66    67    1
    83    89    88    2
    84    90    87    1
    85   101    99   ar
    86   101   102   ar
    87    33    34    1
    88    70    67    1
    89    95    94    2
    90    67    68    1
    91    99    97   ar
    92    88    87    1
    93   103   102    1
    94    37    34    1
    95    94    93    1
    96    87    86    1
    97   102   100   ar
    98    34    35    1
    99    36    35    2
   100    47    46    1
   101    48    46    1
   102    97    96    1
   103    97    98   ar
   104    43    46    1
   105    43    44    1
   106    43    42    1
   107    68    69    2
   108    93    96    1
   109    93    92    1
   110   100    98   ar
   111    44    45    2
   112    80    82   ar
   113    80    79   ar
   114    82    84   ar
   115    79    78    1
   116    79    81   ar
   117    78    75    1
   118    84    85    1
   119    84    83   ar
   120    74    75    1
   121    75    76    1
   122    81    83   ar
   123    76    77    2
