@<TRIPOS>MOLECULE
tmp/5vbqA00.pdb
 138 135 0 0 0
SMALL
GASTEIGER

@<TRIPOS>ATOM
      1  N        -21.5720    0.4900    0.6950 N.3    26  TRP26      -0.1228
      2  CA       -22.3600   -0.2860    1.6410 C.3    26  TRP26       0.1722
      3  C        -23.1440   -1.4610    1.0460 C.2    26  TRP26       0.2437
      4  O        -23.1990   -2.4890    1.7120 O.2    26  TRP26      -0.2733
      5  CB       -23.3060    0.6150    2.4730 C.3    26  TRP26       0.0563
      6  CG       -24.3250    1.3770    1.6970 C.ar   26  TRP26       0.0003
      7  CD1      -24.2000    2.6320    1.2080 C.ar   26  TRP26       0.0946
      8  CD2      -25.6310    0.9340    1.3310 C.ar   26  TRP26       0.0152
      9  NE1      -25.3340    2.9990    0.5440 N.ar   26  TRP26      -0.2442
     10  CE2      -26.2300    1.9740    0.5980 C.ar   26  TRP26       0.0810
     11  CE3      -26.3360   -0.2430    1.5280 C.ar   26  TRP26       0.0012
     12  CZ2      -27.5130    1.8800    0.0780 C.ar   26  TRP26       0.0191
     13  CZ3      -27.6190   -0.3380    0.9920 C.ar   26  TRP26       0.0001
     14  CH2      -28.1730    0.7040    0.2650 C.ar   26  TRP26       0.0015
     15  N        -23.7140   -1.3540   -0.1750 N.am   27  PRO27      -0.2718
     16  CA       -24.4400   -2.5410   -0.6510 C.3    27  PRO27       0.1535
     17  C        -23.5300   -3.7180   -0.9310 C.2    27  PRO27       0.2598
     18  O        -23.9950   -4.8630   -1.0150 O.2    27  PRO27      -0.2715
     19  CB       -25.0870   -2.0770   -1.9550 C.3    27  PRO27       0.0310
     20  CG       -25.0760   -0.5620   -1.8690 C.3    27  PRO27       0.0237
     21  CD       -23.7810   -0.2720   -1.1770 C.3    27  PRO27       0.0939
     22  N        -22.2410   -3.4350   -1.0670 N.am   28  PHE28      -0.1974
     23  CA       -21.2670   -4.4560   -1.4900 C.3    28  PHE28       0.1639
     24  C        -20.4430   -5.0010   -0.3260 C.2    28  PHE28       0.2290
     25  O        -19.5870   -5.8600   -0.5290 O.2    28  PHE28      -0.2864
     26  CB       -20.3520   -3.8670   -2.5760 C.3    28  PHE28       0.0560
     27  CG       -21.1030   -3.3070   -3.7200 C.ar   28  PHE28      -0.0200
     28  CD1      -21.5870   -4.1450   -4.7210 C.ar   28  PHE28      -0.0042
     29  CD2      -21.4450   -1.9700   -3.7530 C.ar   28  PHE28      -0.0042
     30  CE1      -22.3540   -3.6350   -5.7460 C.ar   28  PHE28      -0.0003
     31  CE2      -22.2290   -1.4490   -4.7920 C.ar   28  PHE28      -0.0003
     32  CZ       -22.6690   -2.2930   -5.7920 C.ar   28  PHE28      -0.0000
     33  N        -21.4520   -6.8990    2.2580 N.3    30  ARG30      -0.1245
     34  CA       -21.8320   -8.2170    2.7330 C.3    30  ARG30       0.1563
     35  C        -22.4500   -8.9750    1.5860 C.2    30  ARG30       0.2260
     36  O        -22.9520   -8.3710    0.6340 O.2    30  ARG30      -0.2867
     37  CB       -22.8300   -8.1520    3.8960 C.3    30  ARG30       0.0307
     38  CG       -22.2430   -7.7030    5.2380 C.3    30  ARG30       0.0489
     39  CD       -21.2040   -8.7260    5.7270 C.3    30  ARG30       0.2205
     40  NE       -20.7670   -8.5370    7.1110 N.pl3  30  ARG30      -0.0865
     41  CZ       -19.9520   -7.5690    7.5220 C.cat  30  ARG30       0.5346
     42  NH1      -19.4970   -6.6540    6.6620 N.pl3  30  ARG30       0.1354
     43  NH2      -19.6050   -7.5040    8.8030 N.pl3  30  ARG30       0.1354
     44  N        -25.2470  -10.7690   -0.5320 N.3    32  VAL32      -0.1245
     45  CA       -26.6630  -10.5220   -0.7250 C.3    32  VAL32       0.1561
     46  C        -27.4910  -11.4690    0.1080 C.2    32  VAL32       0.2260
     47  O        -27.3640  -12.6910   -0.0230 O.2    32  VAL32      -0.2867
     48  CB       -27.0240  -10.6500   -2.2110 C.3    32  VAL32       0.0252
     49  CG1      -28.5430  -10.5860   -2.4490 C.3    32  VAL32       0.0019
     50  CG2      -26.3240   -9.5360   -2.9790 C.3    32  VAL32       0.0019
     51  N        -33.9450  -11.1670    3.1820 N.3    36  LYS36      -0.1231
     52  CA       -34.0770   -9.7970    3.6730 C.3    36  LYS36       0.1693
     53  C        -34.4680   -8.8430    2.5400 C.2    36  LYS36       0.2592
     54  O        -35.3500   -7.9880    2.7180 O.2    36  LYS36      -0.2718
     55  CB       -32.7860   -9.3170    4.3120 C.3    36  LYS36       0.0285
     56  CG       -32.8780   -7.9370    4.9540 C.3    36  LYS36       0.0035
     57  CD       -31.5250   -7.4900    5.4950 C.3    36  LYS36       0.0206
     58  CE       -31.0610   -8.3310    6.6970 C.3    36  LYS36       0.1093
     59  NZ       -31.9410   -8.1990    7.8900 N.3    36  LYS36      -0.1314
     60  N        -33.8240   -8.9950    1.3920 N.am   37  LEU37      -0.1966
     61  CA       -34.0220   -8.0540    0.3030 C.3    37  LEU37       0.1728
     62  C        -35.2080   -8.4120   -0.5880 C.2    37  LEU37       0.2616
     63  O        -35.5770   -7.6330   -1.4900 O.2    37  LEU37      -0.2715
     64  CB       -32.7630   -7.9580   -0.5640 C.3    37  LEU37       0.0311
     65  CG       -31.4750   -7.5420    0.1500 C.3    37  LEU37       0.0022
     66  CD1      -30.4160   -7.1770   -0.8940 C.3    37  LEU37       0.0001
     67  CD2      -31.6540   -6.5140    1.2010 C.3    37  LEU37       0.0001
     68  N        -35.8480   -9.5400   -0.2850 N.am   38  GLN38      -0.1963
     69  CA       -37.0540   -9.9630   -1.0000 C.3    38  GLN38       0.1733
     70  C        -36.7520  -10.2810   -2.4610 C.2    38  GLN38       0.2616
     71  O        -37.5050   -9.8670   -3.3620 O.2    38  GLN38      -0.2715
     72  CB       -38.1510   -8.9020   -0.9210 C.3    38  GLN38       0.0408
     73  CG       -38.4000   -8.3690    0.4760 C.3    38  GLN38       0.0908
     74  CD       -38.9290   -9.4140    1.3970 C.2    38  GLN38       0.2608
     75  OE1      -38.3710   -9.6650    2.4840 O.2    38  GLN38      -0.2717
     76  NE2      -40.0670   -9.9680    1.0390 N.am   38  GLN38      -0.0878
     77  N        -35.6730  -11.0330   -2.6890 N.am   39  LEU39      -0.1977
     78  CA       -35.2150  -11.3730   -4.0510 C.3    39  LEU39       0.1596
     79  C        -34.9800  -12.8800   -4.2040 C.2    39  LEU39       0.2287
     80  O        -33.8480  -13.3650   -4.2660 O.2    39  LEU39      -0.2864
     81  CB       -33.9130  -10.6320   -4.3880 C.3    39  LEU39       0.0297
     82  CG       -33.9560   -9.1350   -4.2350 C.3    39  LEU39       0.0022
     83  CD1      -32.5190   -8.6090   -4.4210 C.3    39  LEU39       0.0001
     84  CD2      -34.9280   -8.4700   -5.1760 C.3    39  LEU39       0.0001
     85  N        -32.3100  -14.1670   -6.8200 N.3    42  TYR42      -0.1241
     86  CA       -30.9600  -13.6450   -6.9320 C.3    42  TYR42       0.1605
     87  C        -29.9420  -14.7600   -7.1470 C.2    42  TYR42       0.2264
     88  O        -29.1080  -14.6690   -8.0550 O.2    42  TYR42      -0.2867
     89  CB       -30.5590  -12.8040   -5.6970 C.3    42  TYR42       0.0534
     90  CG       -29.1860  -12.2040   -5.8870 C.ar   42  TYR42      -0.0201
     91  CD1      -29.0180  -11.0490   -6.6520 C.ar   42  TYR42      -0.0009
     92  CD2      -28.0730  -12.8030   -5.3560 C.ar   42  TYR42      -0.0009
     93  CE1      -27.7600  -10.5080   -6.8850 C.ar   42  TYR42       0.0417
     94  CE2      -26.8040  -12.2860   -5.5840 C.ar   42  TYR42       0.0417
     95  CZ       -26.6590  -11.1200   -6.3370 C.ar   42  TYR42       0.1957
     96  OH       -25.4130  -10.5790   -6.5750 O.3    42  TYR42      -0.2866
     97  N        -23.4540   -7.2230  -10.4870 N.3    81  CYS81      -0.1235
     98  CA       -24.3570   -6.1160  -10.3120 C.3    81  CYS81       0.1677
     99  C        -24.9000   -5.6580  -11.6780 C.2    81  CYS81       0.2270
    100  O        -26.0920   -5.4370  -11.8330 O.2    81  CYS81      -0.2867
    101  CB       -23.6260   -4.9880   -9.6010 C.3    81  CYS81       0.0956
    102  SG       -24.7050   -3.5850   -9.2310 S.3    81  CYS81      -0.0801
    103  N        -27.4480   -8.5550  -13.0330 N.3    84  TYR84      -0.1227
    104  CA       -28.7010   -8.7550  -12.3330 C.3    84  TYR84       0.1736
    105  C        -29.6580   -7.5680  -12.4820 C.2    84  TYR84       0.2595
    106  O        -30.8870   -7.7570  -12.5470 O.2    84  TYR84      -0.2718
    107  CB       -28.4450   -9.0110  -10.8330 C.3    84  TYR84       0.0548
    108  CG       -29.7150   -9.3170  -10.1100 C.ar   84  TYR84      -0.0200
    109  CD1      -30.2880  -10.5810  -10.1700 C.ar   84  TYR84      -0.0009
    110  CD2      -30.3740   -8.3350   -9.3790 C.ar   84  TYR84      -0.0009
    111  CE1      -31.4790  -10.8630   -9.5440 C.ar   84  TYR84       0.0417
    112  CE2      -31.5520   -8.6050   -8.7370 C.ar   84  TYR84       0.0417
    113  CZ       -32.1200   -9.8630   -8.8310 C.ar   84  TYR84       0.1957
    114  OH       -33.3110  -10.1440   -8.2180 O.3    84  TYR84      -0.2866
    115  N        -29.0980   -6.3620  -12.4840 N.am   85  ASN85      -0.1974
    116  CA       -29.9050   -5.1400  -12.4200 C.3    85  ASN85       0.1688
    117  C        -30.0980   -4.5430  -13.7940 C.2    85  ASN85       0.2292
    118  O        -29.7120   -5.1210  -14.8000 O.2    85  ASN85      -0.2864
    119  CB       -29.2470   -4.1670  -11.4520 C.3    85  ASN85       0.1181
    120  CG       -29.1350   -4.7460  -10.0430 C.2    85  ASN85       0.2629
    121  OD1      -30.1030   -4.8120   -9.2930 O.2    85  ASN85      -0.2716
    122  ND2      -27.9370   -5.1750   -9.6990 N.am   85  ASN85      -0.0877
    123  N        -30.5210    1.9010  -13.0060 N.3    89  ASP89      -0.1239
    124  CA       -30.8230    1.6630  -11.5930 C.3    89  ASP89       0.1674
    125  C        -29.7840    2.3370  -10.6970 C.2    89  ASP89       0.2266
    126  O        -28.6020    2.3520  -11.0100 O.2    89  ASP89      -0.2867
    127  CB       -30.8310    0.1680  -11.2700 C.3    89  ASP89       0.1410
    128  CG       -32.0130   -0.5630  -11.8200 C.2    89  ASP89       0.3668
    129  OD1      -33.0040    0.0390  -12.2470 O.co2  89  ASP89      -0.2456
    130  OD2      -31.9440   -1.7910  -11.7890 O.co2  89  ASP89      -0.2456
    131  N        -28.4330    1.2320   -8.0320 N.3    91  ILE91      -0.1245
    132  CA       -27.3700    0.3270   -7.5970 C.3    91  ILE91       0.1561
    133  C        -26.3020    0.2080   -8.6850 C.2    91  ILE91       0.2260
    134  O        -25.1220    0.0350   -8.3870 O.2    91  ILE91      -0.2867
    135  CB       -27.9290   -1.0750   -7.2200 C.3    91  ILE91       0.0252
    136  CG1      -26.8640   -1.9430   -6.5250 C.3    91  ILE91       0.0019
    137  CG2      -28.4420   -1.8090   -8.4210 C.3    91  ILE91       0.0019
    138  CD1      -26.5130   -1.5060   -5.1180 C.3    91  ILE91       0.0001
@<TRIPOS>BOND
     1   118   117    2
     2   117   116    1
     3   103   104    1
     4   123   124    1
     5   106   105    2
     6   115   105   am
     7   115   116    1
     8   105   104    1
     9   116   119    1
    10   104   107    1
    11   129   128   ar
    12   100    99    2
    13   128   130   ar
    14   128   127    1
    15    99    98    1
    16   124   127    1
    17   124   125    1
    18   119   120    1
    19   126   125    2
    20   107   108    1
    21    97    98    1
    22    98   101    1
    23   109   108   ar
    24   109   111   ar
    25   108   110   ar
    26   120   122   am
    27   120   121    2
    28   101   102    1
    29   111   113   ar
    30   110   112   ar
    31   113   112   ar
    32   113   114    1
    33   133   134    2
    34   133   132    1
    35   137   135    1
    36    88    87    2
    37   131   132    1
    38   132   135    1
    39   135   136    1
    40    87    86    1
    41    86    85    1
    42    86    89    1
    43    93    91   ar
    44    93    95   ar
    45    91    90   ar
    46    96    95    1
    47   136   138    1
    48    95    94   ar
    49    90    89    1
    50    90    92   ar
    51    32    30   ar
    52    32    31   ar
    53    30    28   ar
    54    94    92   ar
    55    84    82    1
    56    31    29   ar
    57    28    27   ar
    58    83    82    1
    59    81    82    1
    60    81    78    1
    61    80    79    2
    62    79    78    1
    63    78    77    1
    64    29    27   ar
    65    27    26    1
    66    71    70    2
    67    50    48    1
    68    77    70   am
    69    26    23    1
    70    70    69    1
    71    49    48    1
    72    48    45    1
    73    19    20    1
    74    19    16    1
    75    20    21    1
    76    23    22    1
    77    23    24    1
    78    63    62    2
    79    21    15    1
    80    22    17   am
    81    18    17    2
    82    69    72    1
    83    69    68    1
    84    17    16    1
    85    72    73    1
    86    66    65    1
    87    45    44    1
    88    45    46    1
    89    16    15    1
    90    62    68   am
    91    62    61    1
    92    64    65    1
    93    64    61    1
    94    25    24    2
    95    15     3   am
    96    47    46    2
    97    12    14   ar
    98    12    10   ar
    99    65    67    1
   100    14    13   ar
   101    61    60    1
   102    73    74    1
   103     9    10   ar
   104     9     7   ar
   105    10     8   ar
   106    36    35    2
   107     1     2    1
   108    13    11   ar
   109    76    74   am
   110     3     2    1
   111     3     4    2
   112     7     6   ar
   113     8    11   ar
   114     8     6   ar
   115    60    53   am
   116    74    75    2
   117    35    34    1
   118     2     5    1
   119     6     5    1
   120    33    34    1
   121    53    54    2
   122    53    52    1
   123    34    37    1
   124    51    52    1
   125    52    55    1
   126    37    38    1
   127    55    56    1
   128    56    57    1
   129    38    39    1
   130    57    58    1
   131    39    40    1
   132    42    41    1
   133    58    59    1
   134    40    41    2
   135    41    43    1
