@<TRIPOS>MOLECULE
tmp/5vbrA00.pdb
 146 142 0 0 0
SMALL
GASTEIGER

@<TRIPOS>ATOM
      1  N         21.4810    3.5600   -0.5810 N.3    26  TRP26      -0.1228
      2  CA        22.3410    2.8520   -1.5260 C.3    26  TRP26       0.1722
      3  C         23.1310    1.6620   -0.9430 C.2    26  TRP26       0.2437
      4  O         23.2960    0.6700   -1.6500 O.2    26  TRP26      -0.2733
      5  CB        23.2990    3.8250   -2.2510 C.3    26  TRP26       0.0563
      6  CG        24.3110    4.5450   -1.4160 C.ar   26  TRP26       0.0003
      7  CD1       24.2000    5.8080   -0.8910 C.ar   26  TRP26       0.0946
      8  CD2       25.6080    4.0670   -1.0430 C.ar   26  TRP26       0.0152
      9  NE1       25.3430    6.1250   -0.1850 N.ar   26  TRP26      -0.2442
     10  CE2       26.2200    5.0750   -0.2670 C.ar   26  TRP26       0.0810
     11  CE3       26.3020    2.8710   -1.2700 C.ar   26  TRP26       0.0012
     12  CZ2       27.5020    4.9270    0.2770 C.ar   26  TRP26       0.0191
     13  CZ3       27.5700    2.7210   -0.7260 C.ar   26  TRP26       0.0001
     14  CH2       28.1540    3.7440    0.0440 C.ar   26  TRP26       0.0015
     15  N         23.5890    1.7170    0.3310 N.am   27  PRO27      -0.2718
     16  CA        24.3310    0.5140    0.7560 C.3    27  PRO27       0.1535
     17  C         23.4280   -0.6800    1.0250 C.2    27  PRO27       0.2598
     18  O         23.9170   -1.8110    1.1090 O.2    27  PRO27      -0.2715
     19  CB        25.0070    0.9470    2.0680 C.3    27  PRO27       0.0310
     20  CG        24.9080    2.4660    2.0800 C.3    27  PRO27       0.0237
     21  CD        23.6330    2.7640    1.3690 C.3    27  PRO27       0.0939
     22  N         22.1320   -0.4240    1.1690 N.am   28  PHE28      -0.1974
     23  CA        21.1820   -1.4680    1.5390 C.3    28  PHE28       0.1639
     24  C         20.3570   -1.9700    0.3550 C.2    28  PHE28       0.2290
     25  O         19.4670   -2.8060    0.5240 O.2    28  PHE28      -0.2864
     26  CB        20.2700   -0.9430    2.6550 C.3    28  PHE28       0.0560
     27  CG        21.0250   -0.3270    3.7930 C.ar   28  PHE28      -0.0200
     28  CD1       21.5140   -1.1160    4.8290 C.ar   28  PHE28      -0.0042
     29  CD2       21.2760    1.0440    3.8180 C.ar   28  PHE28      -0.0042
     30  CE1       22.2390   -0.5480    5.8700 C.ar   28  PHE28      -0.0003
     31  CE2       21.9960    1.6140    4.8520 C.ar   28  PHE28      -0.0003
     32  CZ        22.4780    0.8260    5.8780 C.ar   28  PHE28      -0.0000
     33  N         21.3950   -3.8170   -2.2110 N.3    30  ARG30      -0.1245
     34  CA        21.7740   -5.1350   -2.7150 C.3    30  ARG30       0.1563
     35  C         22.3970   -5.9280   -1.5900 C.2    30  ARG30       0.2260
     36  O         22.8590   -5.3380   -0.6160 O.2    30  ARG30      -0.2867
     37  CB        22.7610   -5.0230   -3.8920 C.3    30  ARG30       0.0307
     38  CG        22.1440   -4.6060   -5.2210 C.3    30  ARG30       0.0489
     39  CD        21.0450   -5.5760   -5.6500 C.3    30  ARG30       0.2205
     40  NE        20.5930   -5.3650   -7.0260 N.pl3  30  ARG30      -0.0865
     41  CZ        19.7600   -4.3980   -7.4020 C.cat  30  ARG30       0.5346
     42  NH1       19.3980   -4.2880   -8.6750 N.pl3  30  ARG30       0.1354
     43  NH2       19.2980   -3.5300   -6.5100 N.pl3  30  ARG30       0.1354
     44  N         25.2180   -7.7000    0.5070 N.3    32  VAL32      -0.1245
     45  CA        26.6490   -7.4410    0.6640 C.3    32  VAL32       0.1561
     46  C         27.4710   -8.4070   -0.1830 C.2    32  VAL32       0.2260
     47  O         27.3470   -9.6260   -0.0430 O.2    32  VAL32      -0.2867
     48  CB        27.0940   -7.5570    2.1330 C.3    32  VAL32       0.0252
     49  CG1       28.6270   -7.4460    2.2420 C.3    32  VAL32       0.0019
     50  CG2       26.4200   -6.4780    2.9730 C.3    32  VAL32       0.0019
     51  N         33.7590   -8.1810   -3.3260 N.3    36  LYS36      -0.1231
     52  CA        33.9110   -6.8230   -3.8630 C.3    36  LYS36       0.1693
     53  C         34.3740   -5.8530   -2.7810 C.2    36  LYS36       0.2592
     54  O         35.2750   -5.0310   -3.0050 O.2    36  LYS36      -0.2718
     55  CB        32.6000   -6.3200   -4.4640 C.3    36  LYS36       0.0285
     56  CG        32.7250   -4.9550   -5.1590 C.3    36  LYS36       0.0035
     57  CD        31.3630   -4.3940   -5.5530 C.3    36  LYS36       0.0206
     58  CE        30.6280   -5.3100   -6.5220 C.3    36  LYS36       0.1093
     59  NZ        31.3810   -5.5650   -7.7890 N.3    36  LYS36      -0.1314
     60  N         33.7480   -5.9420   -1.6100 N.am   37  LEU37      -0.1966
     61  CA        33.9950   -4.9590   -0.5540 C.3    37  LEU37       0.1728
     62  C         35.2030   -5.3100    0.3030 C.2    37  LEU37       0.2616
     63  O         35.5590   -4.5490    1.2180 O.2    37  LEU37      -0.2715
     64  CB        32.7710   -4.8030    0.3470 C.3    37  LEU37       0.0311
     65  CG        31.4140   -4.5350   -0.3030 C.3    37  LEU37       0.0022
     66  CD1       30.3990   -4.0210    0.7260 C.3    37  LEU37       0.0001
     67  CD2       31.5490   -3.6000   -1.4860 C.3    37  LEU37       0.0001
     68  N         35.8150   -6.4590    0.0210 N.am   38  GLN38      -0.1963
     69  CA        37.0360   -6.8960    0.7250 C.3    38  GLN38       0.1733
     70  C         36.7490   -7.2130    2.1960 C.2    38  GLN38       0.2616
     71  O         37.5060   -6.8100    3.0900 O.2    38  GLN38      -0.2715
     72  CB        38.1350   -5.8290    0.6310 C.3    38  GLN38       0.0408
     73  CG        38.3600   -5.2800   -0.7890 C.3    38  GLN38       0.0908
     74  CD        38.8150   -6.3480   -1.7780 C.2    38  GLN38       0.2608
     75  OE1       38.1650   -6.5840   -2.8000 O.2    38  GLN38      -0.2717
     76  NE2       39.9430   -6.9830   -1.4860 N.am   38  GLN38      -0.0878
     77  N         35.6530   -7.9300    2.4350 N.am   39  LEU39      -0.1977
     78  CA        35.2170   -8.2610    3.7930 C.3    39  LEU39       0.1596
     79  C         34.9650   -9.7560    3.9550 C.2    39  LEU39       0.2287
     80  O         33.8160  -10.1870    4.0290 O.2    39  LEU39      -0.2864
     81  CB        33.9430   -7.4910    4.1590 C.3    39  LEU39       0.0297
     82  CG        34.0510   -5.9640    4.1000 C.3    39  LEU39       0.0022
     83  CD1       32.7260   -5.2990    4.4150 C.3    39  LEU39       0.0001
     84  CD2       35.1400   -5.4630    5.0200 C.3    39  LEU39       0.0001
     85  N         32.3100  -11.0910    6.6350 N.3    42  TYR42      -0.1241
     86  CA        30.9520  -10.5620    6.7490 C.3    42  TYR42       0.1605
     87  C         29.9380  -11.6600    7.0010 C.2    42  TYR42       0.2264
     88  O         29.1140  -11.5450    7.9040 O.2    42  TYR42      -0.2867
     89  CB        30.5210   -9.7590    5.5160 C.3    42  TYR42       0.0534
     90  CG        29.1640   -9.1300    5.7500 C.ar   42  TYR42      -0.0201
     91  CD1       29.0460   -7.9500    6.4780 C.ar   42  TYR42      -0.0009
     92  CD2       28.0010   -9.7380    5.2930 C.ar   42  TYR42      -0.0009
     93  CE1       27.8000   -7.3780    6.7300 C.ar   42  TYR42       0.0417
     94  CE2       26.7420   -9.1750    5.5400 C.ar   42  TYR42       0.0417
     95  CZ        26.6590   -7.9880    6.2560 C.ar   42  TYR42       0.1957
     96  OH        25.4310   -7.4220    6.5100 O.3    42  TYR42      -0.2866
     97  N         17.6830   -6.1350    8.8350 N.3    77  MET77      -0.1245
     98  CA        18.6140   -5.3520    8.0340 C.3    77  MET77       0.1570
     99  C         19.3150   -4.2880    8.8840 C.2    77  MET77       0.2261
    100  O         20.5420   -4.1120    8.8160 O.2    77  MET77      -0.2867
    101  CB        17.8760   -4.6930    6.8630 C.3    77  MET77       0.0387
    102  CG        18.7890   -4.0080    5.8470 C.3    77  MET77       0.0595
    103  SD        17.8380   -3.1230    4.6010 S.3    77  MET77      -0.1393
    104  CE        17.1910   -1.7590    5.5610 C.3    77  MET77       0.0692
    105  N         23.3980   -4.1960   10.5360 N.3    81  CYS81      -0.1235
    106  CA        24.2860   -3.0530   10.3880 C.3    81  CYS81       0.1677
    107  C         24.8420   -2.6240   11.7440 C.2    81  CYS81       0.2270
    108  O         26.0410   -2.3810   11.8800 O.2    81  CYS81      -0.2867
    109  CB        23.5460   -1.8970    9.7130 C.3    81  CYS81       0.0956
    110  SG        24.5980   -0.5010    9.2810 S.3    81  CYS81      -0.0801
    111  N         27.3820   -5.5100   13.0250 N.3    84  TYR84      -0.1227
    112  CA        28.6450   -5.7220   12.3300 C.3    84  TYR84       0.1736
    113  C         29.5950   -4.5410   12.4890 C.2    84  TYR84       0.2595
    114  O         30.8140   -4.7030   12.5610 O.2    84  TYR84      -0.2718
    115  CB        28.4060   -5.9920   10.8360 C.3    84  TYR84       0.0548
    116  CG        29.6940   -6.2270   10.0860 C.ar   84  TYR84      -0.0200
    117  CD1       30.2840   -7.4970   10.0560 C.ar   84  TYR84      -0.0009
    118  CD2       30.3350   -5.1840    9.4190 C.ar   84  TYR84      -0.0009
    119  CE1       31.4740   -7.7160    9.3920 C.ar   84  TYR84       0.0417
    120  CE2       31.5280   -5.4020    8.7400 C.ar   84  TYR84       0.0417
    121  CZ        32.0910   -6.6660    8.7330 C.ar   84  TYR84       0.1957
    122  OH        33.2760   -6.8890    8.0680 O.3    84  TYR84      -0.2866
    123  N         29.0250   -3.3470   12.5230 N.am   85  ASN85      -0.1974
    124  CA        29.8190   -2.1320   12.4880 C.3    85  ASN85       0.1688
    125  C         30.0450   -1.5840   13.8880 C.2    85  ASN85       0.2292
    126  O         29.7470   -2.2600   14.8670 O.2    85  ASN85      -0.2864
    127  CB        29.1350   -1.1130   11.5720 C.3    85  ASN85       0.1181
    128  CG        28.9850   -1.6400   10.1460 C.2    85  ASN85       0.2629
    129  OD1       29.9590   -1.6860    9.4020 O.2    85  ASN85      -0.2716
    130  ND2       27.7680   -2.0530    9.7680 N.am   85  ASN85      -0.0877
    131  N         30.5180    4.9570   13.2170 N.3    89  ASP89      -0.1239
    132  CA        30.7840    4.6820   11.7950 C.3    89  ASP89       0.1674
    133  C         29.7700    5.3750   10.9140 C.2    89  ASP89       0.2266
    134  O         28.5850    5.4250   11.2590 O.2    89  ASP89      -0.2867
    135  CB        30.7250    3.1830   11.4840 C.3    89  ASP89       0.1410
    136  CG        31.9460    2.4350   11.9400 C.2    89  ASP89       0.3668
    137  OD1       32.9470    3.0700   12.3460 O.co2  89  ASP89      -0.2456
    138  OD2       31.8980    1.1940   11.8670 O.co2  89  ASP89      -0.2456
    139  N         28.3900    4.3440    8.2660 N.3    91  ILE91      -0.1245
    140  CA        27.3220    3.4400    7.8290 C.3    91  ILE91       0.1561
    141  C         26.2250    3.3470    8.8960 C.2    91  ILE91       0.2260
    142  O         25.0410    3.1970    8.5810 O.2    91  ILE91      -0.2867
    143  CB        27.8790    2.0210    7.4880 C.3    91  ILE91       0.0252
    144  CG1       26.8340    1.1680    6.7550 C.3    91  ILE91       0.0019
    145  CG2       28.4040    1.3110    8.7250 C.3    91  ILE91       0.0019
    146  CD1       26.5260    1.6620    5.3380 C.3    91  ILE91       0.0001
@<TRIPOS>BOND
     1    42    41    1
     2    59    58    1
     3    41    40    2
     4    41    43    1
     5    40    39    1
     6    58    57    1
     7    39    38    1
     8    57    56    1
     9    38    37    1
    10    56    55    1
    11    55    52    1
    12    37    34    1
    13    52    51    1
    14    52    53    1
    15    54    53    2
    16    75    74    2
    17    53    60   am
    18    34    33    1
    19    34    35    1
    20     5     2    1
    21     5     6    1
    22    74    76   am
    23    74    73    1
    24     4     3    2
    25    60    61    1
    26    35    36    2
    27     2     3    1
    28     2     1    1
    29    67    65    1
    30     6     8   ar
    31     6     7   ar
    32    11     8   ar
    33    11    13   ar
    34     8    10   ar
    35     3    15   am
    36     7     9   ar
    37    73    72    1
    38    13    14   ar
    39    61    62    1
    40    61    64    1
    41    65    64    1
    42    65    66    1
    43    10     9   ar
    44    10    12   ar
    45    46    47    2
    46    46    45    1
    47    68    62   am
    48    68    69    1
    49    14    12   ar
    50    62    63    2
    51    15    16    1
    52    15    21    1
    53    24    25    2
    54    24    23    1
    55    44    45    1
    56    72    69    1
    57    45    48    1
    58    69    70    1
    59    16    17    1
    60    16    19    1
    61    17    18    2
    62    17    22   am
    63    22    23    1
    64    21    20    1
    65    23    26    1
    66    19    20    1
    67    48    49    1
    68    48    50    1
    69    70    77   am
    70    70    71    2
    71    77    78    1
    72    26    27    1
    73    27    29   ar
    74    27    28   ar
    75    78    79    1
    76    78    81    1
    77    29    31   ar
    78    79    80    2
    79    82    81    1
    80    82    83    1
    81    82    84    1
    82   103   104    1
    83   103   102    1
    84    28    30   ar
    85    31    32   ar
    86    92    94   ar
    87    92    90   ar
    88   146   144    1
    89    89    90    1
    90    89    86    1
    91    94    95   ar
    92    90    91   ar
    93   102   101    1
    94    30    32   ar
    95    95    96    1
    96    95    93   ar
    97    91    93   ar
    98    85    86    1
    99    86    87    1
   100   144   143    1
   101   101    98    1
   102    87    88    2
   103   143   140    1
   104   143   145    1
   105   140   139    1
   106   140   141    1
   107    98    97    1
   108    98    99    1
   109   122   121    1
   110   142   141    2
   111   121   120   ar
   112   121   119   ar
   113   120   118   ar
   114   100    99    2
   115   110   109    1
   116   119   117   ar
   117   129   128    2
   118   118   116   ar
   119   109   106    1
   120   130   128   am
   121   117   116   ar
   122   116   115    1
   123   128   127    1
   124   106   105    1
   125   106   107    1
   126   115   112    1
   127   133   134    2
   128   133   132    1
   129   135   132    1
   130   135   136    1
   131   127   124    1
   132   107   108    2
   133   132   131    1
   134   138   136   ar
   135   136   137   ar
   136   112   113    1
   137   112   111    1
   138   124   123    1
   139   124   125    1
   140   113   123   am
   141   113   114    2
   142   125   126    2
