@<TRIPOS>MOLECULE
tmp/5vbuA01.pdb
 155 142 0 0 0
SMALL
GASTEIGER

@<TRIPOS>ATOM
      1  N        -37.4980   13.0620   38.3490 N.3    73  VAL73      -0.1245
      2  CA       -37.8640   12.8080   36.9180 C.3    73  VAL73       0.1561
      3  C        -39.3400   12.7640   36.7030 C.2    73  VAL73       0.2260
      4  O        -39.8260   12.8390   35.5510 O.2    73  VAL73      -0.2867
      5  CB       -37.2770   11.5090   36.2720 C.3    73  VAL73       0.0252
      6  CG1      -35.7550   11.6010   36.1360 C.3    73  VAL73       0.0019
      7  CG2      -37.7500   10.2360   36.9750 C.3    73  VAL73       0.0019
      8  N        -44.1290    7.9740   36.7130 N.3    79  ASP79      -0.1239
      9  CA       -43.3080    7.2070   35.7720 C.3    79  ASP79       0.1674
     10  C        -43.5740    5.7030   35.8790 C.2    79  ASP79       0.2266
     11  O        -43.8800    5.2250   36.9600 O.2    79  ASP79      -0.2867
     12  CB       -41.8130    7.4980   35.9750 C.3    79  ASP79       0.1410
     13  CG       -40.9730    7.0450   34.7850 C.2    79  ASP79       0.3668
     14  OD1      -41.0960    7.6740   33.7190 O.co2  79  ASP79      -0.2456
     15  OD2      -40.2480    6.0360   34.9050 O.co2  79  ASP79      -0.2456
     16  N        -41.3510    3.0380   34.4890 N.3    81  SER81      -0.1202
     17  CA       -40.0940    2.3330   34.7180 C.3    81  SER81       0.2020
     18  C        -39.5470    2.5300   36.1260 C.2    81  SER81       0.2618
     19  O        -38.9270    1.6210   36.7090 O.2    81  SER81      -0.2717
     20  CB       -39.0510    2.7420   33.7000 C.3    81  SER81       0.2103
     21  OG       -38.7980    4.1140   33.7840 O.3    81  SER81      -0.2182
     22  N        -39.8090    3.7010   36.6880 N.am   82  LEU82      -0.1979
     23  CA       -39.3440    3.9820   38.0200 C.3    82  LEU82       0.1596
     24  C        -40.4690    3.9720   39.0510 C.2    82  LEU82       0.2287
     25  O        -40.2620    4.3800   40.1940 O.2    82  LEU82      -0.2864
     26  CB       -38.5860    5.3040   38.0090 C.3    82  LEU82       0.0297
     27  CG       -37.3950    5.4960   37.0810 C.3    82  LEU82       0.0022
     28  CD1      -36.6980    6.7260   37.5860 C.3    82  LEU82       0.0001
     29  CD2      -36.4050    4.3740   37.1730 C.3    82  LEU82       0.0001
     30  N        -31.5130   13.9570   27.7130 N.3   170  VAL170     -0.1231
     31  CA       -32.2010   13.4400   28.8810 C.3   170  VAL170      0.1692
     32  C        -31.4820   12.2370   29.5290 C.2   170  VAL170      0.2591
     33  O        -31.2150   12.2540   30.7350 O.2   170  VAL170     -0.2718
     34  CB       -33.6550   13.1090   28.5240 C.3   170  VAL170      0.0266
     35  CG1      -34.3350   12.3780   29.6620 C.3   170  VAL170      0.0020
     36  CG2      -34.4150   14.3810   28.2340 C.3   170  VAL170      0.0020
     37  N        -31.1660   11.2130   28.7290 N.am  171  LEU171     -0.1980
     38  CA       -30.4950   10.0080   29.2340 C.3   171  LEU171      0.1596
     39  C        -29.0630   10.2910   29.5890 C.2   171  LEU171      0.2287
     40  O        -28.5630    9.7600   30.5940 O.2   171  LEU171     -0.2864
     41  CB       -30.5390    8.8310   28.2400 C.3   171  LEU171      0.0297
     42  CG       -29.9100    7.4310   28.5180 C.3   171  LEU171      0.0022
     43  CD1      -30.0830    6.8710   29.9340 C.3   171  LEU171      0.0001
     44  CD2      -30.4170    6.4270   27.4830 C.3   171  LEU171      0.0001
     45  N        -28.7920   12.1220   32.9520 N.3   174  TRP174     -0.1241
     46  CA       -29.2900   11.3270   34.0720 C.3   174  TRP174      0.1605
     47  C        -28.3050   10.2420   34.4700 C.2   174  TRP174      0.2264
     48  O        -28.0940   10.0210   35.6570 O.2   174  TRP174     -0.2867
     49  CB       -30.6920   10.7480   33.7890 C.3   174  TRP174      0.0550
     50  CG       -31.2890    9.9700   34.9490 C.ar  174  TRP174      0.0003
     51  CD1      -31.9030   10.4990   36.0500 C.ar  174  TRP174      0.0946
     52  CD2      -31.3180    8.5260   35.1200 C.ar  174  TRP174      0.0152
     53  NE1      -32.3210    9.4830   36.8940 N.ar  174  TRP174     -0.2442
     54  CE2      -31.9650    8.2690   36.3610 C.ar  174  TRP174      0.0810
     55  CE3      -30.8550    7.4310   34.3490 C.ar  174  TRP174      0.0012
     56  CZ2      -32.1570    6.9520   36.8630 C.ar  174  TRP174      0.0191
     57  CZ3      -31.0270    6.1090   34.8580 C.ar  174  TRP174      0.0001
     58  CH2      -31.6920    5.8900   36.0960 C.ar  174  TRP174      0.0015
     59  N        -30.0560   18.5890   34.0060 N.3   199  LEU199     -0.1245
     60  CA       -31.1310   17.5800   33.9740 C.3   199  LEU199      0.1561
     61  C        -32.5370   18.1860   33.9300 C.2   199  LEU199      0.2260
     62  O        -33.3270   17.8090   33.0750 O.2   199  LEU199     -0.2867
     63  CB       -30.9960   16.6080   35.1570 C.3   199  LEU199      0.0270
     64  CG       -31.9770   15.4470   35.4060 C.3   199  LEU199      0.0019
     65  CD1      -31.8140   14.3030   34.4130 C.3   199  LEU199      0.0001
     66  CD2      -31.8440   14.9290   36.8360 C.3   199  LEU199      0.0001
     67  N        -35.4860   17.5380   31.2790 N.3   203  ILE203     -0.1245
     68  CA       -36.8650   17.1930   31.7170 C.3   203  ILE203      0.1561
     69  C        -37.8940   18.1940   31.1250 C.2   203  ILE203      0.2260
     70  O        -38.9050   17.7760   30.5520 O.2   203  ILE203     -0.2867
     71  CB       -36.9810   17.1550   33.2890 C.3   203  ILE203      0.0252
     72  CG1      -35.9320   16.2330   33.9480 C.3   203  ILE203      0.0019
     73  CG2      -38.4200   16.9600   33.8060 C.3   203  ILE203      0.0019
     74  CD1      -36.0340   14.7740   33.6240 C.3   203  ILE203      0.0001
     75  N        -38.1350   17.7330   27.3610 N.3   206  ARG206     -0.1245
     76  CA       -38.8550   16.5080   27.0020 C.3   206  ARG206      0.1563
     77  C        -40.3260   16.6010   27.3290 C.2   206  ARG206      0.2260
     78  O        -41.1340   16.0240   26.6180 O.2   206  ARG206     -0.2867
     79  CB       -38.2540   15.1950   27.5570 C.3   206  ARG206      0.0307
     80  CG       -38.3500   14.9740   29.0620 C.3   206  ARG206      0.0489
     81  CD       -39.0120   13.6510   29.4800 C.3   206  ARG206      0.2205
     82  NE       -39.8820   13.8860   30.6600 N.pl3 206  ARG206     -0.0865
     83  CZ       -39.6570   13.5100   31.9390 C.cat 206  ARG206      0.5346
     84  NH1      -38.5940   12.7820   32.2970 N.pl3 206  ARG206      0.1354
     85  NH2      -40.5290   13.8350   32.8870 N.pl3 206  ARG206      0.1354
     86  N        -42.6800    8.9810   27.4220 N.3   251  VAL251     -0.1231
     87  CA       -41.3090    9.2920   27.9030 C.3   251  VAL251      0.1692
     88  C        -40.4810    8.0340   28.0660 C.2   251  VAL251      0.2592
     89  O        -39.3340    8.0380   27.6880 O.2   251  VAL251     -0.2718
     90  CB       -41.2990   10.1250   29.2120 C.3   251  VAL251      0.0266
     91  CG1      -39.9000   10.1770   29.8710 C.3   251  VAL251      0.0020
     92  CG2      -41.8040   11.5200   28.8980 C.3   251  VAL251      0.0020
     93  N        -41.0760    6.9740   28.6050 N.am  252  ASP252     -0.1974
     94  CA       -40.3800    5.7260   28.8570 C.3   252  ASP252      0.1709
     95  C        -40.1400    4.9570   27.5890 C.2   252  ASP252      0.2293
     96  O        -39.1570    4.2010   27.4980 O.2   252  ASP252     -0.2864
     97  CB       -41.1720    4.8430   29.8150 C.3   252  ASP252      0.1436
     98  CG       -41.2940    5.4430   31.2010 C.2   252  ASP252      0.3671
     99  OD1      -40.6760    6.5030   31.4490 O.co2 252  ASP252     -0.2456
    100  OD2      -42.0310    4.8710   32.0450 O.co2 252  ASP252     -0.2456
    101  N        -37.1520    7.2080   25.6460 N.3   255  ILE255     -0.1231
    102  CA       -35.8270    7.1960   26.2700 C.3   255  ILE255      0.1692
    103  C        -35.3300    5.7580   26.4270 C.2   255  ILE255      0.2592
    104  O        -34.1070    5.4740   26.2160 O.2   255  ILE255     -0.2718
    105  CB       -35.7810    8.0550   27.5670 C.3   255  ILE255      0.0266
    106  CG1      -35.7700    9.5150   27.1750 C.3   255  ILE255      0.0019
    107  CG2      -34.4550    7.9610   28.2950 C.3   255  ILE255      0.0020
    108  CD1      -36.7800   10.3810   27.8850 C.3   255  ILE255      0.0001
    109  N        -36.2870    4.8680   26.7080 N.am  256  GLY256     -0.1957
    110  CA       -36.0170    3.4510   26.9070 C.3   256  GLY256      0.1869
    111  C        -35.6770    2.7080   25.6430 C.2   256  GLY256      0.2309
    112  O        -35.0270    1.6760   25.7160 O.2   256  GLY256     -0.2863
    113  N        -30.6660    1.6330   24.0260 N.3   260  THR260     -0.1218
    114  CA       -30.6240    0.2130   24.3970 C.3   260  THR260      0.1862
    115  C        -30.4570   -0.6730   23.1760 C.2   260  THR260      0.2287
    116  O        -29.4650   -1.3870   23.0400 O.2   260  THR260     -0.2866
    117  CB       -31.9010   -0.2330   25.1680 C.3   260  THR260      0.1770
    118  OG1      -33.0430    0.2420   24.4730 O.3   260  THR260     -0.2211
    119  CG2      -31.9320    0.3740   26.5520 C.3   260  THR260      0.0375
    120  N        -28.2500   -3.3690   29.2900 N.3   317  VAL317     -0.1245
    121  CA       -28.6830   -2.9020   30.5900 C.3   317  VAL317      0.1561
    122  C        -28.1600   -3.8830   31.6020 C.2   317  VAL317      0.2260
    123  O        -28.9100   -4.6850   32.1150 O.2   317  VAL317     -0.2867
    124  CB       -30.2060   -2.7120   30.7260 C.3   317  VAL317      0.0252
    125  CG1      -30.5290   -1.9210   31.9930 C.3   317  VAL317      0.0019
    126  CG2      -30.7970   -2.0070   29.5160 C.3   317  VAL317      0.0019
    127  N        -32.6120   -2.6530   36.4160 N.3   321  LEU321     -0.1245
    128  CA       -32.9040   -1.4960   37.2750 C.3   321  LEU321      0.1561
    129  C        -33.0080   -1.9440   38.7290 C.2   321  LEU321      0.2260
    130  O        -33.2160   -3.1240   38.9550 O.2   321  LEU321     -0.2867
    131  CB       -34.1900   -0.7920   36.8430 C.3   321  LEU321      0.0270
    132  CG       -34.2350    0.3090   35.7800 C.3   321  LEU321      0.0019
    133  CD1      -33.0950    1.2940   35.8560 C.3   321  LEU321      0.0001
    134  CD2      -34.2290   -0.3120   34.4350 C.3   321  LEU321      0.0001
    135  N        -38.5080   -6.1260   30.3620 N.3   386  CYS386     -0.1235
    136  CA       -38.4060   -5.0060   29.4630 C.3   386  CYS386      0.1677
    137  C        -39.7500   -4.8760   28.7020 C.2   386  CYS386      0.2270
    138  O        -40.2400   -5.8630   28.1310 O.2   386  CYS386     -0.2867
    139  CB       -37.2300   -5.2200   28.5260 C.3   386  CYS386      0.0956
    140  SG       -37.0810   -3.9330   27.3110 S.3   386  CYS386     -0.0801
    141  N        -25.3240    1.6730   33.4350 N.3   427  VAL427     -0.1231
    142  CA       -26.7220    2.0980   33.2950 C.3   427  VAL427      0.1692
    143  C        -26.8930    1.5560   31.8910 C.2   427  VAL427      0.2591
    144  O        -27.6940    0.6660   31.6790 O.2   427  VAL427     -0.2718
    145  CB       -27.0590    3.6220   33.2560 C.3   427  VAL427      0.0266
    146  CG1      -28.3390    3.8470   32.4550 C.3   427  VAL427      0.0020
    147  CG2      -27.3220    4.1930   34.6340 C.3   427  VAL427      0.0020
    148  N        -26.1160    2.0920   30.9440 N.am  428  ILE428     -0.1980
    149  CA       -26.0650    1.5900   29.5910 C.3   428  ILE428      0.1595
    150  C        -24.6590    1.0540   29.3630 C.2   428  ILE428      0.2287
    151  O        -23.6670    1.6940   29.7190 O.2   428  ILE428     -0.2864
    152  CB       -26.3980    2.7000   28.5900 C.3   428  ILE428      0.0276
    153  CG1      -27.0550    2.1320   27.3600 C.3   428  ILE428      0.0022
    154  CG2      -25.1550    3.4650   28.1840 C.3   428  ILE428      0.0022
    155  CD1      -28.5280    1.9350   27.5830 C.3   428  ILE428      0.0001
@<TRIPOS>BOND
     1   116   115    2
     2   115   114    1
     3   113   114    1
     4   114   117    1
     5   118   117    1
     6   117   119    1
     7   111   112    2
     8   111   110    1
     9   101   102    1
    10   104   103    2
    11   102   103    1
    12   102   105    1
    13   103   109   am
    14    78    77    2
    15   109   110    1
    16    76    77    1
    17    76    75    1
    18    76    79    1
    19   106   105    1
    20   106   108    1
    21   140   139    1
    22   153   155    1
    23   153   152    1
    24    86    87    1
    25    44    42    1
    26    96    95    2
    27    79    80    1
    28   105   107    1
    29    95    94    1
    30    89    88    2
    31    30    31    1
    32    87    88    1
    33    87    90    1
    34    88    93   am
    35   138   137    2
    36   154   152    1
    37    36    34    1
    38    41    42    1
    39    41    38    1
    40    42    43    1
    41    34    31    1
    42    34    35    1
    43   139   136    1
    44   152   149    1
    45    93    94    1
    46   137   136    1
    47    37    38    1
    48    37    32   am
    49    94    97    1
    50    31    32    1
    51    92    90    1
    52    80    81    1
    53    90    91    1
    54    38    39    1
    55   120   121    1
    56   150   149    1
    57   150   151    2
    58   136   135    1
    59    81    82    1
    60   126   124    1
    61    32    33    2
    62    39    40    2
    63   149   148    1
    64    97    98    1
    65    70    69    2
    66   121   124    1
    67   121   122    1
    68    82    83    2
    69   124   125    1
    70   148   143   am
    71    69    68    1
    72    98    99   ar
    73    98   100   ar
    74    67    68    1
    75   122   123    2
    76   144   143    2
    77    68    71    1
    78   143   142    1
    79    83    84    1
    80    83    85    1
    81   146   145    1
    82    45    46    1
    83    62    61    2
    84   145   142    1
    85   145   147    1
    86    71    73    1
    87    71    72    1
    88   142   141    1
    89    74    72    1
    90    20    21    1
    91    20    17    1
    92    14    13   ar
    93    49    46    1
    94    49    50    1
    95    61    60    1
    96    60    59    1
    97    60    63    1
    98    46    47    1
    99    55    57   ar
   100    55    52   ar
   101    65    64    1
   102   134   132    1
   103    47    48    2
   104    16    17    1
   105    17    18    1
   106    13    15   ar
   107    13    12    1
   108    57    58   ar
   109    50    52   ar
   110    50    51   ar
   111    52    54   ar
   112    63    64    1
   113    64    66    1
   114     4     3    2
   115     9    10    1
   116     9    12    1
   117     9     8    1
   118   132   133    1
   119   132   131    1
   120    10    11    2
   121    51    53   ar
   122    58    56   ar
   123    18    22   am
   124    18    19    2
   125     6     5    1
   126     5     2    1
   127     5     7    1
   128    54    56   ar
   129    54    53   ar
   130   127   128    1
   131    22    23    1
   132     3     2    1
   133   131   128    1
   134     2     1    1
   135    27    29    1
   136    27    28    1
   137    27    26    1
   138   128   129    1
   139    26    23    1
   140    23    24    1
   141   129   130    2
   142    24    25    2
