@<TRIPOS>MOLECULE
tmp/5vc3A00.pdb
 177 165 0 0 0
SMALL
GASTEIGER

@<TRIPOS>ATOM
      1  N        -14.9430    3.1690    6.1660 N.3    11  GLU11      -0.1245
      2  CA       -14.2380    3.8440    5.0830 C.3    11  GLU11       0.1567
      3  C        -12.7630    3.4550    5.0360 C.2    11  GLU11       0.2260
      4  O        -12.1770    3.0670    6.0440 O.2    11  GLU11      -0.2867
      5  CB       -14.3640    5.3650    5.2180 C.3    11  GLU11       0.0388
      6  CG       -13.9270    5.9250    6.5600 C.3    11  GLU11       0.1160
      7  CD       -13.7520    7.4350    6.5250 C.2    11  GLU11       0.3649
      8  OE1      -13.0850    7.9360    5.5940 O.co2  11  GLU11      -0.2457
      9  OE2      -14.2850    8.1250    7.4200 O.co2  11  GLU11      -0.2457
     10  N         -9.1140    4.7040    4.9580 N.3    13  ILE13      -0.1231
     11  CA        -8.5460    5.9220    5.5230 C.3    13  ILE13       0.1692
     12  C         -7.0600    6.0520    5.1950 C.2    13  ILE13       0.2592
     13  O         -6.4670    7.1160    5.3680 O.2    13  ILE13      -0.2718
     14  CB        -8.7710    5.9670    7.0520 C.3    13  ILE13       0.0266
     15  CG1       -8.0940    4.7780    7.7380 C.3    13  ILE13       0.0019
     16  CG2      -10.2810    5.9900    7.3480 C.3    13  ILE13       0.0020
     17  CD1       -8.2740    4.7530    9.2410 C.3    13  ILE13       0.0001
     18  N         -6.4750    4.9710    4.6920 N.am   14  GLY14      -0.1957
     19  CA        -5.0810    4.9680    4.3050 C.3    14  GLY14       0.1869
     20  C         -4.8050    3.9500    3.2200 C.2    14  GLY14       0.2309
     21  O         -5.4420    2.8970    3.1580 O.2    14  GLY14      -0.2863
     22  N         -5.5290    0.7840    5.0370 N.3    21  VAL21      -0.1245
     23  CA        -6.0980    0.7950    6.3750 C.3    21  VAL21       0.1561
     24  C         -7.5640    1.1940    6.2870 C.2    21  VAL21       0.2260
     25  O         -7.9190    2.1560    5.6080 O.2    21  VAL21      -0.2867
     26  CB        -5.3460    1.7620    7.3090 C.3    21  VAL21       0.0252
     27  CG1       -5.9860    1.7810    8.6910 C.3    21  VAL21       0.0019
     28  CG2       -3.8620    1.3710    7.4040 C.3    21  VAL21       0.0019
     29  N        -11.1890    1.9870    8.4670 N.3    23  LYS23      -0.1245
     30  CA       -11.9400    2.2550    9.6790 C.3    23  LYS23       0.1561
     31  C        -13.1190    1.2890    9.7030 C.2    23  LYS23       0.2260
     32  O        -13.9520    1.3010    8.7980 O.2    23  LYS23      -0.2867
     33  CB       -12.4150    3.7120    9.7160 C.3    23  LYS23       0.0271
     34  CG       -13.3140    4.0550   10.9020 C.3    23  LYS23       0.0035
     35  CD       -13.8650    5.4660   10.8030 C.3    23  LYS23       0.0206
     36  CE       -14.7010    5.8170   12.0200 C.3    23  LYS23       0.1093
     37  NZ       -15.2880    7.1780   11.9050 N.3    23  LYS23      -0.1314
     38  N         -8.9360    0.1360   13.5990 N.3    34  ALA34      -0.1245
     39  CA        -8.1750    0.3420   12.3810 C.3    34  ALA34       0.1562
     40  C         -7.6520   -1.0040   11.9030 C.2    34  ALA34       0.2260
     41  O         -6.8560   -1.6480   12.5900 O.2    34  ALA34      -0.2867
     42  CB        -7.0290    1.3160   12.6230 C.3    34  ALA34       0.0290
     43  N         -5.6360   -3.0620    9.0060 N.3    36  LYS36      -0.1245
     44  CA        -4.7100   -2.9930    7.8870 C.3    36  LYS36       0.1561
     45  C         -4.7960   -4.2450    7.0210 C.2    36  LYS36       0.2260
     46  O         -4.6810   -5.3670    7.5180 O.2    36  LYS36      -0.2867
     47  CB        -3.2800   -2.8040    8.3880 C.3    36  LYS36       0.0271
     48  CG        -2.2370   -2.7610    7.2820 C.3    36  LYS36       0.0035
     49  CD        -0.8780   -2.3600    7.8310 C.3    36  LYS36       0.0206
     50  CE        -0.2300   -3.4770    8.6420 C.3    36  LYS36       0.1093
     51  NZ         0.1120   -4.6560    7.8040 N.3    36  LYS36      -0.1314
     52  N          6.2870   -8.0430   14.8640 N.3    54  GLU54      -0.1245
     53  CA         5.1670   -7.2750   15.3570 C.3    54  GLU54       0.1567
     54  C          4.3500   -8.0480   16.3960 C.2    54  GLU54       0.2260
     55  O          3.9950   -7.4990   17.4400 O.2    54  GLU54      -0.2867
     56  CB         4.2890   -6.8550   14.1820 C.3    54  GLU54       0.0388
     57  CG         3.1180   -5.9930   14.5600 C.3    54  GLU54       0.1160
     58  CD         2.3590   -5.4950   13.3450 C.2    54  GLU54       0.3649
     59  OE1        2.1700   -6.2870   12.3920 O.co2  54  GLU54      -0.2457
     60  OE2        1.9660   -4.3070   13.3360 O.co2  54  GLU54      -0.2457
     61  N          0.0560    1.7230   20.2720 N.3    68  VAL68      -0.1245
     62  CA        -1.1950    1.3780   19.6000 C.3    68  VAL68       0.1561
     63  C         -1.5070   -0.0900   19.8520 C.2    68  VAL68       0.2260
     64  O         -0.6710   -0.9580   19.6040 O.2    68  VAL68      -0.2867
     65  CB        -1.1210    1.6540   18.0720 C.3    68  VAL68       0.0252
     66  CG1       -2.4240    1.2500   17.3600 C.3    68  VAL68       0.0019
     67  CG2       -0.8260    3.1180   17.8230 C.3    68  VAL68       0.0019
     68  N         -4.9480   -7.1800    9.8290 N.3    82  ILE82      -0.1245
     69  CA        -4.5320   -6.9190   11.2000 C.3    82  ILE82       0.1561
     70  C         -5.4450   -5.8830   11.8310 C.2    82  ILE82       0.2260
     71  O         -5.6020   -4.7780   11.3190 O.2    82  ILE82      -0.2867
     72  CB        -3.0770   -6.4350   11.2820 C.3    82  ILE82       0.0252
     73  CG1       -2.1470   -7.4640   10.6410 C.3    82  ILE82       0.0019
     74  CG2       -2.6720   -6.2130   12.7390 C.3    82  ILE82       0.0019
     75  CD1       -0.7440   -6.9750   10.4360 C.3    82  ILE82       0.0001
     76  N         -6.1600   -3.3300   14.6500 N.3    84  ASN84      -0.1225
     77  CA        -5.4740   -2.4320   15.5760 C.3    84  ASN84       0.1785
     78  C         -6.4280   -1.4360   16.2360 C.2    84  ASN84       0.2597
     79  O         -7.5470   -1.2220   15.7680 O.2    84  ASN84      -0.2718
     80  CB        -4.3820   -1.6390   14.8530 C.3    84  ASN84       0.1169
     81  CG        -3.3340   -2.5230   14.2010 C.2    84  ASN84       0.2627
     82  OD1       -2.3740   -2.9340   14.8440 O.2    84  ASN84      -0.2716
     83  ND2       -3.4980   -2.7890   12.9070 N.am   84  ASN84      -0.0877
     84  N         -5.9600   -0.8190   17.3170 N.am   85  GLU85      -0.1965
     85  CA        -6.6700    0.2790   17.9680 C.3    85  GLU85       0.1733
     86  C         -6.8160    1.4600   17.0170 C.2    85  GLU85       0.2616
     87  O         -5.8540    1.8480   16.3570 O.2    85  GLU85      -0.2715
     88  CB        -5.9190    0.7000   19.2330 C.3    85  GLU85       0.0429
     89  CG        -6.3660    2.0020   19.8790 C.3    85  GLU85       0.1163
     90  CD        -5.4550    2.4070   21.0300 C.2    85  GLU85       0.3649
     91  OE1       -4.3480    1.8370   21.1510 O.co2  85  GLU85      -0.2457
     92  OE2       -5.8440    3.2910   21.8160 O.co2  85  GLU85      -0.2457
     93  N         -8.0170    2.0290   16.9470 N.am   86  TYR86      -0.1960
     94  CA        -8.2690    3.1700   16.0740 C.3    86  TYR86       0.1771
     95  C         -7.8760    4.4540   16.7920 C.2    86  TYR86       0.2620
     96  O         -8.3450    4.7380   17.8930 O.2    86  TYR86      -0.2715
     97  CB        -9.7370    3.2040   15.6400 C.3    86  TYR86       0.0574
     98  CG       -10.1140    4.3250   14.6910 C.ar   86  TYR86      -0.0198
     99  CD1       -9.8210    4.2490   13.3360 C.ar   86  TYR86      -0.0009
    100  CD2      -10.8030    5.4430   15.1500 C.ar   86  TYR86      -0.0009
    101  CE1      -10.1790    5.2700   12.4660 C.ar   86  TYR86       0.0417
    102  CE2      -11.1660    6.4640   14.2940 C.ar   86  TYR86       0.0417
    103  CZ       -10.8540    6.3720   12.9520 C.ar   86  TYR86       0.1957
    104  OH       -11.2210    7.3910   12.0990 O.3    86  TYR86      -0.2866
    105  N         -6.9720    5.2020   16.1710 N.am   87  CYS87      -0.1954
    106  CA        -6.5360    6.4900   16.6950 C.3    87  CYS87       0.1843
    107  C         -7.1570    7.6030   15.8580 C.2    87  CYS87       0.2625
    108  O         -6.6880    7.9110   14.7630 O.2    87  CYS87      -0.2714
    109  CB        -5.0090    6.5650   16.6930 C.3    87  CYS87       0.0997
    110  SG        -4.2360    5.2500   17.6720 S.3    87  CYS87      -0.0797
    111  N         -8.2110    8.2110   16.3920 N.am   88  ASN88      -0.1958
    112  CA        -9.1050    9.0480   15.5960 C.3    88  ASN88       0.1819
    113  C         -8.4580   10.3420   15.1100 C.2    88  ASN88       0.2622
    114  O         -9.0390   11.0620   14.2990 O.2    88  ASN88      -0.2715
    115  CB       -10.3790    9.3540   16.3950 C.3    88  ASN88       0.1195
    116  CG       -10.1100   10.1140   17.6880 C.2    88  ASN88       0.2630
    117  OD1       -8.9660   10.3280   18.0800 O.2    88  ASN88      -0.2716
    118  ND2      -11.1810   10.5050   18.3680 N.am   88  ASN88      -0.0877
    119  N         -7.2480   10.6180   15.5840 N.am   89  GLY89      -0.1940
    120  CA        -6.5250   11.8080   15.1730 C.3    89  GLY89       0.2014
    121  C         -5.5140   11.5240   14.0790 C.2    89  GLY89       0.2639
    122  O         -4.8120   12.4280   13.6260 O.2    89  GLY89      -0.2714
    123  N         -5.4280   10.2650   13.6600 N.am   90  GLY90      -0.1939
    124  CA        -4.5510    9.8880   12.5650 C.3    90  GLY90       0.2014
    125  C         -3.0910    9.8350   12.9520 C.2    90  GLY90       0.2639
    126  O         -2.7440    9.8650   14.1360 O.2    90  GLY90      -0.2714
    127  N         -2.2310    9.7560   11.9410 N.am   91  SER91      -0.1949
    128  CA        -0.7990    9.7590   12.1540 C.3    91  SER91       0.1924
    129  C         -0.2930   11.1810   12.3320 C.2    91  SER91       0.2314
    130  O         -0.9360   12.1360   11.9050 O.2    91  SER91      -0.2863
    131  CB        -0.0730    9.0950   10.9840 C.3    91  SER91       0.2116
    132  OG        -0.1780    9.8820    9.8130 O.3    91  SER91      -0.2180
    133  N          0.2930   12.8790    8.9990 N.3    94  ASP94      -0.1239
    134  CA        -0.9130   13.4370    8.3920 C.3    94  ASP94       0.1674
    135  C         -1.3500   14.7110    9.1070 C.2    94  ASP94       0.2266
    136  O         -1.9220   15.6100    8.4880 O.2    94  ASP94      -0.2867
    137  CB        -2.0580   12.4150    8.4060 C.3    94  ASP94       0.1410
    138  CG        -1.9140   11.3540    7.3260 C.2    94  ASP94       0.3668
    139  OD1       -1.1330   11.5640    6.3750 O.co2  94  ASP94      -0.2456
    140  OD2       -2.5900   10.3100    7.4240 O.co2  94  ASP94      -0.2456
    141  N          5.0500    9.0880   10.5940 N.3   138  SER138     -0.1202
    142  CA         4.0160    8.2060   10.0700 C.3   138  SER138      0.2020
    143  C          3.7480    7.0160   10.9950 C.2   138  SER138      0.2618
    144  O          2.8100    6.2570   10.7650 O.2   138  SER138     -0.2717
    145  CB         4.4010    7.7080    8.6720 C.3   138  SER138      0.2103
    146  OG         5.5640    6.9050    8.7090 O.3   138  SER138     -0.2182
    147  N          4.5630    6.8620   12.0390 N.am  139  ASN139     -0.1974
    148  CA         4.4110    5.7540   12.9850 C.3   139  ASN139      0.1688
    149  C          4.0140    6.2310   14.3730 C.2   139  ASN139      0.2292
    150  O          3.9530    5.4390   15.3190 O.2   139  ASN139     -0.2864
    151  CB         5.7060    4.9420   13.0590 C.3   139  ASN139      0.1181
    152  CG         5.9200    4.1020   11.8220 C.2   139  ASN139      0.2629
    153  OD1        5.0210    3.9820   10.9900 O.2   139  ASN139     -0.2716
    154  ND2        7.1040    3.5170   11.6870 N.am  139  ASN139     -0.0877
    155  N          0.8190    7.9990   16.2660 N.3   141  PHE141     -0.1241
    156  CA        -0.6100    8.2250   16.0800 C.3   141  PHE141      0.1605
    157  C         -1.1950    9.0410   17.2110 C.2   141  PHE141      0.2264
    158  O         -0.6210    9.1350   18.2990 O.2   141  PHE141     -0.2867
    159  CB        -1.3410    6.8890   15.9260 C.3   141  PHE141      0.0534
    160  CG        -0.9910    6.1890   14.6560 C.ar  141  PHE141     -0.0203
    161  CD1        0.1260    5.3760   14.5880 C.ar  141  PHE141     -0.0042
    162  CD2       -1.7290    6.4070   13.5090 C.ar  141  PHE141     -0.0042
    163  CE1        0.4760    4.7590   13.4120 C.ar  141  PHE141     -0.0003
    164  CE2       -1.3840    5.7930   12.3250 C.ar  141  PHE141     -0.0003
    165  CZ        -0.2830    4.9690   12.2770 C.ar  141  PHE141     -0.0000
    166  N          3.0640    3.2650   16.9520 N.3   152  GLY152     -0.1210
    167  CA         2.5130    2.1940   16.1400 C.3   152  GLY152      0.1956
    168  C          3.5830    1.5020   15.3160 C.2   152  GLY152      0.2611
    169  O          4.7670    1.8310   15.4170 O.2   152  GLY152     -0.2717
    170  N          3.1470    0.5330   14.5150 N.am  153  ASP153     -0.1973
    171  CA         4.0030   -0.2040   13.5870 C.3   153  ASP153      0.1709
    172  C          5.2150   -0.8400   14.2670 C.2   153  ASP153      0.2293
    173  O          6.3350   -0.3360   14.1630 O.2   153  ASP153     -0.2864
    174  CB         4.4680    0.7150   12.4500 C.3   153  ASP153      0.1436
    175  CG         5.0010   -0.0610   11.2560 C.2   153  ASP153      0.3671
    176  OD1        5.0930   -1.3000   11.3440 O.co2 153  ASP153     -0.2456
    177  OD2        5.3310    0.5670   10.2290 O.co2 153  ASP153     -0.2456
@<TRIPOS>BOND
     1    21    20    2
     2    20    19    1
     3    19    18    1
     4    18    12   am
     5    10    11    1
     6     3     2    1
     7     3     4    2
     8    22    23    1
     9     2     5    1
    10     2     1    1
    11    12    13    2
    12    12    11    1
    13     5     6    1
    14    11    14    1
    15     8     7   ar
    16    25    24    2
    17    24    23    1
    18   139   138   ar
    19    23    26    1
    20     7     6    1
    21     7     9   ar
    22    45    46    2
    23    45    44    1
    24    14    16    1
    25    14    15    1
    26    48    49    1
    27    48    47    1
    28    26    28    1
    29    26    27    1
    30   138   140   ar
    31   138   137    1
    32    15    17    1
    33    51    50    1
    34    49    50    1
    35    44    47    1
    36    44    43    1
    37   134   137    1
    38   134   133    1
    39   134   135    1
    40    29    30    1
    41   136   135    2
    42   145   146    1
    43   145   142    1
    44    32    31    2
    45    30    31    1
    46    30    33    1
    47    33    34    1
    48   132   131    1
    49    68    69    1
    50   142   141    1
    51   142   143    1
    52   177   175   ar
    53    75    73    1
    54    73    72    1
    55   144   143    2
    56    35    34    1
    57    35    36    1
    58   131   128    1
    59   153   152    2
    60   143   147   am
    61    69    72    1
    62    69    70    1
    63   175   176   ar
    64   175   174    1
    65    72    74    1
    66    71    70    2
    67   154   152   am
    68   152   151    1
    69    40    39    1
    70    40    41    2
    71    37    36    1
    72   130   129    2
    73   127   128    1
    74   127   125   am
    75   147   148    1
    76   104   103    1
    77   128   129    1
    78   165   164   ar
    79   165   163   ar
    80   164   162   ar
    81    39    42    1
    82    39    38    1
    83    59    58   ar
    84   174   171    1
    85   101   103   ar
    86   101    99   ar
    87   124   125    1
    88   124   123    1
    89    83    81   am
    90   103   102   ar
    91   125   126    2
    92   148   151    1
    93   148   149    1
    94    99    98   ar
    95    60    58   ar
    96    58    57    1
    97   163   161   ar
    98   162   160   ar
    99   171   172    1
   100   171   170    1
   101   122   121    2
   102   123   121   am
   103   121   120    1
   104   173   172    2
   105    56    57    1
   106    56    53    1
   107    81    82    2
   108    81    80    1
   109   102   100   ar
   110   114   113    2
   111   149   150    2
   112   170   168   am
   113   161   160   ar
   114    76    77    1
   115   160   159    1
   116    98   100   ar
   117    98    97    1
   118   108   107    2
   119    80    77    1
   120    52    53    1
   121   113   119   am
   122   113   112    1
   123   120   119    1
   124   168   169    2
   125   168   167    1
   126    53    54    1
   127    77    78    1
   128   112   111    1
   129   112   115    1
   130    97    94    1
   131    79    78    2
   132   107   111   am
   133   107   106    1
   134   159   156    1
   135    94    95    1
   136    94    93    1
   137   156   155    1
   138   156   157    1
   139   167   166    1
   140   105   106    1
   141   105    95   am
   142    78    84   am
   143    87    86    2
   144   115   116    1
   145    54    55    2
   146   109   106    1
   147   109   110    1
   148    95    96    2
   149    93    86   am
   150    86    85    1
   151   157   158    2
   152    84    85    1
   153    66    65    1
   154   116   117    2
   155   116   118   am
   156    67    65    1
   157    85    88    1
   158    65    62    1
   159    88    89    1
   160    62    63    1
   161    62    61    1
   162    64    63    2
   163    89    90    1
   164    90    91   ar
   165    90    92   ar
