@<TRIPOS>MOLECULE
tmp/5vc4A00.pdb
 173 164 0 0 0
SMALL
GASTEIGER

@<TRIPOS>ATOM
      1  N        -14.9910    3.6200    6.7960 N.3    11  GLU11      -0.1245
      2  CA       -14.2590    4.4360    5.8340 C.3    11  GLU11       0.1567
      3  C        -12.7800    4.0750    5.7930 C.2    11  GLU11       0.2260
      4  O        -12.2130    3.6250    6.7890 O.2    11  GLU11      -0.2867
      5  CB       -14.4130    5.9240    6.1640 C.3    11  GLU11       0.0388
      6  CG       -13.9860    6.2920    7.5770 C.3    11  GLU11       0.1160
      7  CD       -13.9010    7.7910    7.7920 C.2    11  GLU11       0.3649
      8  OE1      -13.4210    8.4980    6.8820 O.co2  11  GLU11      -0.2457
      9  OE2      -14.3140    8.2610    8.8730 O.co2  11  GLU11      -0.2457
     10  N         -9.1500    5.2500    5.9730 N.3    13  ILE13      -0.1231
     11  CA        -8.5140    6.4030    6.5980 C.3    13  ILE13       0.1692
     12  C         -7.0320    6.4880    6.2540 C.2    13  ILE13       0.2592
     13  O         -6.3840    7.5040    6.5040 O.2    13  ILE13      -0.2718
     14  CB        -8.6750    6.3640    8.1280 C.3    13  ILE13       0.0266
     15  CG1       -8.0690    5.0790    8.6930 C.3    13  ILE13       0.0019
     16  CG2      -10.1440    6.4680    8.5120 C.3    13  ILE13       0.0020
     17  CD1       -8.3440    4.8700   10.1660 C.3    13  ILE13       0.0001
     18  N         -6.5010    5.4170    5.6760 N.am   14  GLY14      -0.1957
     19  CA        -5.1040    5.3760    5.2910 C.3    14  GLY14       0.1869
     20  C         -4.8590    4.4160    4.1460 C.2    14  GLY14       0.2309
     21  O         -5.4970    3.3690    4.0540 O.2    14  GLY14      -0.2863
     22  N          1.9790   -0.1330    2.1680 N.3    18  PHE18      -0.1241
     23  CA         1.7880   -1.0180    3.3140 C.3    18  PHE18       0.1605
     24  C          0.4010   -1.6620    3.3420 C.2    18  PHE18       0.2264
     25  O          0.1140   -2.4990    4.2000 O.2    18  PHE18      -0.2867
     26  CB         2.0220   -0.2460    4.6150 C.3    18  PHE18       0.0534
     27  CG         1.1800    0.9970    4.7450 C.ar   18  PHE18      -0.0203
     28  CD1       -0.0770    0.9410    5.3270 C.ar   18  PHE18      -0.0042
     29  CD2        1.6500    2.2220    4.2960 C.ar   18  PHE18      -0.0042
     30  CE1       -0.8530    2.0800    5.4500 C.ar   18  PHE18      -0.0003
     31  CE2        0.8790    3.3640    4.4170 C.ar   18  PHE18      -0.0003
     32  CZ        -0.3740    3.2930    4.9950 C.ar   18  PHE18      -0.0000
     33  N         -5.6630    1.1990    5.7480 N.3    21  VAL21      -0.1245
     34  CA        -6.2260    1.1660    7.0920 C.3    21  VAL21       0.1561
     35  C         -7.6810    1.6210    7.0760 C.2    21  VAL21       0.2260
     36  O         -8.0080    2.6560    6.4940 O.2    21  VAL21      -0.2867
     37  CB        -5.4260    2.0560    8.0630 C.3    21  VAL21       0.0252
     38  CG1       -6.0240    1.9940    9.4590 C.3    21  VAL21       0.0019
     39  CG2       -3.9660    1.6340    8.0870 C.3    21  VAL21       0.0019
     40  N         -9.2370    0.3650   14.3310 N.3    34  ALA34      -0.1231
     41  CA        -8.4700    0.5810   13.1130 C.3    34  ALA34       0.1694
     42  C         -7.9460   -0.7590   12.6170 C.2    34  ALA34       0.2592
     43  O         -7.2450   -1.4660   13.3430 O.2    34  ALA34      -0.2718
     44  CB        -7.3230    1.5540   13.3560 C.3    34  ALA34       0.0304
     45  N         -8.2980   -1.1150   11.3870 N.am   35  ILE35      -0.1966
     46  CA        -7.8870   -2.3940   10.8200 C.3    35  ILE35       0.1727
     47  C         -7.0530   -2.2000    9.5590 C.2    35  ILE35       0.2616
     48  O         -7.5080   -1.5870    8.5940 O.2    35  ILE35      -0.2715
     49  CB        -9.1040   -3.2800   10.4920 C.3    35  ILE35       0.0290
     50  CG1       -9.8450   -3.6620   11.7750 C.3    35  ILE35       0.0022
     51  CG2       -8.6690   -4.5290    9.7410 C.3    35  ILE35       0.0023
     52  CD1      -11.0390   -4.5590   11.5480 C.3    35  ILE35       0.0001
     53  N         -5.8280   -2.7170    9.5710 N.am   36  LYS36      -0.1977
     54  CA        -4.9810   -2.6460    8.3880 C.3    36  LYS36       0.1596
     55  C         -5.1640   -3.8920    7.5360 C.2    36  LYS36       0.2287
     56  O         -5.0170   -5.0140    8.0180 O.2    36  LYS36      -0.2864
     57  CB        -3.5060   -2.4750    8.7610 C.3    36  LYS36       0.0298
     58  CG        -2.6030   -2.2940    7.5450 C.3    36  LYS36       0.0038
     59  CD        -1.1870   -1.8960    7.9300 C.3    36  LYS36       0.0206
     60  CE        -0.4240   -3.0590    8.5410 C.3    36  LYS36       0.1093
     61  NZ        -0.2720   -4.1910    7.5890 N.3    36  LYS36      -0.1314
     62  N          5.7580   -7.4740   13.8400 N.3    54  GLU54      -0.1245
     63  CA         4.5880   -6.8020   14.3970 C.3    54  GLU54       0.1567
     64  C          3.7770   -7.7320   15.2960 C.2    54  GLU54       0.2260
     65  O          3.5110   -7.4110   16.4540 O.2    54  GLU54      -0.2867
     66  CB         3.6990   -6.2560   13.2760 C.3    54  GLU54       0.0388
     67  CG         2.2970   -5.8590   13.7230 C.3    54  GLU54       0.1160
     68  CD         2.2420   -4.4770   14.3480 C.2    54  GLU54       0.3649
     69  OE1        2.9500   -3.5710   13.8590 O.co2  54  GLU54      -0.2457
     70  OE2        1.4880   -4.2960   15.3270 O.co2  54  GLU54      -0.2457
     71  N         -0.0690    1.7590   21.1420 N.3    68  VAL68      -0.1245
     72  CA        -1.3450    1.4430   20.5130 C.3    68  VAL68       0.1561
     73  C         -1.7450    0.0060   20.8340 C.2    68  VAL68       0.2260
     74  O         -1.0000   -0.9310   20.5450 O.2    68  VAL68      -0.2867
     75  CB        -1.2970    1.6330   18.9880 C.3    68  VAL68       0.0252
     76  CG1       -2.6250    1.2320   18.3680 C.3    68  VAL68       0.0019
     77  CG2       -0.9570    3.0750   18.6410 C.3    68  VAL68       0.0019
     78  N         -4.8630   -6.7460   10.5290 N.3    82  ILE82      -0.1245
     79  CA        -4.4520   -6.4470   11.8920 C.3    82  ILE82       0.1561
     80  C         -5.4400   -5.4860   12.5400 C.2    82  ILE82       0.2260
     81  O         -5.6680   -4.3870   12.0360 O.2    82  ILE82      -0.2867
     82  CB        -3.0410   -5.8350   11.9370 C.3    82  ILE82       0.0252
     83  CG1       -2.0390   -6.7520   11.2300 C.3    82  ILE82       0.0019
     84  CG2       -2.6210   -5.5740   13.3740 C.3    82  ILE82       0.0019
     85  CD1       -0.6290   -6.2010   11.1890 C.3    82  ILE82       0.0001
     86  N         -6.3570   -3.0530   15.4570 N.3    84  ASN84      -0.1225
     87  CA        -5.8190   -2.2440   16.5410 C.3    84  ASN84       0.1785
     88  C         -6.8220   -1.2580   17.1200 C.2    84  ASN84       0.2597
     89  O         -7.9080   -1.0500   16.5770 O.2    84  ASN84      -0.2718
     90  CB        -4.5840   -1.4710   16.0740 C.3    84  ASN84       0.1169
     91  CG        -3.3200   -2.3000   16.1300 C.2    84  ASN84       0.2627
     92  OD1       -3.3020   -3.3890   16.7020 O.2    84  ASN84      -0.2716
     93  ND2       -2.2470   -1.7780   15.5480 N.am   84  ASN84      -0.0877
     94  N         -6.4300   -0.6630   18.2390 N.am   85  GLU85      -0.1965
     95  CA        -7.1420    0.4470   18.8510 C.3    85  GLU85       0.1733
     96  C         -7.2880    1.5950   17.8570 C.2    85  GLU85       0.2616
     97  O         -6.3600    1.8890   17.1050 O.2    85  GLU85      -0.2715
     98  CB        -6.3850    0.9010   20.1030 C.3    85  GLU85       0.0429
     99  CG        -6.9400    2.1110   20.8190 C.3    85  GLU85       0.1163
    100  CD        -6.0380    2.5480   21.9600 C.2    85  GLU85       0.3649
    101  OE1       -4.8810    2.0760   22.0170 O.co2  85  GLU85      -0.2457
    102  OE2       -6.4820    3.3560   22.8010 O.co2  85  GLU85      -0.2457
    103  N         -8.4550    2.2310   17.8420 N.am   86  TYR86      -0.1960
    104  CA        -8.6760    3.3850   16.9760 C.3    86  TYR86       0.1771
    105  C         -8.3400    4.6720   17.7200 C.2    86  TYR86       0.2620
    106  O         -8.9310    4.9780   18.7560 O.2    86  TYR86      -0.2715
    107  CB       -10.1240    3.4190   16.4710 C.3    86  TYR86       0.0574
    108  CG       -10.4540    4.6140   15.5980 C.ar   86  TYR86      -0.0198
    109  CD1      -10.1020    4.6380   14.2540 C.ar   86  TYR86      -0.0009
    110  CD2      -11.1300    5.7110   16.1170 C.ar   86  TYR86      -0.0009
    111  CE1      -10.4070    5.7270   13.4530 C.ar   86  TYR86       0.0417
    112  CE2      -11.4400    6.8030   15.3230 C.ar   86  TYR86       0.0417
    113  CZ       -11.0750    6.8050   13.9930 C.ar   86  TYR86       0.1957
    114  OH       -11.3820    7.8890   13.2010 O.3    86  TYR86      -0.2866
    115  N         -7.3770    5.4170   17.1890 N.am   87  CYS87      -0.1954
    116  CA        -6.9720    6.6840   17.7810 C.3    87  CYS87       0.1843
    117  C         -7.5870    7.8430   17.0020 C.2    87  CYS87       0.2625
    118  O         -7.1440    8.1660   15.9010 O.2    87  CYS87      -0.2714
    119  CB        -5.4480    6.7960   17.8080 C.3    87  CYS87       0.0997
    120  SG        -4.6320    5.4500   18.7040 S.3    87  CYS87      -0.0797
    121  N         -8.6040    8.4700   17.5850 N.am   88  ASN88      -0.1958
    122  CA        -9.4210    9.4490   16.8720 C.3    88  ASN88       0.1819
    123  C         -8.6990   10.7460   16.5080 C.2    88  ASN88       0.2622
    124  O         -9.2380   11.5750   15.7730 O.2    88  ASN88      -0.2715
    125  CB       -10.6690    9.7800   17.6960 C.3    88  ASN88       0.1195
    126  CG       -10.3420   10.2090   19.1150 C.2    88  ASN88       0.2630
    127  OD1       -9.1920   10.4950   19.4440 O.2    88  ASN88      -0.2716
    128  ND2      -11.3620   10.2570   19.9660 N.am   88  ASN88      -0.0877
    129  N         -7.4860   10.9220   17.0220 N.am   89  GLY89      -0.1940
    130  CA        -6.6990   12.1010   16.7120 C.3    89  GLY89       0.2014
    131  C         -5.7990   11.8780   15.5120 C.2    89  GLY89       0.2639
    132  O         -5.1230   12.7980   15.0550 O.2    89  GLY89      -0.2714
    133  N         -5.7940   10.6530   14.9990 N.am   90  GLY90      -0.1939
    134  CA        -4.9470   10.3060   13.8740 C.3    90  GLY90       0.2014
    135  C         -3.4870   10.2300   14.2720 C.2    90  GLY90       0.2639
    136  O         -3.1640   10.0850   15.4510 O.2    90  GLY90      -0.2714
    137  N         -2.5980   10.3280   13.2890 N.am   91  SER91      -0.1949
    138  CA        -1.1680   10.2790   13.5620 C.3    91  SER91       0.1924
    139  C         -0.6180   11.6730   13.8350 C.2    91  SER91       0.2314
    140  O         -1.2210   12.6760   13.4450 O.2    91  SER91      -0.2863
    141  CB        -0.4130    9.6410   12.3950 C.3    91  SER91       0.2116
    142  OG        -0.4360   10.4800   11.2540 O.3    91  SER91      -0.2180
    143  N         -0.0610   13.6740   10.5660 N.3    94  ASP94      -0.1239
    144  CA        -1.2180   14.3760   10.0200 C.3    94  ASP94       0.1674
    145  C         -1.5300   15.6300   10.8270 C.2    94  ASP94       0.2266
    146  O         -1.9310   16.6520   10.2720 O.2    94  ASP94      -0.2867
    147  CB        -2.4400   13.4560    9.9830 C.3    94  ASP94       0.1410
    148  CG        -2.2940   12.3350    8.9730 C.2    94  ASP94       0.3668
    149  OD1       -1.5110   12.4970    8.0140 O.co2  94  ASP94      -0.2456
    150  OD2       -2.9700   11.2980    9.1320 O.co2  94  ASP94      -0.2456
    151  N          0.5220    7.9920   17.3860 N.3   141  PHE141     -0.1241
    152  CA        -0.9120    8.1950   17.2050 C.3   141  PHE141      0.1605
    153  C         -1.5560    8.8890   18.4000 C.2   141  PHE141      0.2264
    154  O         -1.0790    8.7790   19.5300 O.2   141  PHE141     -0.2867
    155  CB        -1.5970    6.8560   16.9220 C.3   141  PHE141      0.0534
    156  CG        -1.1520    6.2180   15.6370 C.ar  141  PHE141     -0.0203
    157  CD1       -1.7940    6.5110   14.4450 C.ar  141  PHE141     -0.0042
    158  CD2       -0.0760    5.3460   15.6160 C.ar  141  PHE141     -0.0042
    159  CE1       -1.3800    5.9360   13.2590 C.ar  141  PHE141     -0.0003
    160  CE2        0.3410    4.7660   14.4320 C.ar  141  PHE141     -0.0003
    161  CZ        -0.3110    5.0610   13.2540 C.ar  141  PHE141     -0.0000
    162  N          2.8010    3.3580   17.7280 N.3   152  GLY152     -0.1210
    163  CA         2.2120    2.3520   16.8610 C.3   152  GLY152      0.1956
    164  C          3.1870    1.8220   15.8270 C.2   152  GLY152      0.2611
    165  O          4.3630    2.1890   15.8290 O.2   152  GLY152     -0.2717
    166  N          2.6870    0.9570   14.9460 N.am  153  ASP153     -0.1973
    167  CA         3.4790    0.3460   13.8780 C.3   153  ASP153      0.1709
    168  C          4.7300   -0.3400   14.4230 C.2   153  ASP153      0.2293
    169  O          5.8100    0.2500   14.4570 O.2   153  ASP153     -0.2864
    170  CB         3.8680    1.3920   12.8300 C.3   153  ASP153      0.1436
    171  CG         4.1570    0.7790   11.4720 C.2   153  ASP153      0.3671
    172  OD1        4.5270   -0.4130   11.4170 O.co2 153  ASP153     -0.2456
    173  OD2        4.0130    1.4900   10.4550 O.co2 153  ASP153     -0.2456
@<TRIPOS>BOND
     1    22    23    1
     2    23    24    1
     3    23    26    1
     4    24    25    2
     5    21    20    2
     6    20    19    1
     7    29    31   ar
     8    29    27   ar
     9    31    32   ar
    10    26    27    1
    11    27    28   ar
    12    32    30   ar
    13    19    18    1
    14    28    30   ar
    15    18    12   am
    16    33    34    1
    17     3     2    1
    18     3     4    2
    19     2     5    1
    20     2     1    1
    21    10    11    1
    22     5     6    1
    23    12    13    2
    24    12    11    1
    25    36    35    2
    26    11    14    1
    27     8     7   ar
    28    35    34    1
    29    34    37    1
    30    55    56    2
    31    55    54    1
    32    58    59    1
    33    58    57    1
    34     6     7    1
    35    61    60    1
    36     7     9   ar
    37    59    60    1
    38   149   148   ar
    39    37    39    1
    40    37    38    1
    41    14    16    1
    42    14    15    1
    43    54    57    1
    44    54    53    1
    45    48    47    2
    46    15    17    1
    47   148   150   ar
    48   148   147    1
    49    47    53   am
    50    47    46    1
    51    51    49    1
    52   147   144    1
    53   144   143    1
    54   144   145    1
    55   146   145    2
    56   173   171   ar
    57    49    46    1
    58    49    50    1
    59    78    79    1
    60    46    45    1
    61    85    83    1
    62    83    82    1
    63   142   141    1
    64    45    42   am
    65   172   171   ar
    66   171   170    1
    67    52    50    1
    68    79    82    1
    69    79    80    1
    70    82    84    1
    71    81    80    2
    72   141   138    1
    73    42    41    1
    74    42    43    2
    75   170   167    1
    76    41    44    1
    77    41    40    1
    78   114   113    1
    79   161   159   ar
    80   161   160   ar
    81   159   157   ar
    82    66    67    1
    83    66    63    1
    84   137   138    1
    85   137   135   am
    86   140   139    2
    87   111   113   ar
    88   111   109   ar
    89   138   139    1
    90    67    68    1
    91    62    63    1
    92    69    68   ar
    93   134   135    1
    94   134   133    1
    95   167   168    1
    96   167   166    1
    97   113   112   ar
    98   109   108   ar
    99   135   136    2
   100    68    70   ar
   101    63    64    1
   102   168   169    2
   103   160   158   ar
   104   157   156   ar
   105   166   164   am
   106   133   131   am
   107   132   131    2
   108    64    65    2
   109   112   110   ar
   110    86    87    1
   111   131   130    1
   112    93    91   am
   113   108   110   ar
   114   108   107    1
   115   158   156   ar
   116   156   155    1
   117   124   123    2
   118   164   165    2
   119   164   163    1
   120   118   117    2
   121    90    91    1
   122    90    87    1
   123    91    92    2
   124   107   104    1
   125   123   122    1
   126   123   129   am
   127    87    88    1
   128    89    88    2
   129   130   129    1
   130   163   162    1
   131   122   121    1
   132   122   125    1
   133   155   152    1
   134   104   105    1
   135   104   103    1
   136   117   121   am
   137   117   116    1
   138    97    96    2
   139    88    94   am
   140   115   105   am
   141   115   116    1
   142   152   151    1
   143   152   153    1
   144   125   126    1
   145   105   106    2
   146   116   119    1
   147   119   120    1
   148   103    96   am
   149    96    95    1
   150    94    95    1
   151    76    75    1
   152   153   154    2
   153    77    75    1
   154    95    98    1
   155    75    72    1
   156   126   127    2
   157   126   128   am
   158    98    99    1
   159    72    73    1
   160    72    71    1
   161    74    73    2
   162    99   100    1
   163   100   101   ar
   164   100   102   ar
