@<TRIPOS>MOLECULE
tmp/5vc5A00.pdb
 177 167 0 0 0
SMALL
GASTEIGER

@<TRIPOS>ATOM
      1  N        -14.8670    3.7070    6.7860 N.3    11  GLU11      -0.1231
      2  CA       -14.1250    4.5570    5.8740 C.3    11  GLU11       0.1699
      3  C        -12.6640    4.1650    5.8600 C.2    11  GLU11       0.2592
      4  O        -12.1270    3.6550    6.8500 O.2    11  GLU11      -0.2718
      5  CB       -14.2380    6.0380    6.2480 C.3    11  GLU11       0.0402
      6  CG       -13.8920    6.3420    7.6630 C.3    11  GLU11       0.1161
      7  CD       -13.6160    7.8330    7.9040 C.2    11  GLU11       0.3649
      8  OE1      -13.3320    8.5530    6.9270 O.co2  11  GLU11      -0.2457
      9  OE2      -13.6690    8.2870    9.0700 O.co2  11  GLU11      -0.2457
     10  N        -12.0270    4.4290    4.7300 N.am   12  LYS12      -0.1966
     11  CA       -10.5910    4.2010    4.5950 C.3    12  LYS12       0.1728
     12  C         -9.8500    5.3410    5.2150 C.2    12  LYS12       0.2616
     13  O        -10.0520    6.5240    4.8710 O.2    12  LYS12      -0.2715
     14  CB       -10.1910    4.0610    3.1210 C.3    12  LYS12       0.0311
     15  CG        -8.7620    3.5730    2.9060 C.3    12  LYS12       0.0038
     16  CD        -8.4450    3.3390    1.4330 C.3    12  LYS12       0.0206
     17  CE        -9.3690    2.2940    0.7560 C.3    12  LYS12       0.1093
     18  NZ        -9.0110    2.1160   -0.7150 N.3    12  LYS12      -0.1314
     19  N         -8.9390    4.9870    6.0920 N.am   13  ILE13      -0.1963
     20  CA        -8.1540    5.9800    6.8010 C.3    13  ILE13       0.1727
     21  C         -6.6550    5.8880    6.4610 C.2    13  ILE13       0.2616
     22  O         -5.9080    6.7640    6.8650 O.2    13  ILE13      -0.2715
     23  CB        -8.3430    5.8540    8.3320 C.3    13  ILE13       0.0290
     24  CG1       -8.0050    4.4490    8.8040 C.3    13  ILE13       0.0022
     25  CG2       -9.7890    6.2310    8.6860 C.3    13  ILE13       0.0023
     26  CD1       -7.9810    4.2860   10.3440 C.3    13  ILE13       0.0001
     27  N         -6.2400    4.8430    5.7380 N.am   14  GLY14      -0.1955
     28  CA        -4.8780    4.7550    5.1960 C.3    14  GLY14       0.1869
     29  C         -4.7680    3.8890    3.9390 C.2    14  GLY14       0.2309
     30  O         -5.6300    3.0660    3.6300 O.2    14  GLY14      -0.2863
     31  N         -6.0440    0.7300    5.3380 N.3    21  VAL21      -0.1245
     32  CA        -6.4770    0.6730    6.7270 C.3    21  VAL21       0.1561
     33  C         -7.8590    1.2810    6.8020 C.2    21  VAL21       0.2260
     34  O         -8.1130    2.3650    6.2550 O.2    21  VAL21      -0.2867
     35  CB        -5.5250    1.4160    7.6650 C.3    21  VAL21       0.0252
     36  CG1       -5.9960    1.2790    9.0820 C.3    21  VAL21       0.0019
     37  CG2       -4.1760    0.8250    7.5210 C.3    21  VAL21       0.0019
     38  N         -9.2370    0.0520   14.0910 N.3    34  ALA34      -0.1245
     39  CA        -8.5340    0.2110   12.8300 C.3    34  ALA34       0.1562
     40  C         -8.0990   -1.1660   12.3700 C.2    34  ALA34       0.2260
     41  O         -7.5300   -1.9620   13.1390 O.2    34  ALA34      -0.2867
     42  CB        -7.3330    1.1470   12.9500 C.3    34  ALA34       0.0290
     43  N         -6.1030   -3.1860    9.2890 N.3    36  LYS36      -0.1245
     44  CA        -5.2100   -3.1470    8.1480 C.3    36  LYS36       0.1561
     45  C         -5.4320   -4.3830    7.3410 C.2    36  LYS36       0.2260
     46  O         -5.3390   -5.4850    7.8660 O.2    36  LYS36      -0.2867
     47  CB        -3.7480   -3.0870    8.5940 C.3    36  LYS36       0.0271
     48  CG        -2.7390   -3.1030    7.4230 C.3    36  LYS36       0.0035
     49  CD        -1.2720   -3.0800    7.9310 C.3    36  LYS36       0.0206
     50  CE        -0.7290   -1.6860    8.0720 C.3    36  LYS36       0.1093
     51  NZ         0.7390   -1.7380    8.3950 N.3    36  LYS36      -0.1314
     52  N          5.8870   -7.8680   13.9660 N.3    54  GLU54      -0.1245
     53  CA         4.7210   -7.2790   14.5790 C.3    54  GLU54       0.1567
     54  C          3.9040   -8.2160   15.4900 C.2    54  GLU54       0.2260
     55  O          3.5900   -7.8750   16.6420 O.2    54  GLU54      -0.2867
     56  CB         3.8680   -6.7480   13.4580 C.3    54  GLU54       0.0388
     57  CG         2.6280   -6.1170   13.8640 C.3    54  GLU54       0.1160
     58  CD         2.0530   -5.4280   12.6720 C.2    54  GLU54       0.3649
     59  OE1        1.8940   -6.1150   11.6430 O.co2  54  GLU54      -0.2457
     60  OE2        1.8400   -4.2090   12.7380 O.co2  54  GLU54      -0.2457
     61  N         -0.0980    1.5430   20.7460 N.3    68  VAL68      -0.1245
     62  CA        -1.3740    1.2600   20.0390 C.3    68  VAL68       0.1561
     63  C         -1.6850   -0.2140   20.2170 C.2    68  VAL68       0.2260
     64  O         -0.8570   -1.1000   19.9330 O.2    68  VAL68      -0.2867
     65  CB        -1.2820    1.6450   18.5290 C.3    68  VAL68       0.0252
     66  CG1       -2.5370    1.2550   17.7360 C.3    68  VAL68       0.0019
     67  CG2       -1.0100    3.0920   18.4340 C.3    68  VAL68       0.0019
     68  N         -2.7390   -3.8960   19.7810 N.3    70  TYR70      -0.1241
     69  CA        -3.0230   -4.9210   18.7890 C.3    70  TYR70       0.1605
     70  C         -4.0460   -5.8440   19.4190 C.2    70  TYR70       0.2264
     71  O         -3.9410   -6.1650   20.6000 O.2    70  TYR70      -0.2867
     72  CB        -1.7720   -5.7060   18.3980 C.3    70  TYR70       0.0534
     73  CG        -0.8500   -5.0130   17.4310 C.ar   70  TYR70      -0.0201
     74  CD1       -0.1150   -3.8990   17.8090 C.ar   70  TYR70      -0.0009
     75  CD2       -0.6820   -5.4960   16.1400 C.ar   70  TYR70      -0.0009
     76  CE1        0.7470   -3.2750   16.9160 C.ar   70  TYR70       0.0417
     77  CE2        0.1750   -4.8660   15.2440 C.ar   70  TYR70       0.0417
     78  CZ         0.8860   -3.7590   15.6440 C.ar   70  TYR70       0.1957
     79  OH         1.7560   -3.1230   14.7920 O.3    70  TYR70      -0.2866
     80  N         -5.1500   -7.1990   10.1330 N.3    82  ILE82      -0.1245
     81  CA        -4.6010   -6.8520   11.4370 C.3    82  ILE82       0.1561
     82  C         -5.4730   -5.7990   12.1330 C.2    82  ILE82       0.2260
     83  O         -5.6400   -4.6800   11.6420 O.2    82  ILE82      -0.2867
     84  CB        -3.1650   -6.3150   11.3390 C.3    82  ILE82       0.0252
     85  CG1       -2.2330   -7.3740   10.7050 C.3    82  ILE82       0.0019
     86  CG2       -2.6580   -5.9450   12.7300 C.3    82  ILE82       0.0019
     87  CD1       -0.8630   -6.8550   10.4620 C.3    82  ILE82       0.0001
     88  N         -6.2930   -3.3160   15.0820 N.3    84  ASN84      -0.1225
     89  CA        -5.7210   -2.4390   16.0880 C.3    84  ASN84       0.1785
     90  C         -6.7890   -1.5830   16.7690 C.2    84  ASN84       0.2597
     91  O         -7.8920   -1.4040   16.2580 O.2    84  ASN84      -0.2718
     92  CB        -4.6810   -1.5080   15.4420 C.3    84  ASN84       0.1169
     93  CG        -3.2600   -2.1100   15.3900 C.2    84  ASN84       0.2627
     94  OD1       -3.0530   -3.3250   15.4620 O.2    84  ASN84      -0.2716
     95  ND2       -2.2910   -1.2380   15.2240 N.am   84  ASN84      -0.0877
     96  N         -6.4190   -1.0140   17.8940 N.am   85  GLU85      -0.1965
     97  CA        -7.0990    0.1230   18.4990 C.3    85  GLU85       0.1733
     98  C         -7.2140    1.2350   17.4820 C.2    85  GLU85       0.2616
     99  O         -6.3040    1.4010   16.6810 O.2    85  GLU85      -0.2715
    100  CB        -6.2840    0.5450   19.7380 C.3    85  GLU85       0.0429
    101  CG        -6.3330    1.9570   20.1290 C.3    85  GLU85       0.1163
    102  CD        -5.5830    2.2130   21.4290 C.2    85  GLU85       0.3649
    103  OE1       -4.5650    1.5340   21.7150 O.co2  85  GLU85      -0.2457
    104  OE2       -6.0250    3.0980   22.1610 O.co2  85  GLU85      -0.2457
    105  N         -8.3590    1.9210   17.4480 N.am   86  TYR86      -0.1960
    106  CA        -8.5490    3.1270   16.6440 C.3    86  TYR86       0.1771
    107  C         -8.2040    4.3500   17.4830 C.2    86  TYR86       0.2620
    108  O         -8.8090    4.5720   18.5410 O.2    86  TYR86      -0.2715
    109  CB       -10.0100    3.2490   16.1170 C.3    86  TYR86       0.0574
    110  CG       -10.2980    4.4990   15.3030 C.ar   86  TYR86      -0.0198
    111  CD1       -9.7810    4.6600   14.0180 C.ar   86  TYR86      -0.0009
    112  CD2      -11.0980    5.5120   15.8220 C.ar   86  TYR86      -0.0009
    113  CE1      -10.0600    5.8130   13.2820 C.ar   86  TYR86       0.0417
    114  CE2      -11.3970    6.6620   15.0890 C.ar   86  TYR86       0.0417
    115  CZ       -10.8720    6.7960   13.8110 C.ar   86  TYR86       0.1957
    116  OH       -11.1290    7.9260   13.0850 O.3    86  TYR86      -0.2866
    117  N         -7.2430    5.1340   17.0000 N.am   87  CYS87      -0.1954
    118  CA        -6.8650    6.4160   17.5900 C.3    87  CYS87       0.1843
    119  C         -7.5300    7.5370   16.8150 C.2    87  CYS87       0.2625
    120  O         -7.1870    7.8100   15.6640 O.2    87  CYS87      -0.2714
    121  CB        -5.3330    6.5400   17.5940 C.3    87  CYS87       0.0997
    122  SG        -4.6200    5.1870   18.5820 S.3    87  CYS87      -0.0797
    123  N         -8.5140    8.1750   17.4370 N.am   88  ASN88      -0.1958
    124  CA        -9.4170    9.0440   16.6910 C.3    88  ASN88       0.1819
    125  C         -8.7430   10.3450   16.2620 C.2    88  ASN88       0.2622
    126  O         -9.2600   11.0890   15.4150 O.2    88  ASN88      -0.2715
    127  CB       -10.7060    9.3300   17.5170 C.3    88  ASN88       0.1195
    128  CG       -10.4480   10.1110   18.7990 C.2    88  ASN88       0.2630
    129  OD1       -9.3180   10.3560   19.1870 O.2    88  ASN88      -0.2716
    130  ND2      -11.5240   10.4890   19.4690 N.am   88  ASN88      -0.0877
    131  N         -7.5650   10.6070   16.8070 N.am   89  GLY89      -0.1940
    132  CA        -6.8470   11.8240   16.4550 C.3    89  GLY89       0.2014
    133  C         -5.8740   11.6790   15.2840 C.2    89  GLY89       0.2639
    134  O         -5.1960   12.6390   14.9390 O.2    89  GLY89      -0.2714
    135  N         -5.7910   10.5010   14.6750 N.am   90  GLY90      -0.1954
    136  CA        -4.8800   10.3110   13.5590 C.3    90  GLY90       0.1869
    137  C         -3.4340   10.1680   14.0580 C.2    90  GLY90       0.2309
    138  O         -3.1680    9.9090   15.2560 O.2    90  GLY90      -0.2863
    139  N         -0.1090   13.5350   10.6120 N.3    94  ASP94      -0.1239
    140  CA        -1.3800   14.1690   10.1660 C.3    94  ASP94       0.1674
    141  C         -1.5620   15.5060   10.8940 C.2    94  ASP94       0.2266
    142  O         -1.9200   16.5290   10.2990 O.2    94  ASP94      -0.2867
    143  CB        -2.6080   13.2710   10.4720 C.3    94  ASP94       0.1410
    144  CG        -2.6490   11.9690    9.6580 C.2    94  ASP94       0.3668
    145  OD1       -2.3620   12.0240    8.4550 O.co2  94  ASP94      -0.2456
    146  OD2       -3.0060   10.8900   10.2160 O.co2  94  ASP94      -0.2456
    147  N          4.2250    7.2250   12.8000 N.3   139  ASN139     -0.1240
    148  CA         4.0150    6.0710   13.6990 C.3   139  ASN139      0.1653
    149  C          3.6620    6.4360   15.1310 C.2   139  ASN139      0.2266
    150  O          3.6640    5.5550   16.0180 O.2   139  ASN139     -0.2867
    151  CB         5.2650    5.1840   13.7170 C.3   139  ASN139      0.1155
    152  CG         5.4130    4.3900   12.4420 C.2   139  ASN139      0.2627
    153  OD1        4.4400    4.1600   11.7140 O.2   139  ASN139     -0.2716
    154  ND2        6.6070    3.9610   12.1680 N.am  139  ASN139     -0.0877
    155  N          0.5180    7.8530   17.2070 N.3   141  PHE141     -0.1241
    156  CA        -0.9500    8.0780   17.0310 C.3   141  PHE141      0.1605
    157  C         -1.5680    8.7700   18.2140 C.2   141  PHE141      0.2264
    158  O         -1.0080    8.7630   19.3040 O.2   141  PHE141     -0.2867
    159  CB        -1.6530    6.7640   16.7620 C.3   141  PHE141      0.0534
    160  CG        -1.3270    6.1850   15.4320 C.ar  141  PHE141     -0.0203
    161  CD1       -0.2270    5.3950   15.2710 C.ar  141  PHE141     -0.0042
    162  CD2       -2.1230    6.4690   14.3260 C.ar  141  PHE141     -0.0042
    163  CE1        0.1100    4.8720   14.0410 C.ar  141  PHE141     -0.0003
    164  CE2       -1.8120    5.9540   13.1080 C.ar  141  PHE141     -0.0003
    165  CZ        -0.6800    5.1390   12.9570 C.ar  141  PHE141     -0.0000
    166  N          2.7190    3.3180   17.4260 N.3   152  GLY152     -0.1210
    167  CA         2.1430    2.3720   16.4780 C.3   152  GLY152      0.1956
    168  C          3.2110    1.6780   15.6220 C.2   152  GLY152      0.2611
    169  O          4.4070    1.9960   15.7080 O.2   152  GLY152     -0.2717
    170  N          2.7550    0.7070   14.8320 N.am  153  ASP153     -0.1973
    171  CA         3.5580   -0.0450   13.8550 C.3   153  ASP153      0.1709
    172  C          4.8100   -0.7410   14.3950 C.2   153  ASP153      0.2293
    173  O          5.9120   -0.2500   14.2120 O.2   153  ASP153     -0.2864
    174  CB         3.9940    0.8610   12.7170 C.3   153  ASP153      0.1436
    175  CG         4.5130    0.0910   11.5370 C.2   153  ASP153      0.3671
    176  OD1        4.6260   -1.1560   11.6210 O.co2 153  ASP153     -0.2456
    177  OD2        4.8010    0.7370   10.5160 O.co2 153  ASP153     -0.2456
@<TRIPOS>BOND
     1    18    17    1
     2    17    16    1
     3    16    15    1
     4    15    14    1
     5    14    11    1
     6    30    29    2
     7    29    28    1
     8    11    10    1
     9    11    12    1
    10    10     3   am
    11    13    12    2
    12    28    27    1
    13    12    19   am
    14    31    32    1
    15    27    21   am
    16     3     2    1
    17     3     4    2
    18     2     5    1
    19     2     1    1
    20    19    20    1
    21     5     6    1
    22    34    33    2
    23    21    20    1
    24    21    22    2
    25    32    33    1
    26    32    35    1
    27    20    23    1
    28     8     7   ar
    29    45    46    2
    30    45    44    1
    31    48    49    1
    32    48    47    1
    33    37    35    1
    34     6     7    1
    35    35    36    1
    36     7     9   ar
    37    49    50    1
    38    50    51    1
    39    44    47    1
    40    44    43    1
    41    23    25    1
    42    23    24    1
    43   145   144   ar
    44    24    26    1
    45   144   146   ar
    46   144   143    1
    47    80    81    1
    48   140   143    1
    49   140   139    1
    50   140   141    1
    51   142   141    2
    52    87    85    1
    53   177   175   ar
    54    85    84    1
    55    84    81    1
    56    84    86    1
    57    81    82    1
    58   175   176   ar
    59   175   174    1
    60    83    82    2
    61    59    58   ar
    62   153   152    2
    63   154   152   am
    64    40    39    1
    65    40    41    2
    66   152   151    1
    67    58    60   ar
    68    58    57    1
    69   174   171    1
    70   147   148    1
    71    39    42    1
    72    39    38    1
    73   165   164   ar
    74   165   163   ar
    75   116   115    1
    76   164   162   ar
    77   113   115   ar
    78   113   111   ar
    79    56    57    1
    80    56    53    1
    81   136   137    1
    82   136   135    1
    83   148   151    1
    84   148   149    1
    85   115   114   ar
    86   171   172    1
    87   171   170    1
    88    52    53    1
    89   111   110   ar
    90   163   161   ar
    91   137   138    2
    92   173   172    2
    93   162   160   ar
    94    53    54    1
    95   135   133   am
    96    79    78    1
    97   170   168   am
    98   134   133    2
    99    88    89    1
   100   114   112   ar
   101   149   150    2
   102    95    93   am
   103    77    78   ar
   104    77    75   ar
   105   161   160   ar
   106   133   132    1
   107   110   112   ar
   108   110   109    1
   109    93    92    1
   110    93    94    2
   111   126   125    2
   112   160   159    1
   113    92    89    1
   114    54    55    2
   115   168   169    2
   116   168   167    1
   117    78    76   ar
   118   120   119    2
   119    89    90    1
   120   109   106    1
   121    75    73   ar
   122    91    90    2
   123   125   124    1
   124   125   131   am
   125   132   131    1
   126   167   166    1
   127   106   105    1
   128   106   107    1
   129    99    98    2
   130   124   123    1
   131   124   127    1
   132   159   156    1
   133    90    96   am
   134   119   123   am
   135   119   118    1
   136    76    74   ar
   137   117   107   am
   138   117   118    1
   139   156   155    1
   140   156   157    1
   141    73    74   ar
   142    73    72    1
   143   105    98   am
   144    98    97    1
   145   107   108    2
   146   127   128    1
   147   118   121    1
   148   121   122    1
   149    66    65    1
   150    96    97    1
   151   157   158    2
   152    72    69    1
   153    67    65    1
   154    97   100    1
   155    65    62    1
   156    69    70    1
   157    69    68    1
   158   128   129    2
   159   128   130   am
   160    70    71    2
   161   100   101    1
   162    64    63    2
   163    62    63    1
   164    62    61    1
   165   101   102    1
   166   102   103   ar
   167   102   104   ar
