@<TRIPOS>MOLECULE
tmp/5vc6A00.pdb
 174 165 0 0 0
SMALL
GASTEIGER

@<TRIPOS>ATOM
      1  N         35.1810    3.8070    6.7240 N.3    11  GLU11      -0.1231
      2  CA        35.9800    4.7170    5.9140 C.3    11  GLU11       0.1699
      3  C         37.4580    4.3290    5.9270 C.2    11  GLU11       0.2592
      4  O         37.9590    3.8090    6.9170 O.2    11  GLU11      -0.2718
      5  CB        35.7940    6.1530    6.4110 C.3    11  GLU11       0.0402
      6  CG        36.9800    6.7590    7.1240 C.3    11  GLU11       0.1161
      7  CD        36.6920    8.1630    7.6110 C.2    11  GLU11       0.3649
      8  OE1       37.6170    9.0040    7.6250 O.co2  11  GLU11      -0.2457
      9  OE2       35.5300    8.4220    7.9840 O.co2  11  GLU11      -0.2457
     10  N         38.1460    4.5690    4.8180 N.am   12  LYS12      -0.1966
     11  CA        39.5710    4.2750    4.7320 C.3    12  LYS12       0.1728
     12  C         40.3470    5.4350    5.3180 C.2    12  LYS12       0.2616
     13  O         40.1940    6.5710    4.8690 O.2    12  LYS12      -0.2715
     14  CB        40.0130    4.0350    3.2910 C.3    12  LYS12       0.0311
     15  CG        41.4930    3.6650    3.1940 C.3    12  LYS12       0.0038
     16  CD        41.9290    3.5210    1.7660 C.3    12  LYS12       0.0206
     17  CE        41.2780    2.3200    1.1230 C.3    12  LYS12       0.1093
     18  NZ        41.7810    2.1690   -0.2480 N.3    12  LYS12      -0.1314
     19  N         41.1770    5.1500    6.3130 N.am   13  ILE13      -0.1963
     20  CA        41.8950    6.2000    7.0300 C.3    13  ILE13       0.1727
     21  C         43.3990    6.1380    6.7550 C.2    13  ILE13       0.2616
     22  O         44.1400    7.0400    7.1350 O.2    13  ILE13      -0.2715
     23  CB        41.6290    6.1260    8.5620 C.3    13  ILE13       0.0290
     24  CG1       41.9650    4.7450    9.1190 C.3    13  ILE13       0.0022
     25  CG2       40.1790    6.3980    8.8470 C.3    13  ILE13       0.0023
     26  CD1       41.7680    4.6070   10.6460 C.3    13  ILE13       0.0001
     27  N         43.8360    5.0860    6.0740 N.am   14  GLY14      -0.1955
     28  CA        45.2370    4.9200    5.7280 C.3    14  GLY14       0.1869
     29  C         45.4250    4.0990    4.4650 C.2    14  GLY14       0.2309
     30  O         44.6030    3.2390    4.1400 O.2    14  GLY14      -0.2863
     31  N         52.0170   -0.4910    2.1490 N.3    18  PHE18      -0.1241
     32  CA        51.7970   -1.4210    3.2430 C.3    18  PHE18       0.1605
     33  C         50.4180   -2.0820    3.1670 C.2    18  PHE18       0.2264
     34  O         50.1720   -3.0880    3.8350 O.2    18  PHE18      -0.2867
     35  CB        51.9620   -0.6990    4.5870 C.3    18  PHE18       0.0534
     36  CG        50.8290    0.2400    4.9280 C.ar   18  PHE18      -0.0203
     37  CD1       49.6210   -0.2480    5.3950 C.ar   18  PHE18      -0.0042
     38  CD2       50.9910    1.6140    4.8230 C.ar   18  PHE18      -0.0042
     39  CE1       48.5820    0.6090    5.7210 C.ar   18  PHE18      -0.0003
     40  CE2       49.9500    2.4770    5.1510 C.ar   18  PHE18      -0.0003
     41  CZ        48.7510    1.9690    5.6020 C.ar   18  PHE18      -0.0000
     42  N         44.2600    0.8590    5.7760 N.3    21  VAL21      -0.1245
     43  CA        43.7120    0.8370    7.1240 C.3    21  VAL21       0.1561
     44  C         42.3130    1.4380    7.1020 C.2    21  VAL21       0.2260
     45  O         42.1030    2.5310    6.5730 O.2    21  VAL21      -0.2867
     46  CB        44.5780    1.6200    8.1400 C.3    21  VAL21       0.0252
     47  CG1       43.8850    1.6380    9.5190 C.3    21  VAL21       0.0019
     48  CG2       46.0260    1.0460    8.2110 C.3    21  VAL21       0.0019
     49  N         40.5650    0.2060   14.2130 N.3    34  ALA34      -0.1245
     50  CA        41.3200    0.4400   12.9940 C.3    34  ALA34       0.1562
     51  C         41.8660   -0.9000   12.5160 C.2    34  ALA34       0.2260
     52  O         42.6630   -1.5580   13.2040 O.2    34  ALA34      -0.2867
     53  CB        42.4500    1.4430   13.2250 C.3    34  ALA34       0.0290
     54  N         43.9630   -2.9160    9.8720 N.3    36  LYS36      -0.1245
     55  CA        44.9860   -2.9090    8.8280 C.3    36  LYS36       0.1561
     56  C         44.7950   -4.1230    7.9360 C.2    36  LYS36       0.2260
     57  O         44.7460   -5.2430    8.4210 O.2    36  LYS36      -0.2867
     58  CB        46.3940   -2.9270    9.4340 C.3    36  LYS36       0.0271
     59  CG        47.5180   -2.7280    8.4190 C.3    36  LYS36       0.0035
     60  CD        48.7030   -1.9810    9.0390 C.3    36  LYS36       0.0206
     61  CE        49.4630   -2.8140   10.0880 C.3    36  LYS36       0.1093
     62  NZ        50.4590   -1.9850   10.8640 N.3    36  LYS36      -0.1314
     63  N         55.8600   -7.6110   13.6330 N.3    54  GLU54      -0.1245
     64  CA        54.6560   -7.0620   14.2400 C.3    54  GLU54       0.1567
     65  C         53.8680   -8.1200   15.0380 C.2    54  GLU54       0.2260
     66  O         53.3770   -7.8510   16.1360 O.2    54  GLU54      -0.2867
     67  CB        53.7740   -6.4600   13.1540 C.3    54  GLU54       0.0388
     68  CG        52.5800   -5.7340   13.6850 C.3    54  GLU54       0.1160
     69  CD        51.8290   -4.9970   12.5980 C.2    54  GLU54       0.3649
     70  OE1       51.8040   -5.4960   11.4480 O.co2  54  GLU54      -0.2457
     71  OE2       51.2850   -3.9110   12.8990 O.co2  54  GLU54      -0.2457
     72  N         49.6040    1.9310   20.6700 N.3    68  VAL68      -0.1245
     73  CA        48.3420    1.6110   20.0040 C.3    68  VAL68       0.1561
     74  C         48.0400    0.1430   20.2910 C.2    68  VAL68       0.2260
     75  O         48.8460   -0.7340   19.9820 O.2    68  VAL68      -0.2867
     76  CB        48.4230    1.8940   18.4910 C.3    68  VAL68       0.0252
     77  CG1       47.1560    1.4350   17.7520 C.3    68  VAL68       0.0019
     78  CG2       48.6800    3.3720   18.2710 C.3    68  VAL68       0.0019
     79  N         43.2110   -3.1390   15.3760 N.3    84  ASN84      -0.1225
     80  CA        43.8650   -2.2210   16.2940 C.3    84  ASN84       0.1785
     81  C         42.8890   -1.2580   16.9490 C.2    84  ASN84       0.2597
     82  O         41.7840   -1.0500   16.4580 O.2    84  ASN84      -0.2718
     83  CB        44.9220   -1.3970   15.5500 C.3    84  ASN84       0.1169
     84  CG        45.8850   -2.2600   14.7360 C.2    84  ASN84       0.2627
     85  OD1       46.8480   -2.7910   15.2700 O.2    84  ASN84      -0.2716
     86  ND2       45.6280   -2.3840   13.4320 N.am   84  ASN84      -0.0877
     87  N         43.3310   -0.6570   18.0470 N.am   85  GLU85      -0.1965
     88  CA        42.7150    0.5430   18.6050 C.3    85  GLU85       0.1733
     89  C         42.6030    1.6810   17.5780 C.2    85  GLU85       0.2616
     90  O         43.5370    1.9050   16.8110 O.2    85  GLU85      -0.2715
     91  CB        43.5450    0.9990   19.8010 C.3    85  GLU85       0.0429
     92  CG        43.1650    2.3300   20.4060 C.3    85  GLU85       0.1163
     93  CD        44.1160    2.7510   21.5310 C.2    85  GLU85       0.3649
     94  OE1       45.1290    2.0430   21.7870 O.co2  85  GLU85      -0.2457
     95  OE2       43.8480    3.8000   22.1590 O.co2  85  GLU85      -0.2457
     96  N         41.4750    2.3990   17.5810 N.am   86  TYR86      -0.1960
     97  CA        41.2820    3.5710   16.7220 C.3    86  TYR86       0.1771
     98  C         41.5700    4.8380   17.5010 C.2    86  TYR86       0.2620
     99  O         41.0540    5.0430   18.5960 O.2    86  TYR86      -0.2715
    100  CB        39.8580    3.6120   16.1570 C.3    86  TYR86       0.0574
    101  CG        39.4920    4.8670   15.3640 C.ar   86  TYR86      -0.0198
    102  CD1       39.9300    5.0560   14.0600 C.ar   86  TYR86      -0.0009
    103  CD2       38.6710    5.8410   15.9210 C.ar   86  TYR86      -0.0009
    104  CE1       39.5750    6.2010   13.3440 C.ar   86  TYR86       0.0417
    105  CE2       38.3140    6.9650   15.2250 C.ar   86  TYR86       0.0417
    106  CZ        38.7610    7.1460   13.9410 C.ar   86  TYR86       0.1957
    107  OH        38.3900    8.2800   13.2570 O.3    86  TYR86      -0.2866
    108  N         42.4130    5.6760   16.9160 N.am   87  CYS87      -0.1954
    109  CA        42.8310    6.9360   17.5130 C.3    87  CYS87       0.1843
    110  C         42.1440    8.0540   16.7150 C.2    87  CYS87       0.2625
    111  O         42.4690    8.2590   15.5530 O.2    87  CYS87      -0.2714
    112  CB        44.3680    7.0400   17.4890 C.3    87  CYS87       0.0997
    113  SG        45.1850    5.7720   18.4880 S.3    87  CYS87      -0.0797
    114  N         41.1600    8.7210   17.3260 N.am   88  ASN88      -0.1958
    115  CA        40.2650    9.6260   16.5990 C.3    88  ASN88       0.1819
    116  C         40.9290   10.9360   16.1990 C.2    88  ASN88       0.2622
    117  O         40.3510   11.7260   15.4510 O.2    88  ASN88      -0.2715
    118  CB        38.9850    9.9160   17.4230 C.3    88  ASN88       0.1195
    119  CG        39.2630   10.4420   18.8310 C.2    88  ASN88       0.2630
    120  OD1       40.3870   10.8110   19.1770 O.2    88  ASN88      -0.2716
    121  ND2       38.2150   10.4870   19.6540 N.am   88  ASN88      -0.0877
    122  N         42.1450   11.1570   16.6830 N.am   89  GLY89      -0.1940
    123  CA        42.8910   12.3580   16.3560 C.3    89  GLY89       0.2014
    124  C         43.7830   12.1940   15.1390 C.2    89  GLY89       0.2639
    125  O         44.3950   13.1610   14.6780 O.2    89  GLY89      -0.2714
    126  N         43.8840   10.9700   14.6250 N.am   90  GLY90      -0.1939
    127  CA        44.7850   10.6910   13.5200 C.3    90  GLY90       0.2014
    128  C         46.2380   10.6950   13.9740 C.2    90  GLY90       0.2639
    129  O         46.5210   10.4950   15.1530 O.2    90  GLY90      -0.2714
    130  N         47.1600   10.9170   13.0450 N.am   91  SER91      -0.1949
    131  CA        48.5880   10.8640   13.3630 C.3    91  SER91       0.1924
    132  C         49.1610   12.2400   13.6600 C.2    91  SER91       0.2314
    133  O         48.5890   13.2580   13.2770 O.2    91  SER91      -0.2863
    134  CB        49.3710   10.2620   12.2100 C.3    91  SER91       0.2116
    135  OG        49.5910   11.2690   11.2290 O.3    91  SER91      -0.2180
    136  N         49.5910   14.1560   10.4280 N.3    94  ASP94      -0.1239
    137  CA        48.3820   14.8810   10.0220 C.3    94  ASP94       0.1674
    138  C         48.2090   16.1910   10.7880 C.2    94  ASP94       0.2266
    139  O         47.8740   17.2340   10.2110 O.2    94  ASP94      -0.2867
    140  CB        47.1420   14.0070   10.2300 C.3    94  ASP94       0.1410
    141  CG        47.2460   12.6730    9.5430 C.2    94  ASP94       0.3668
    142  OD1       47.3380   12.6670    8.3080 O.co2  94  ASP94      -0.2456
    143  OD2       47.2380   11.6230   10.2360 O.co2  94  ASP94      -0.2456
    144  N         53.9020    7.7800   12.8170 N.3   139  ASN139     -0.1240
    145  CA        53.7460    6.5490   13.5920 C.3   139  ASN139      0.1653
    146  C         53.4000    6.8510   15.0380 C.2   139  ASN139      0.2266
    147  O         53.4770    5.9760   15.9020 O.2   139  ASN139     -0.2867
    148  CB        55.0150    5.7000   13.5150 C.3   139  ASN139      0.1155
    149  CG        55.1640    4.9890   12.1820 C.2   139  ASN139      0.2627
    150  OD1       54.1800    4.7160   11.4990 O.2   139  ASN139     -0.2716
    151  ND2       56.4070    4.6700   11.8120 N.am  139  ASN139     -0.0877
    152  N         50.1310    8.4760   17.0710 N.3   141  PHE141     -0.1241
    153  CA        48.7080    8.7210   16.8360 C.3   141  PHE141      0.1605
    154  C         48.1100    9.4140   18.0390 C.2   141  PHE141      0.2264
    155  O         48.7250    9.4560   19.1020 O.2   141  PHE141     -0.2867
    156  CB        47.9870    7.4050   16.5090 C.3   141  PHE141      0.0534
    157  CG        48.4600    6.7920   15.2230 C.ar  141  PHE141     -0.0203
    158  CD1       49.6090    6.0140   15.2010 C.ar  141  PHE141     -0.0042
    159  CD2       47.7960    7.0390   14.0300 C.ar  141  PHE141     -0.0042
    160  CE1       50.0780    5.4690   14.0160 C.ar  141  PHE141     -0.0003
    161  CE2       48.2490    6.5000   12.8500 C.ar  141  PHE141     -0.0003
    162  CZ        49.4120    5.7060   12.8430 C.ar  141  PHE141     -0.0000
    163  N         52.3800    3.7380   17.2970 N.3   150  GLY150     -0.1210
    164  CA        51.8360    2.7100   16.4250 C.3   150  GLY150      0.1956
    165  C         52.8580    2.2090   15.4150 C.2   150  GLY150      0.2611
    166  O         54.0150    2.6500   15.4100 O.2   150  GLY150     -0.2717
    167  N         52.3990    1.2990   14.5600 N.am  151  ASP151     -0.1973
    168  CA        53.1920    0.6530   13.5140 C.3   151  ASP151      0.1709
    169  C         54.4560   -0.0740   13.9790 C.2   151  ASP151      0.2293
    170  O         55.5640    0.4470   13.8680 O.2   151  ASP151     -0.2864
    171  CB        53.5680    1.6750   12.4420 C.3   151  ASP151      0.1436
    172  CG        54.0480    1.0230   11.1520 C.2   151  ASP151      0.3671
    173  OD1       54.3280   -0.1960   11.1480 O.co2 151  ASP151     -0.2456
    174  OD2       54.1510    1.7420   10.1380 O.co2 151  ASP151     -0.2456
@<TRIPOS>BOND
     1    18    17    1
     2    17    16    1
     3    16    15    1
     4    31    32    1
     5    33    32    1
     6    33    34    2
     7    15    14    1
     8    32    35    1
     9    14    11    1
    10    30    29    2
    11    29    28    1
    12    35    36    1
    13    11    10    1
    14    11    12    1
    15    10     3   am
    16    38    36   ar
    17    38    40   ar
    18    13    12    2
    19    36    37   ar
    20    40    41   ar
    21    12    19   am
    22    37    39   ar
    23    41    39   ar
    24    28    27    1
    25    42    43    1
    26     2     3    1
    27     2     5    1
    28     2     1    1
    29     3     4    2
    30    27    21   am
    31    19    20    1
    32     5     6    1
    33    45    44    2
    34    21    20    1
    35    21    22    2
    36    20    23    1
    37    44    43    1
    38     6     7    1
    39    43    46    1
    40     7     8   ar
    41     7     9   ar
    42    56    57    2
    43    56    55    1
    44    46    48    1
    45    46    47    1
    46   142   141   ar
    47    59    60    1
    48    59    58    1
    49    23    25    1
    50    23    24    1
    51    55    58    1
    52    55    54    1
    53    60    61    1
    54    24    26    1
    55   141   140    1
    56   141   143   ar
    57   137   140    1
    58   137   136    1
    59   137   138    1
    60    61    62    1
    61   174   172   ar
    62   139   138    2
    63   173   172   ar
    64   172   171    1
    65   135   134    1
    66    70    69   ar
    67   150   149    2
    68   151   149   am
    69   149   148    1
    70   134   131    1
    71   171   168    1
    72    51    50    1
    73    51    52    2
    74    69    71   ar
    75    69    68    1
    76   144   145    1
    77   162   161   ar
    78   162   160   ar
    79   161   159   ar
    80    50    53    1
    81    50    49    1
    82   130   131    1
    83   130   128   am
    84    67    68    1
    85    67    64    1
    86   107   106    1
    87   133   132    2
    88   104   106   ar
    89   104   102   ar
    90   131   132    1
    91    86    84   am
    92   168   169    1
    93   168   167    1
    94   148   145    1
    95   127   128    1
    96   127   126    1
    97   145   146    1
    98    63    64    1
    99   170   169    2
   100   106   105   ar
   101   128   129    2
   102   160   158   ar
   103   159   157   ar
   104   102   101   ar
   105    64    65    1
   106   167   165   am
   107   126   124   am
   108   125   124    2
   109    84    85    2
   110    84    83    1
   111   146   147    2
   112    65    66    2
   113   124   123    1
   114   158   157   ar
   115   157   156    1
   116   105   103   ar
   117   101   103   ar
   118   101   100    1
   119    79    80    1
   120   166   165    2
   121   165   164    1
   122   117   116    2
   123    83    80    1
   124   111   110    2
   125   100    97    1
   126   116   115    1
   127   116   122   am
   128    80    81    1
   129   123   122    1
   130   164   163    1
   131    82    81    2
   132   156   153    1
   133   115   114    1
   134   115   118    1
   135   110   114   am
   136   110   109    1
   137    97    98    1
   138    97    96    1
   139    90    89    2
   140   153   152    1
   141   153   154    1
   142   108    98   am
   143   108   109    1
   144    81    87   am
   145   118   119    1
   146   112   109    1
   147   112   113    1
   148    98    99    2
   149    89    96   am
   150    89    88    1
   151    77    76    1
   152   154   155    2
   153    87    88    1
   154    78    76    1
   155    76    73    1
   156    88    91    1
   157   119   120    2
   158   119   121   am
   159    91    92    1
   160    75    74    2
   161    73    74    1
   162    73    72    1
   163    92    93    1
   164    93    94   ar
   165    93    95   ar
