@<TRIPOS>MOLECULE
tmp/5vc7F01.pdb
 172 166 0 0 0
SMALL
GASTEIGER

@<TRIPOS>ATOM
      1  N        144.6720  161.0100  166.8270 N.3   286  ASP286     -0.1225
      2  CA       145.0600  162.4000  166.6340 C.3   286  ASP286      0.1805
      3  C        146.1790  162.5640  165.6180 C.2   286  ASP286      0.2598
      4  O        146.5490  163.7020  165.3140 O.2   286  ASP286     -0.2718
      5  CB       145.4830  163.0140  167.9690 C.3   286  ASP286      0.1424
      6  CG       144.3210  163.1930  168.9220 C.2   286  ASP286      0.3668
      7  OD1      143.1610  163.1400  168.4610 O.co2 286  ASP286     -0.2456
      8  OD2      144.5650  163.3840  170.1320 O.co2 286  ASP286     -0.2456
      9  N        146.7380  161.4740  165.1030 N.am  287  ILE287     -0.1966
     10  CA       147.8530  161.5160  164.1650 C.3   287  ILE287      0.1727
     11  C        147.3210  161.1540  162.7860 C.2   287  ILE287      0.2616
     12  O        146.9590  159.9970  162.5350 O.2   287  ILE287     -0.2715
     13  CB       148.9800  160.5690  164.5890 C.3   287  ILE287      0.0290
     14  CG1      149.4640  160.9230  165.9940 C.3   287  ILE287      0.0022
     15  CG2      150.1250  160.6220  163.5930 C.3   287  ILE287      0.0023
     16  CD1      149.9670  162.3350  166.1160 C.3   287  ILE287      0.0001
     17  N        147.2730  162.1350  161.8880 N.am  288  GLY288     -0.1955
     18  CA       146.8360  161.8730  160.5270 C.3   288  GLY288      0.1869
     19  C        147.9720  161.3570  159.6580 C.2   288  GLY288      0.2309
     20  O        149.1240  161.7700  159.7900 O.2   288  GLY288     -0.2863
     21  N        150.8610  159.0390  157.8390 N.3   290  LEU290     -0.1245
     22  CA       152.0970  158.4820  158.3830 C.3   290  LEU290      0.1561
     23  C        151.9060  157.0570  158.8890 C.2   290  LEU290      0.2260
     24  O        152.5220  156.6560  159.8820 O.2   290  LEU290     -0.2867
     25  CB       152.6510  159.3680  159.5020 C.3   290  LEU290      0.0270
     26  CG       153.4360  160.6010  159.0610 C.3   290  LEU290      0.0019
     27  CD1      152.5280  161.5740  158.3300 C.3   290  LEU290      0.0001
     28  CD2      154.0930  161.2700  160.2570 C.3   290  LEU290      0.0001
     29  N        160.8060  168.5700  158.2640 N.3   327  PRO327     -0.2103
     30  CA       160.3890  169.9680  158.1890 C.3   327  PRO327      0.1489
     31  C        159.6830  170.3880  159.4640 C.2   327  PRO327      0.2418
     32  O        158.9320  169.6020  160.0570 O.2   327  PRO327     -0.2734
     33  CB       159.4300  169.9870  156.9890 C.3   327  PRO327      0.0282
     34  CG       159.8580  168.8320  156.1570 C.3   327  PRO327      0.0208
     35  CD       160.3010  167.7790  157.1290 C.3   327  PRO327      0.0893
     36  N        159.9020  171.6190  159.9200 N.am  328  PRO328     -0.2718
     37  CA       159.2070  172.0880  161.1210 C.3   328  PRO328      0.1535
     38  C        157.7030  171.9780  160.9480 C.2   328  PRO328      0.2599
     39  O        157.1430  172.4070  159.9390 O.2   328  PRO328     -0.2715
     40  CB       159.6590  173.5470  161.2410 C.3   328  PRO328      0.0310
     41  CG       160.9780  173.5790  160.5580 C.3   328  PRO328      0.0237
     42  CD       160.8620  172.6130  159.4160 C.3   328  PRO328      0.0939
     43  N        157.0500  171.3950  161.9470 N.am  329  GLY329     -0.1941
     44  CA       155.6150  171.2310  161.9230 C.3   329  GLY329      0.2014
     45  C        155.1170  169.8880  161.4440 C.2   329  GLY329      0.2639
     46  O        153.9020  169.7200  161.2930 O.2   329  GLY329     -0.2714
     47  N        156.0100  168.9270  161.1950 N.am  330  VAL330     -0.1963
     48  CA       155.5750  167.5950  160.7930 C.3   330  VAL330      0.1727
     49  C        154.9560  166.8170  161.9410 C.2   330  VAL330      0.2617
     50  O        154.4240  165.7250  161.7190 O.2   330  VAL330     -0.2715
     51  CB       156.7430  166.7850  160.2010 C.3   330  VAL330      0.0290
     52  CG1      157.2650  167.4510  158.9390 C.3   330  VAL330      0.0023
     53  CG2      157.8510  166.6260  161.2290 C.3   330  VAL330      0.0023
     54  N        155.0090  167.3510  163.1550 N.am  331  GLY331     -0.1940
     55  CA       154.4250  166.6980  164.3050 C.3   331  GLY331      0.2014
     56  C        155.3720  165.9110  165.1820 C.2   331  GLY331      0.2639
     57  O        154.9040  165.0740  165.9620 O.2   331  GLY331     -0.2714
     58  N        156.6810  166.1500  165.0840 N.am  332  LYS332     -0.1963
     59  CA       157.6230  165.4310  165.9340 C.3   332  LYS332      0.1728
     60  C        157.1890  165.4950  167.3900 C.2   332  LYS332      0.2617
     61  O        157.0150  164.4630  168.0480 O.2   332  LYS332     -0.2715
     62  CB       159.0240  166.0190  165.7740 C.3   332  LYS332      0.0311
     63  CG       159.6120  165.8800  164.3890 C.3   332  LYS332      0.0038
     64  CD       160.9400  166.6090  164.3120 C.3   332  LYS332      0.0206
     65  CE       161.5710  166.4860  162.9410 C.3   332  LYS332      0.1093
     66  NZ       162.8280  167.2720  162.8760 N.3   332  LYS332     -0.1314
     67  N        156.9930  166.7090  167.9050 N.am  333  THR333     -0.1937
     68  CA       156.5180  166.8660  169.2730 C.3   333  THR333      0.2028
     69  C        155.2290  166.0940  169.5090 C.2   333  THR333      0.2642
     70  O        154.9820  165.6210  170.6240 O.2   333  THR333     -0.2714
     71  CB       156.3090  168.3470  169.5860 C.3   333  THR333      0.1808
     72  OG1      155.3870  168.9060  168.6410 O.3   333  THR333     -0.2208
     73  CG2      157.6260  169.0970  169.5040 C.3   333  THR333      0.0379
     74  N        154.3970  165.9580  168.4770 N.am  334  LEU334     -0.1963
     75  CA       153.1450  165.2290  168.6320 C.3   334  LEU334      0.1728
     76  C        153.3630  163.7210  168.5530 C.2   334  LEU334      0.2616
     77  O        152.7620  162.9670  169.3250 O.2   334  LEU334     -0.2715
     78  CB       152.1420  165.6860  167.5750 C.3   334  LEU334      0.0311
     79  CG       150.7700  165.0150  167.6130 C.3   334  LEU334      0.0022
     80  CD1      150.0700  165.3150  168.9280 C.3   334  LEU334      0.0001
     81  CD2      149.9230  165.4740  166.4380 C.3   334  LEU334      0.0001
     82  N        154.2140  163.2660  167.6330 N.am  335  LEU335     -0.1977
     83  CA       154.4430  161.8330  167.4800 C.3   335  LEU335      0.1596
     84  C        155.0070  161.2260  168.7560 C.2   335  LEU335      0.2287
     85  O        154.4420  160.2790  169.3140 O.2   335  LEU335     -0.2864
     86  CB       155.3820  161.5730  166.3030 C.3   335  LEU335      0.0297
     87  CG       154.8350  161.9280  164.9230 C.3   335  LEU335      0.0022
     88  CD1      155.9010  161.7200  163.8590 C.3   335  LEU335      0.0001
     89  CD2      153.6040  161.0940  164.6230 C.3   335  LEU335      0.0001
     90  N        163.8040  167.4400  172.7180 N.3   385  ASP385     -0.1225
     91  CA       163.3230  168.2290  171.5950 C.3   385  ASP385      0.1805
     92  C        164.2880  169.3770  171.3320 C.2   385  ASP385      0.2597
     93  O        164.8700  169.9380  172.2650 O.2   385  ASP385     -0.2718
     94  CB       161.9150  168.7620  171.8630 C.3   385  ASP385      0.1424
     95  CG       161.3130  169.4450  170.6560 C.2   385  ASP385      0.3668
     96  OD1      161.9610  169.4410  169.5880 O.co2 385  ASP385     -0.2456
     97  OD2      160.1890  169.9780  170.7690 O.co2 385  ASP385     -0.2456
     98  N        164.4470  169.7240  170.0580 N.am  386  GLU386     -0.1979
     99  CA       165.4660  170.6770  169.6270 C.3   386  GLU386      0.1602
    100  C        166.8350  170.2860  170.1750 C.2   386  GLU386      0.2287
    101  O        167.5430  171.0890  170.7870 O.2   386  GLU386     -0.2864
    102  CB       165.1100  172.1090  170.0350 C.3   386  GLU386      0.0415
    103  CG       163.8640  172.6740  169.3770 C.3   386  GLU386      0.1163
    104  CD       162.6130  172.3810  170.1700 C.2   386  GLU386      0.3649
    105  OE1      162.7250  171.7160  171.2200 O.co2 386  GLU386     -0.2457
    106  OE2      161.5220  172.8240  169.7550 O.co2 386  GLU386     -0.2457
    107  N        164.5900  167.2100  165.9440 N.3   429  THR429     -0.1203
    108  CA       165.1530  168.5360  165.7290 C.3   429  THR429      0.1994
    109  C        164.9390  168.9370  164.2780 C.2   429  THR429      0.2617
    110  O        164.7360  168.0920  163.4020 O.2   429  THR429     -0.2717
    111  CB       166.6380  168.5770  166.0990 C.3   429  THR429      0.1784
    112  OG1      166.7800  168.3060  167.4990 O.3   429  THR429     -0.2211
    113  CG2      167.2350  169.9390  165.7950 C.3   429  THR429      0.0376
    114  N        164.9940  170.2480  164.0360 N.am  430  ASN430     -0.1974
    115  CA       164.7690  170.7710  162.6930 C.3   430  ASN430      0.1688
    116  C        165.8730  170.3350  161.7390 C.2   430  ASN430      0.2292
    117  O        165.6050  169.7410  160.6890 O.2   430  ASN430     -0.2864
    118  CB       164.6650  172.2960  162.7420 C.3   430  ASN430      0.1181
    119  CG       163.4840  172.7700  163.5630 C.2   430  ASN430      0.2629
    120  OD1      163.6220  173.6320  164.4310 O.2   430  ASN430     -0.2716
    121  ND2      162.3140  172.2080  163.2920 N.am  430  ASN430     -0.0877
    122  N        144.5320  164.1370  157.7780 N.3   462  ILE462     -0.1245
    123  CA       145.0710  165.1140  158.7200 C.3   462  ILE462      0.1561
    124  C        144.0180  166.1440  159.0960 C.2   462  ILE462      0.2260
    125  O        143.9890  166.6290  160.2340 O.2   462  ILE462     -0.2867
    126  CB       146.3200  165.7940  158.1290 C.3   462  ILE462      0.0252
    127  CG1      147.0460  166.5980  159.2050 C.3   462  ILE462      0.0019
    128  CG2      145.9340  166.7200  156.9950 C.3   462  ILE462      0.0019
    129  CD1      147.6370  165.7460  160.2880 C.3   462  ILE462      0.0001
    130  N        140.8120  164.7410  161.5750 N.3   465  VAL465     -0.1231
    131  CA       141.2190  164.4860  162.9530 C.3   465  VAL465      0.1692
    132  C        141.3090  165.7800  163.7470 C.2   465  VAL465      0.2592
    133  O        140.9450  165.8170  164.9290 O.2   465  VAL465     -0.2718
    134  CB       142.5550  163.7210  162.9810 C.3   465  VAL465      0.0266
    135  CG1      143.0710  163.6190  164.4060 C.3   465  VAL465      0.0020
    136  CG2      142.3830  162.3360  162.3710 C.3   465  VAL465      0.0020
    137  N        141.7920  166.8520  163.1260 N.am  466  HIS466     -0.1976
    138  CA       141.9670  168.0980  163.8600 C.3   466  HIS466      0.1656
    139  C        140.6520  168.8510  164.0270 C.2   466  HIS466      0.2291
    140  O        140.4130  169.4550  165.0790 O.2   466  HIS466     -0.2864
    141  CB       142.9970  168.9780  163.1610 C.3   466  HIS466      0.0771
    142  CG       143.3070  170.2370  163.9030 C.ar  466  HIS466      0.0820
    143  ND1      142.5460  171.3780  163.7810 N.ar  466  HIS466     -0.2267
    144  CD2      144.2760  170.5250  164.8030 C.ar  466  HIS466      0.1154
    145  CE1      143.0460  172.3230  164.5570 C.ar  466  HIS466      0.1986
    146  NE2      144.0950  171.8300  165.1900 N.ar  466  HIS466     -0.2212
    147  N        151.6110  169.9840  158.5150 N.3   490  GLY490     -0.1210
    148  CA       150.5610  169.8700  159.5050 C.3   490  GLY490      0.1956
    149  C        150.4770  171.1010  160.3820 C.2   490  GLY490      0.2611
    150  O        149.3860  171.5300  160.7680 O.2   490  GLY490     -0.2717
    151  N        151.6330  171.6900  160.6960 N.am  491  ALA491     -0.1979
    152  CA       151.6590  172.8340  161.6000 C.3   491  ALA491      0.1597
    153  C        150.9860  174.0490  160.9730 C.2   491  ALA491      0.2287
    154  O        150.2380  174.7720  161.6400 O.2   491  ALA491     -0.2864
    155  CB       153.0980  173.1620  161.9950 C.3   491  ALA491      0.0319
    156  N        148.7140  174.0110  158.3890 N.3   493  LEU493     -0.1231
    157  CA       147.2930  173.6920  158.3280 C.3   493  LEU493      0.1693
    158  C        146.6560  173.7810  159.7060 C.2   493  LEU493      0.2591
    159  O        145.4630  174.0840  159.8210 O.2   493  LEU493     -0.2718
    160  CB       147.0790  172.3020  157.7270 C.3   493  LEU493      0.0284
    161  CG       147.6470  171.0920  158.4700 C.3   493  LEU493      0.0019
    162  CD1      146.7740  170.7240  159.6580 C.3   493  LEU493      0.0001
    163  CD2      147.7730  169.9080  157.5270 C.3   493  LEU493      0.0001
    164  N        147.4320  173.5140  160.7580 N.am  494  GLU494     -0.1979
    165  CA       146.9700  173.7760  162.1150 C.3   494  GLU494      0.1602
    166  C        146.3660  175.1700  162.2060 C.2   494  GLU494      0.2287
    167  O        145.1690  175.3360  162.4640 O.2   494  GLU494     -0.2864
    168  CB       148.1350  173.6270  163.0950 C.3   494  GLU494      0.0415
    169  CG       147.7640  173.8180  164.5550 C.3   494  GLU494      0.1163
    170  CD       146.8920  172.7010  165.0740 C.2   494  GLU494      0.3649
    171  OE1      146.8020  171.6620  164.3890 O.co2 494  GLU494     -0.2457
    172  OE2      146.2980  172.8600  166.1610 O.co2 494  GLU494     -0.2457
@<TRIPOS>BOND
     1    34    33    1
     2    34    35    1
     3    33    30    1
     4   128   126    1
     5    35    29    1
     6   163   161    1
     7   160   157    1
     8   160   161    1
     9   122   123    1
    10    21    22    1
    11   126   123    1
    12   126   127    1
    13    30    29    1
    14    30    31    1
    15   157   156    1
    16   157   158    1
    17    27    26    1
    18    22    23    1
    19    22    25    1
    20   161   162    1
    21   147   148    1
    22   123   124    1
    23    23    24    2
    24    52    51    1
    25    26    25    1
    26    26    28    1
    27   124   125    2
    28   127   129    1
    29    42    36    1
    30    42    41    1
    31    31    36   am
    32    31    32    2
    33   148   149    1
    34    19    20    2
    35    19    18    1
    36   158   159    2
    37   158   164   am
    38    36    37    1
    39    39    38    2
    40    51    48    1
    41    51    53    1
    42   149   151   am
    43   149   150    2
    44    18    17    1
    45    41    40    1
    46   117   116    2
    47   151   152    1
    48   164   165    1
    49    48    47    1
    50    48    49    1
    51    38    37    1
    52    38    43   am
    53   153   152    1
    54   153   154    2
    55    37    40    1
    56    47    45   am
    57    46    45    2
    58    45    44    1
    59   130   131    1
    60   152   155    1
    61    50    49    2
    62   116   115    1
    63    17    11   am
    64    44    43    1
    65    49    54   am
    66   165   166    1
    67   165   168    1
    68   166   167    2
    69   136   134    1
    70    12    11    2
    71   115   118    1
    72   115   114    1
    73   118   119    1
    74    11    10    1
    75    66    65    1
    76    65    64    1
    77   131   134    1
    78   131   132    1
    79   134   135    1
    80   168   169    1
    81   137   132   am
    82   137   138    1
    83    54    55    1
    84   141   138    1
    85   141   142    1
    86   121   119   am
    87   110   109    2
    88   119   120    2
    89    15    13    1
    90   132   133    2
    91   143   142   ar
    92   143   145   ar
    93    88    87    1
    94   138   139    1
    95   142   144   ar
    96   139   140    2
    97   114   109   am
    98    10    13    1
    99    10     9    1
   100   109   108    1
   101    55    56    1
   102    64    63    1
   103   171   170   ar
   104    63    62    1
   105   169   170    1
   106   145   146   ar
   107    13    14    1
   108    89    87    1
   109   144   146   ar
   110    87    86    1
   111   170   172   ar
   112    58    56   am
   113    58    59    1
   114     9     3   am
   115    56    57    2
   116     4     3    2
   117     3     2    1
   118   108   107    1
   119   108   111    1
   120    62    59    1
   121   113   111    1
   122    59    60    1
   123    14    16    1
   124   111   112    1
   125    86    83    1
   126    81    79    1
   127     2     1    1
   128     2     5    1
   129    60    67   am
   130    60    61    2
   131    83    82    1
   132    83    84    1
   133    78    79    1
   134    78    75    1
   135    79    80    1
   136    82    76   am
   137    67    68    1
   138     5     6    1
   139     7     6   ar
   140    74    75    1
   141    74    69   am
   142    76    75    1
   143    76    77    2
   144    72    71    1
   145    84    85    2
   146     6     8   ar
   147    68    69    1
   148    68    71    1
   149   103   102    1
   150   103   104    1
   151    73    71    1
   152    69    70    2
   153    96    95   ar
   154    99   102    1
   155    99    98    1
   156    99   100    1
   157   106   104   ar
   158    98    92   am
   159   104   105   ar
   160   100   101    2
   161    95    97   ar
   162    95    94    1
   163    92    91    1
   164    92    93    2
   165    91    94    1
   166    91    90    1
