@<TRIPOS>MOLECULE
tmp/5vc7F00.pdb
 127 120 0 0 0
SMALL
GASTEIGER

@<TRIPOS>ATOM
      1  N        146.5280  159.6080  206.2310 N.3     9  ASP9       -0.1225
      2  CA       146.9450  160.9630  205.8980 C.3     9  ASP9        0.1805
      3  C        147.8170  160.9720  204.6510 C.2     9  ASP9        0.2598
      4  O        147.4970  161.6450  203.6660 O.2     9  ASP9       -0.2718
      5  CB       147.6930  161.5980  207.0720 C.3     9  ASP9        0.1424
      6  CG       146.7550  162.1010  208.1600 C.2     9  ASP9        0.3668
      7  OD1      145.7210  162.7170  207.8160 O.co2   9  ASP9       -0.2456
      8  OD2      147.0600  161.8670  209.3490 O.co2   9  ASP9       -0.2456
      9  N        148.9050  160.2160  204.6660 N.am   10  ILE10      -0.1966
     10  CA       149.7850  160.1240  203.5070 C.3    10  ILE10       0.1727
     11  C        149.0350  159.4860  202.3480 C.2    10  ILE10       0.2616
     12  O        148.1290  158.6650  202.5370 O.2    10  ILE10      -0.2715
     13  CB       151.0580  159.3300  203.8540 C.3    10  ILE10       0.0290
     14  CG1      151.8750  160.0650  204.9140 C.3    10  ILE10       0.0022
     15  CG2      151.8970  159.0960  202.6110 C.3    10  ILE10       0.0023
     16  CD1      153.0170  159.2500  205.4680 C.3    10  ILE10       0.0001
     17  N        149.4160  159.8660  201.1320 N.am   11  GLY11      -0.1955
     18  CA       148.8530  159.2630  199.9400 C.3    11  GLY11       0.1869
     19  C        149.8290  159.3630  198.7880 C.2    11  GLY11       0.2309
     20  O        150.6920  160.2450  198.7510 O.2    11  GLY11      -0.2863
     21  N        152.3280  157.7580  198.2860 N.3    13  LEU13      -0.1245
     22  CA       153.6360  157.2820  198.7070 C.3    13  LEU13       0.1561
     23  C        153.6610  155.7790  198.9430 C.2    13  LEU13       0.2260
     24  O        154.6560  155.2590  199.4600 O.2    13  LEU13      -0.2867
     25  CB       154.0880  158.0250  199.9650 C.3    13  LEU13       0.0270
     26  CG       154.7300  159.3860  199.6920 C.3    13  LEU13       0.0019
     27  CD1      153.7130  160.3490  199.0940 C.3    13  LEU13       0.0001
     28  CD2      155.3440  159.9610  200.9580 C.3    13  LEU13       0.0001
     29  N        161.1250  170.0570  198.5330 N.3    51  PRO51      -0.2102
     30  CA       160.4690  170.5880  199.7390 C.3    51  PRO51       0.1504
     31  C        158.9590  170.5560  199.6550 C.2    51  PRO51       0.2576
     32  O        158.4030  170.5670  198.5690 O.2    51  PRO51      -0.2718
     33  CB       160.9380  172.0460  199.8010 C.3    51  PRO51       0.0282
     34  CG       162.2100  172.0790  199.0500 C.3    51  PRO51       0.0208
     35  CD       161.8970  171.2080  197.8860 C.3    51  PRO51       0.0893
     36  N        158.3050  170.5010  200.8060 N.am   52  GLY52      -0.1943
     37  CA       156.8590  170.4620  200.8480 C.3    52  GLY52       0.2014
     38  C        156.2450  169.2570  200.1680 C.2    52  GLY52       0.2640
     39  O        155.2150  169.3470  199.5050 O.2    52  GLY52      -0.2714
     40  N        156.8950  168.1190  200.3390 N.am   53  THR53      -0.1936
     41  CA       156.4330  166.8580  199.7790 C.3    53  THR53       0.2028
     42  C        155.8220  165.9350  200.8210 C.2    53  THR53       0.2643
     43  O        155.3310  164.8600  200.4600 O.2    53  THR53      -0.2714
     44  CB       157.5850  166.1420  199.0740 C.3    53  THR53       0.1808
     45  OG1      157.0870  164.9720  198.4130 O.3    53  THR53      -0.2208
     46  CG2      158.6480  165.7390  200.0770 C.3    53  THR53       0.0379
     47  N        155.8370  166.3190  202.0930 N.am   54  GLY54      -0.1939
     48  CA       155.2740  165.5050  203.1490 C.3    54  GLY54       0.2014
     49  C        156.2700  164.7370  203.9870 C.2    54  GLY54       0.2639
     50  O        155.8490  163.9320  204.8250 O.2    54  GLY54      -0.2714
     51  N        157.5620  164.9380  203.7720 N.am   55  LYS55      -0.1963
     52  CA       158.5420  164.1400  204.4880 C.3    55  LYS55       0.1728
     53  C        158.3600  164.3170  205.9740 C.2    55  LYS55       0.2617
     54  O        158.4310  163.3550  206.7490 O.2    55  LYS55      -0.2715
     55  CB       159.9620  164.5250  204.0750 C.3    55  LYS55       0.0311
     56  CG       160.3310  164.1400  202.6530 C.3    55  LYS55       0.0038
     57  CD       161.6380  164.8030  202.2250 C.3    55  LYS55       0.0206
     58  CE       161.4150  166.2670  201.8750 C.3    55  LYS55       0.1093
     59  NZ       162.6800  167.0460  201.7270 N.3    55  LYS55      -0.1314
     60  N        158.0800  165.5430  206.3750 N.am   56  THR56      -0.1937
     61  CA       157.9080  165.8080  207.7780 C.3    56  THR56       0.2028
     62  C        156.7780  164.9370  208.2750 C.2    56  THR56       0.2642
     63  O        156.8950  164.2800  209.3060 O.2    56  THR56      -0.2714
     64  CB       157.5240  167.2830  207.9870 C.3    56  THR56       0.1808
     65  OG1      156.9900  167.8120  206.7620 O.3    56  THR56      -0.2208
     66  CG2      158.7400  168.1000  208.3820 C.3    56  THR56       0.0379
     67  N        155.6970  164.8870  207.5150 N.am   57  LEU57      -0.1977
     68  CA       154.5580  164.0910  207.9210 C.3    57  LEU57       0.1596
     69  C        154.8860  162.6180  208.0170 C.2    57  LEU57       0.2287
     70  O        154.4580  161.9370  208.9440 O.2    57  LEU57      -0.2864
     71  CB       153.4000  164.2870  206.9530 C.3    57  LEU57       0.0297
     72  CG       152.2060  163.3680  207.1920 C.3    57  LEU57       0.0022
     73  CD1      150.9530  163.9610  206.5730 C.3    57  LEU57       0.0001
     74  CD2      152.4700  161.9750  206.6470 C.3    57  LEU57       0.0001
     75  N        163.9550  167.9350  208.6220 N.3   109  GLU109     -0.1245
     76  CA       164.4080  169.1930  208.0380 C.3   109  GLU109      0.1567
     77  C        165.7630  169.5960  208.6130 C.2   109  GLU109      0.2260
     78  O        165.9420  170.6870  209.1560 O.2   109  GLU109     -0.2867
     79  CB       163.3790  170.2990  208.2800 C.3   109  GLU109      0.0388
     80  CG       162.0230  170.0640  207.5860 C.3   109  GLU109      0.1160
     81  CD       162.0380  170.3470  206.0730 C.2   109  GLU109      0.3649
     82  OE1      163.0360  170.8860  205.5330 O.co2 109  GLU109     -0.2457
     83  OE2      161.0260  170.0290  205.4180 O.co2 109  GLU109     -0.2457
     84  N        165.1940  164.6980  206.7170 N.3   150  ALA150     -0.1245
     85  CA       164.8410  165.2070  205.4020 C.3   150  ALA150      0.1562
     86  C        165.6070  166.4960  205.1430 C.2   150  ALA150      0.2260
     87  O        166.0650  167.1670  206.0690 O.2   150  ALA150     -0.2867
     88  CB       163.3310  165.4510  205.2750 C.3   150  ALA150      0.0290
     89  N        154.0020  163.7720  193.9810 N.3   176  PRO176     -0.2116
     90  CA       153.0190  162.6890  193.8940 C.3   176  PRO176      0.1372
     91  C        152.5480  162.4800  192.4650 C.2   176  PRO176      0.2244
     92  O        152.5890  163.3860  191.6290 O.2   176  PRO176     -0.2868
     93  CB       151.8770  163.1760  194.7910 C.3   176  PRO176      0.0268
     94  CG       151.9790  164.6600  194.7300 C.3   176  PRO176      0.0207
     95  CD       153.4470  164.9740  194.6230 C.3   176  PRO176      0.0892
     96  N        145.9600  163.0400  198.1840 N.3   184  ILE184     -0.1245
     97  CA       146.2160  164.2400  198.9740 C.3   184  ILE184      0.1561
     98  C        144.9850  165.1350  198.9790 C.2   184  ILE184      0.2260
     99  O        144.4320  165.4660  200.0340 O.2   184  ILE184     -0.2867
    100  CB       147.4490  164.9850  198.4370 C.3   184  ILE184      0.0252
    101  CG1      148.7010  164.1230  198.5920 C.3   184  ILE184      0.0019
    102  CG2      147.6200  166.3170  199.1480 C.3   184  ILE184      0.0019
    103  CD1      149.0690  163.3640  197.3380 C.3   184  ILE184      0.0001
    104  N        141.9630  165.6770  202.4940 N.3   188  HIS188     -0.1241
    105  CA       141.5950  166.9740  203.0460 C.3   188  HIS188      0.1621
    106  C        140.1330  167.3100  202.7940 C.2   188  HIS188      0.2264
    107  O        139.5700  168.1500  203.5040 O.2   188  HIS188     -0.2867
    108  CB       142.4940  168.0650  202.4660 C.3   188  HIS188      0.0745
    109  CG       143.9260  167.9450  202.8810 C.ar  188  HIS188      0.0817
    110  ND1      144.8130  167.0930  202.2580 N.ar  188  HIS188     -0.2268
    111  CD2      144.6250  168.5660  203.8590 C.ar  188  HIS188      0.1154
    112  CE1      145.9970  167.1990  202.8330 C.ar  188  HIS188      0.1986
    113  NE2      145.9110  168.0850  203.8070 N.ar  188  HIS188     -0.2212
    114  N        152.9060  168.3380  197.4150 N.3   217  GLY217     -0.1210
    115  CA       151.8150  168.0080  198.3160 C.3   217  GLY217      0.1956
    116  C        151.4260  169.1720  199.2060 C.2   217  GLY217      0.2611
    117  O        150.2460  169.5080  199.3310 O.2   217  GLY217     -0.2717
    118  N        152.4160  169.8050  199.8350 N.am  218  ALA218     -0.1979
    119  CA       152.1400  170.9100  200.7470 C.3   218  ALA218      0.1597
    120  C        151.2810  171.9750  200.0760 C.2   218  ALA218      0.2287
    121  O        150.2110  172.3370  200.5760 O.2   218  ALA218     -0.2864
    122  CB       153.4530  171.5100  201.2510 C.3   218  ALA218      0.0319
    123  N        147.7630  170.7550  199.5770 N.3   221  ALA221     -0.1245
    124  CA       147.0200  170.9300  200.8180 C.3   221  ALA221      0.1562
    125  C        146.7110  172.3970  201.0690 C.2   221  ALA221      0.2260
    126  O        145.7260  172.7190  201.7400 O.2   221  ALA221     -0.2867
    127  CB       147.8010  170.3390  201.9910 C.3   221  ALA221      0.0290
@<TRIPOS>BOND
     1    92    91    2
     2    91    90    1
     3    90    89    1
     4    90    93    1
     5    89    95    1
     6    95    94    1
     7    94    93    1
     8   103   101    1
     9   114   115    1
    10    35    29    1
    11    35    34    1
    12    96    97    1
    13    21    22    1
    14   115   116    1
    15    45    44    1
    16   100   101    1
    17   100    97    1
    18   100   102    1
    19    29    30    1
    20    32    31    2
    21    22    23    1
    22    22    25    1
    23    20    19    2
    24    19    18    1
    25    23    24    2
    26    97    98    1
    27    98    99    2
    28    34    33    1
    29    44    41    1
    30    44    46    1
    31    27    26    1
    32   116   117    2
    33   116   118   am
    34    39    38    2
    35   123   124    1
    36    31    30    1
    37    31    36   am
    38    26    25    1
    39    26    28    1
    40    30    33    1
    41    41    40    1
    42    41    42    1
    43   118   119    1
    44    18    17    1
    45   120   121    2
    46   120   119    1
    47    38    40   am
    48    38    37    1
    49    43    42    2
    50   119   122    1
    51    36    37    1
    52   124   125    1
    53   124   127    1
    54    42    47   am
    55   125   126    2
    56    17    11   am
    57    59    58    1
    58    58    57    1
    59    47    48    1
    60    57    56    1
    61   110   112   ar
    62   110   109   ar
    63    11    12    2
    64    11    10    1
    65   108   109    1
    66   108   105    1
    67   104   105    1
    68    15    13    1
    69    56    55    1
    70   106   105    1
    71   106   107    2
    72   112   113   ar
    73   109   111   ar
    74    48    49    1
    75    10    13    1
    76    10     9    1
    77     4     3    2
    78    51    49   am
    79    51    52    1
    80   113   111   ar
    81    13    14    1
    82    49    50    2
    83    55    52    1
    84    52    53    1
    85     3     9   am
    86     3     2    1
    87    14    16    1
    88    86    85    1
    89    86    87    2
    90    88    85    1
    91    85    84    1
    92    83    81   ar
    93    82    81   ar
    94     2     1    1
    95     2     5    1
    96    53    60   am
    97    53    54    2
    98    81    80    1
    99    60    61    1
   100    73    72    1
   101    74    72    1
   102    65    64    1
   103    71    72    1
   104    71    68    1
   105     5     6    1
   106    67    68    1
   107    67    62   am
   108    80    79    1
   109    61    64    1
   110    61    62    1
   111     7     6   ar
   112    68    69    1
   113    64    66    1
   114    69    70    2
   115    76    79    1
   116    76    77    1
   117    76    75    1
   118     6     8   ar
   119    62    63    2
   120    77    78    2
