@<TRIPOS>MOLECULE
tmp/5vcjA00.pdb
 240 228 0 0 0
SMALL
GASTEIGER

@<TRIPOS>ATOM
      1  N        -51.9700  -22.6250   28.1430 N.3    63  MET63      -0.1245
      2  CA       -52.2420  -22.7610   26.7100 C.3    63  MET63       0.1570
      3  C        -50.9980  -23.2340   25.9570 C.2    63  MET63       0.2261
      4  O        -51.0910  -24.1130   25.0980 O.2    63  MET63      -0.2867
      5  CB       -52.7330  -21.4270   26.1340 C.3    63  MET63       0.0387
      6  CG       -53.0030  -21.4070   24.6330 C.3    63  MET63       0.0595
      7  SD       -53.3050  -19.7290   24.0450 S.3    63  MET63      -0.1393
      8  CE       -54.7830  -19.2670   24.9640 C.3    63  MET63       0.0692
      9  N        -49.9400  -26.9690   26.8260 N.3    66  VAL66      -0.1231
     10  CA       -50.8070  -27.9130   26.1050 C.3    66  VAL66       0.1692
     11  C        -50.4960  -27.9200   24.6030 C.2    66  VAL66       0.2592
     12  O        -50.4610  -28.9770   23.9830 O.2    66  VAL66      -0.2718
     13  CB       -52.3060  -27.5960   26.3480 C.3    66  VAL66       0.0266
     14  CG1      -53.2090  -28.4880   25.5080 C.3    66  VAL66       0.0020
     15  CG2      -52.6570  -27.7630   27.8230 C.3    66  VAL66       0.0020
     16  N        -50.2960  -26.7390   24.0250 N.am   67  TYR67      -0.1976
     17  CA       -49.8220  -26.6110   22.6370 C.3    67  TYR67       0.1639
     18  C        -48.5430  -27.4200   22.3730 C.2    67  TYR67       0.2290
     19  O        -48.4610  -28.1280   21.3740 O.2    67  TYR67      -0.2864
     20  CB       -49.6090  -25.1250   22.2620 C.3    67  TYR67       0.0560
     21  CG       -48.6410  -24.8940   21.1150 C.ar   67  TYR67      -0.0198
     22  CD1      -49.0530  -25.0320   19.7900 C.ar   67  TYR67      -0.0009
     23  CD2      -47.3080  -24.5460   21.3580 C.ar   67  TYR67      -0.0009
     24  CE1      -48.1660  -24.8330   18.7420 C.ar   67  TYR67       0.0417
     25  CE2      -46.4140  -24.3430   20.3140 C.ar   67  TYR67       0.0417
     26  CZ       -46.8490  -24.4870   19.0110 C.ar   67  TYR67       0.1957
     27  OH       -45.9760  -24.2930   17.9700 O.3    67  TYR67      -0.2866
     28  N        -49.2410  -31.0940   22.1150 N.3    70  SER70      -0.1202
     29  CA       -50.0840  -31.2620   20.9340 C.3    70  SER70       0.2020
     30  C        -49.3250  -31.0380   19.6320 C.2    70  SER70       0.2618
     31  O        -49.5420  -31.7550   18.6540 O.2    70  SER70      -0.2717
     32  CB       -51.2650  -30.2960   20.9810 C.3    70  SER70       0.2103
     33  OG       -52.0190  -30.4510   22.1650 O.3    70  SER70      -0.2182
     34  N        -48.4520  -30.0350   19.6190 N.am   71  PHE71      -0.1975
     35  CA       -47.6110  -29.7490   18.4590 C.3    71  PHE71       0.1639
     36  C        -46.7730  -30.9610   18.0760 C.2    71  PHE71       0.2290
     37  O        -46.7120  -31.3180   16.9120 O.2    71  PHE71      -0.2864
     38  CB       -46.6990  -28.5460   18.7260 C.3    71  PHE71       0.0560
     39  CG       -45.7080  -28.2770   17.6220 C.ar   71  PHE71      -0.0200
     40  CD1      -46.1010  -27.6140   16.4580 C.ar   71  PHE71      -0.0042
     41  CD2      -44.3780  -28.6910   17.7420 C.ar   71  PHE71      -0.0042
     42  CE1      -45.1910  -27.3670   15.4390 C.ar   71  PHE71      -0.0003
     43  CE2      -43.4670  -28.4530   16.7240 C.ar   71  PHE71      -0.0003
     44  CZ       -43.8730  -27.7880   15.5720 C.ar   71  PHE71      -0.0000
     45  N        -48.8920  -34.0030   16.5490 N.3    74  ASP74      -0.1225
     46  CA       -49.4140  -33.6100   15.2310 C.3    74  ASP74       0.1805
     47  C        -48.3690  -33.6830   14.1190 C.2    74  ASP74       0.2597
     48  O        -48.6610  -34.2120   13.0490 O.2    74  ASP74      -0.2718
     49  CB       -50.0540  -32.2070   15.2820 C.3    74  ASP74       0.1424
     50  CG       -51.4760  -32.2180   15.8710 C.2    74  ASP74       0.3668
     51  OD1      -51.9270  -33.2750   16.3950 O.co2  74  ASP74      -0.2456
     52  OD2      -52.1540  -31.1620   15.8010 O.co2  74  ASP74      -0.2456
     53  N        -47.1610  -33.1810   14.3780 N.am   75  ILE75      -0.1980
     54  CA       -46.0530  -33.3000   13.4220 C.3    75  ILE75       0.1595
     55  C        -45.7730  -34.7750   13.1580 C.2    75  ILE75       0.2287
     56  O        -45.7300  -35.1990   12.0060 O.2    75  ILE75      -0.2864
     57  CB       -44.7590  -32.6070   13.9160 C.3    75  ILE75       0.0276
     58  CG1      -44.9550  -31.0940   14.0380 C.3    75  ILE75       0.0022
     59  CG2      -43.5870  -32.8950   12.9840 C.3    75  ILE75       0.0022
     60  CD1      -45.5230  -30.4220   12.8040 C.3    75  ILE75       0.0001
     61  N        -48.4620  -36.0820   11.0140 N.3    78  LEU78      -0.1231
     62  CA       -48.3170  -35.5910    9.6390 C.3    78  LEU78       0.1693
     63  C        -47.2030  -36.3170    8.8600 C.2    78  LEU78       0.2591
     64  O        -47.3150  -36.4680    7.6480 O.2    78  LEU78      -0.2718
     65  CB       -48.0940  -34.0760    9.6240 C.3    78  LEU78       0.0284
     66  CG       -49.3110  -33.2580   10.0820 C.3    78  LEU78       0.0019
     67  CD1      -48.9090  -31.8410   10.4730 C.3    78  LEU78       0.0001
     68  CD2      -50.3980  -33.2410    9.0220 C.3    78  LEU78       0.0001
     69  N        -46.1600  -36.7850    9.5470 N.am   79  VAL79      -0.1980
     70  CA       -45.1110  -37.5880    8.9030 C.3    79  VAL79       0.1595
     71  C        -45.6690  -38.9440    8.4530 C.2    79  VAL79       0.2287
     72  O        -45.3060  -39.4290    7.3900 O.2    79  VAL79      -0.2864
     73  CB       -43.8660  -37.7710    9.8100 C.3    79  VAL79       0.0276
     74  CG1      -42.8280  -38.6860    9.1580 C.3    79  VAL79       0.0022
     75  CG2      -43.2310  -36.4220   10.1200 C.3    79  VAL79       0.0022
     76  N        -47.9240  -38.3440    5.2780 N.3    82  MET82      -0.1245
     77  CA       -47.1660  -38.1170    4.0510 C.3    82  MET82       0.1570
     78  C        -46.2680  -39.2840    3.6470 C.2    82  MET82       0.2261
     79  O        -46.0570  -39.4800    2.4510 O.2    82  MET82      -0.2867
     80  CB       -46.3220  -36.8460    4.1630 C.3    82  MET82       0.0387
     81  CG       -47.1220  -35.5710    4.3890 C.3    82  MET82       0.0595
     82  SD       -48.3770  -35.2090    3.1370 S.3    82  MET82      -0.1393
     83  CE       -49.8080  -36.0640    3.7830 C.3    82  MET82       0.0692
     84  N        -41.9910  -38.1210    3.0000 N.3    86  GLU86      -0.1245
     85  CA       -41.0710  -37.5350    3.9680 C.3    86  GLU86       0.1567
     86  C        -40.8500  -38.4850    5.1310 C.2    86  GLU86       0.2260
     87  O        -41.7260  -39.2930    5.4590 O.2    86  GLU86      -0.2867
     88  CB       -41.6140  -36.2040    4.4850 C.3    86  GLU86       0.0388
     89  CG       -41.9070  -35.1800    3.3950 C.3    86  GLU86       0.1160
     90  CD       -40.6750  -34.7730    2.6000 C.2    86  GLU86       0.3649
     91  OE1      -39.6490  -34.4320    3.2250 O.co2  86  GLU86      -0.2457
     92  OE2      -40.7330  -34.7820    1.3480 O.co2  86  GLU86      -0.2457
     93  N        -36.4090  -34.5490   11.0230 N.3    90  ILE90      -0.1245
     94  CA       -37.1780  -33.3860   10.5760 C.3    90  ILE90       0.1561
     95  C        -36.9220  -32.2290   11.5350 C.2    90  ILE90       0.2260
     96  O        -36.8560  -32.4210   12.7510 O.2    90  ILE90      -0.2867
     97  CB       -38.6900  -33.7110   10.4760 C.3    90  ILE90       0.0252
     98  CG1      -38.9500  -34.5540    9.2230 C.3    90  ILE90       0.0019
     99  CG2      -39.5460  -32.4430   10.4280 C.3    90  ILE90       0.0019
    100  CD1      -40.2750  -35.2840    9.2180 C.3    90  ILE90       0.0001
    101  N        -38.4420  -28.5270   12.2720 N.3    92  ILE92      -0.1245
    102  CA       -39.4550  -27.4890   12.1280 C.3    92  ILE92       0.1561
    103  C        -39.0920  -26.2970   13.0120 C.2    92  ILE92       0.2260
    104  O        -38.6600  -26.4780   14.1510 O.2    92  ILE92      -0.2867
    105  CB       -40.8600  -28.0390   12.4420 C.3    92  ILE92       0.0252
    106  CG1      -41.2500  -29.0320   11.3460 C.3    92  ILE92       0.0019
    107  CG2      -41.8900  -26.9160   12.5060 C.3    92  ILE92       0.0019
    108  CD1      -42.5270  -29.7920   11.6010 C.3    92  ILE92       0.0001
    109  N        -40.6230  -22.2970   14.0780 N.3    94  LEU94      -0.1245
    110  CA       -41.6330  -21.2340   14.0390 C.3    94  LEU94       0.1561
    111  C        -41.0190  -19.8930   14.3840 C.2    94  LEU94       0.2260
    112  O        -40.1050  -19.8270   15.1930 O.2    94  LEU94      -0.2867
    113  CB       -42.7610  -21.5050   15.0310 C.3    94  LEU94       0.0270
    114  CG       -44.0090  -22.1650   14.4640 C.3    94  LEU94       0.0019
    115  CD1      -43.7550  -23.6420   14.1950 C.3    94  LEU94       0.0001
    116  CD2      -45.1820  -21.9880   15.4200 C.3    94  LEU94       0.0001
    117  N        -43.4800  -20.3740    9.5000 N.3   112  VAL112     -0.1245
    118  CA       -43.0390  -21.7180    9.8130 C.3   112  VAL112      0.1561
    119  C        -42.0360  -22.1440    8.7600 C.2   112  VAL112      0.2260
    120  O        -42.2270  -21.8540    7.5750 O.2   112  VAL112     -0.2867
    121  CB       -44.2160  -22.7030    9.7920 C.3   112  VAL112      0.0252
    122  CG1      -43.7520  -24.0830   10.2470 C.3   112  VAL112      0.0019
    123  CG2      -45.3650  -22.1780   10.6490 C.3   112  VAL112      0.0019
    124  N        -39.5580  -25.4700    7.2830 N.3   114  PHE114     -0.1241
    125  CA       -39.3660  -26.9150    7.2160 C.3   114  PHE114      0.1605
    126  C        -37.9660  -27.2100    6.6650 C.2   114  PHE114      0.2264
    127  O        -37.6460  -26.8480    5.5310 O.2   114  PHE114     -0.2867
    128  CB       -40.4420  -27.5220    6.3170 C.3   114  PHE114      0.0534
    129  CG       -40.4940  -29.0180    6.3590 C.ar  114  PHE114     -0.0203
    130  CD1      -41.0560  -29.6730    7.4500 C.ar  114  PHE114     -0.0042
    131  CD2      -39.9910  -29.7780    5.3090 C.ar  114  PHE114     -0.0042
    132  CE1      -41.1090  -31.0590    7.4990 C.ar  114  PHE114     -0.0003
    133  CE2      -40.0430  -31.1660    5.3510 C.ar  114  PHE114     -0.0003
    134  CZ       -40.6010  -31.8080    6.4470 C.ar  114  PHE114     -0.0000
    135  N        -41.7930  -22.1780    4.4980 N.3   119  VAL119     -0.1231
    136  CA       -42.8110  -22.8490    3.6670 C.3   119  VAL119      0.1692
    137  C        -44.2690  -22.5100    3.9750 C.2   119  VAL119      0.2591
    138  O        -45.1080  -22.6360    3.0930 O.2   119  VAL119     -0.2718
    139  CB       -42.6550  -24.3910    3.6870 C.3   119  VAL119      0.0266
    140  CG1      -41.4330  -24.8090    2.8880 C.3   119  VAL119      0.0020
    141  CG2      -42.5910  -24.9440    5.1070 C.3   119  VAL119      0.0020
    142  N        -44.5790  -22.1040    5.2050 N.am  120  VAL120     -0.1980
    143  CA       -45.9650  -21.9230    5.6440 C.3   120  VAL120      0.1595
    144  C        -46.0660  -20.7160    6.5680 C.2   120  VAL120      0.2287
    145  O        -45.1140  -20.3880    7.2790 O.2   120  VAL120     -0.2864
    146  CB       -46.4770  -23.1950    6.3700 C.3   120  VAL120      0.0276
    147  CG1      -47.8200  -22.9660    7.0620 C.3   120  VAL120      0.0022
    148  CG2      -46.5830  -24.3510    5.3850 C.3   120  VAL120      0.0022
    149  N        -54.0280  -21.2160    7.6130 N.3   127  TRP127     -0.1241
    150  CA       -52.6800  -21.5660    7.2370 C.3   127  TRP127      0.1605
    151  C        -52.6370  -21.6340    5.7180 C.2   127  TRP127      0.2264
    152  O        -53.5690  -22.1320    5.0810 O.2   127  TRP127     -0.2867
    153  CB       -52.3070  -22.9230    7.8190 C.3   127  TRP127      0.0550
    154  CG       -52.4330  -22.9940    9.2930 C.ar  127  TRP127      0.0003
    155  CD1      -53.5110  -23.4290   10.0030 C.ar  127  TRP127      0.0946
    156  CD2      -51.4380  -22.6220   10.2500 C.ar  127  TRP127      0.0152
    157  NE1      -53.2490  -23.3530   11.3510 N.ar  127  TRP127     -0.2442
    158  CE2      -51.9820  -22.8620   11.5300 C.ar  127  TRP127      0.0810
    159  CE3      -50.1380  -22.1020   10.1500 C.ar  127  TRP127      0.0012
    160  CZ2      -51.2740  -22.5980   12.7040 C.ar  127  TRP127      0.0191
    161  CZ3      -49.4300  -21.8440   11.3170 C.ar  127  TRP127      0.0001
    162  CH2      -50.0020  -22.0900   12.5770 C.ar  127  TRP127      0.0015
    163  N        -46.6980  -30.9200   -1.8560 N.3   136  TRP136     -0.1227
    164  CA       -47.1900  -31.9740   -0.9360 C.3   136  TRP136      0.1737
    165  C        -47.7250  -31.4360    0.3830 C.2   136  TRP136      0.2595
    166  O        -48.5780  -32.0730    0.9940 O.2   136  TRP136     -0.2718
    167  CB       -46.1370  -33.0660   -0.6600 C.3   136  TRP136      0.0564
    168  CG       -44.8870  -32.6140    0.0510 C.ar  136  TRP136      0.0003
    169  CD1      -43.6890  -32.3270   -0.5280 C.ar  136  TRP136      0.0946
    170  CD2      -44.7060  -32.4240    1.4620 C.ar  136  TRP136      0.0152
    171  NE1      -42.7750  -31.9590    0.4260 N.ar  136  TRP136     -0.2442
    172  CE2      -43.3720  -32.0070    1.6570 C.ar  136  TRP136      0.0810
    173  CE3      -45.5420  -32.5550    2.5810 C.ar  136  TRP136      0.0012
    174  CZ2      -42.8520  -31.7190    2.9260 C.ar  136  TRP136      0.0191
    175  CZ3      -45.0250  -32.2730    3.8420 C.ar  136  TRP136      0.0001
    176  CH2      -43.6910  -31.8590    4.0020 C.ar  136  TRP136      0.0015
    177  N        -47.2150  -30.2810    0.8210 N.am  137  LEU137     -0.1980
    178  CA       -47.7350  -29.5820    2.0050 C.3   137  LEU137      0.1596
    179  C        -49.2190  -29.2540    1.9320 C.2   137  LEU137      0.2287
    180  O        -49.8350  -29.0480    2.9680 O.2   137  LEU137     -0.2864
    181  CB       -46.9730  -28.2790    2.2570 C.3   137  LEU137      0.0297
    182  CG       -45.5200  -28.3990    2.7200 C.3   137  LEU137      0.0022
    183  CD1      -44.8250  -27.0540    2.6070 C.3   137  LEU137      0.0001
    184  CD2      -45.4270  -28.9120    4.1500 C.3   137  LEU137      0.0001
    185  N        -51.2120  -31.5190    4.5250 N.3   140  PRO140     -0.2102
    186  CA       -51.0020  -30.9330    5.8520 C.3   140  PRO140      0.1504
    187  C        -51.7280  -29.6100    6.1030 C.2   140  PRO140      0.2575
    188  O        -52.3560  -29.4420    7.1500 O.2   140  PRO140     -0.2718
    189  CB       -49.4900  -30.7210    5.8820 C.3   140  PRO140      0.0282
    190  CG       -48.9590  -31.8710    5.0940 C.3   140  PRO140      0.0208
    191  CD       -50.0300  -32.2940    4.1170 C.3   140  PRO140      0.0893
    192  N        -51.6380  -28.6940    5.1410 N.am  141  ILE141     -0.1980
    193  CA       -52.3860  -27.4340    5.1760 C.3   141  ILE141      0.1595
    194  C        -53.8880  -27.6910    5.2560 C.2   141  ILE141      0.2287
    195  O        -54.5590  -27.1030    6.1030 O.2   141  ILE141     -0.2864
    196  CB       -52.0620  -26.5410    3.9490 C.3   141  ILE141      0.0276
    197  CG1      -50.6360  -25.9740    4.0580 C.3   141  ILE141      0.0022
    198  CG2      -53.0760  -25.4080    3.7850 C.3   141  ILE141      0.0022
    199  CD1      -50.3590  -25.1010    5.2700 C.3   141  ILE141      0.0001
    200  N        -54.7030  -29.0300    8.8460 N.3   144  LEU144     -0.1245
    201  CA       -54.5760  -27.9510    9.8430 C.3   144  LEU144      0.1561
    202  C        -55.7120  -26.9230    9.7750 C.2   144  LEU144      0.2260
    203  O        -56.1250  -26.3940   10.8070 O.2   144  LEU144     -0.2867
    204  CB       -53.2350  -27.2180    9.6890 C.3   144  LEU144      0.0270
    205  CG       -51.9760  -28.0000   10.0720 C.3   144  LEU144      0.0019
    206  CD1      -50.7460  -27.3450    9.4660 C.3   144  LEU144      0.0001
    207  CD2      -51.8360  -28.1280   11.5780 C.3   144  LEU144      0.0001
    208  N        -59.1070  -27.7760   11.5150 N.3   147  ASP147     -0.1239
    209  CA       -59.1330  -27.4920   12.9630 C.3   147  ASP147      0.1674
    210  C        -59.5760  -26.0420   13.2300 C.2   147  ASP147      0.2266
    211  O        -58.7590  -25.1380   13.4360 O.2   147  ASP147     -0.2867
    212  CB       -57.7440  -27.7830   13.5710 C.3   147  ASP147      0.1410
    213  CG       -57.7580  -27.9340   15.0940 C.2   147  ASP147      0.3668
    214  OD1      -58.7210  -27.5000   15.7630 O.co2 147  ASP147     -0.2456
    215  OD2      -56.7680  -28.4900   15.6290 O.co2 147  ASP147     -0.2456
    216  N        -61.0910  -24.7540   15.7840 N.3   149  GLY149     -0.1210
    217  CA       -60.7010  -24.3210   17.1220 C.3   149  GLY149      0.1956
    218  C        -59.3030  -23.7230   17.1910 C.2   149  GLY149      0.2612
    219  O        -59.1040  -22.6980   17.8410 O.2   149  GLY149     -0.2717
    220  N        -58.3340  -24.3630   16.5330 N.am  150  THR150     -0.1952
    221  CA       -56.9540  -23.8470   16.4680 C.3   150  THR150      0.1897
    222  C        -56.8740  -22.5000   15.7390 C.2   150  THR150      0.2313
    223  O        -56.0860  -21.6370   16.1270 O.2   150  THR150     -0.2863
    224  CB       -55.9890  -24.8590   15.7950 C.3   150  THR150      0.1794
    225  OG1      -55.8070  -25.9950   16.6490 O.3   150  THR150     -0.2208
    226  CG2      -54.6120  -24.2410   15.5180 C.3   150  THR150      0.0378
    227  N        -58.1300  -19.4650   17.8790 N.3   153  THR153     -0.1203
    228  CA       -57.1590  -19.1730   18.9340 C.3   153  THR153      0.1994
    229  C        -55.9730  -18.4020   18.3710 C.2   153  THR153      0.2617
    230  O        -55.6240  -17.3520   18.9000 O.2   153  THR153     -0.2717
    231  CB       -56.6420  -20.4600   19.6290 C.3   153  THR153      0.1784
    232  OG1      -57.7350  -21.3410   19.9180 O.3   153  THR153     -0.2211
    233  CG2      -55.9210  -20.1330   20.9380 C.3   153  THR153      0.0376
    234  N        -55.3640  -18.9250   17.3040 N.am  154  VAL154     -0.1979
    235  CA       -54.2100  -18.2810   16.6450 C.3   154  VAL154      0.1595
    236  C        -54.5490  -16.8620   16.1670 C.2   154  VAL154      0.2287
    237  O        -53.7200  -15.9520   16.2840 O.2   154  VAL154     -0.2864
    238  CB       -53.6760  -19.1350   15.4660 C.3   154  VAL154      0.0276
    239  CG1      -52.6880  -18.3610   14.5940 C.3   154  VAL154      0.0022
    240  CG2      -53.0110  -20.3940   16.0000 C.3   154  VAL154      0.0022
@<TRIPOS>BOND
     1   163   164    1
     2   164   167    1
     3   164   165    1
     4   167   168    1
     5   169   168   ar
     6   169   171   ar
     7   168   170   ar
     8   165   177   am
     9   165   166    2
    10   171   172   ar
    11   177   178    1
    12    92    90   ar
    13   170   172   ar
    14   170   173   ar
    15   172   174   ar
    16   179   178    1
    17   179   180    2
    18   178   181    1
    19   181   182    1
    20    79    78    2
    21   173   175   ar
    22    90    91   ar
    23    90    89    1
    24   183   182    1
    25   182   184    1
    26   140   139    1
    27   174   176   ar
    28    84    85    1
    29   138   137    2
    30    82    83    1
    31    82    81    1
    32    89    88    1
    33    78    77    1
    34   136   139    1
    35   136   137    1
    36   136   135    1
    37   139   141    1
    38   198   196    1
    39   175   176   ar
    40   196   197    1
    41   196   193    1
    42    85    88    1
    43    85    86    1
    44   137   142   am
    45    77    80    1
    46    77    76    1
    47   197   199    1
    48   191   185    1
    49   191   190    1
    50    80    81    1
    51   185   186    1
    52   152   151    2
    53   190   189    1
    54    86    87    2
    55   192   193    1
    56   192   187   am
    57   193   194    1
    58   142   143    1
    59   194   195    2
    60   131   133   ar
    61   131   129   ar
    62   133   134   ar
    63   148   146    1
    64   127   126    2
    65   143   146    1
    66   143   144    1
    67   151   150    1
    68   186   189    1
    69   186   187    1
    70   187   188    2
    71   128   129    1
    72   128   125    1
    73   129   130   ar
    74   146   147    1
    75   134   132   ar
    76   144   145    2
    77   126   125    1
    78   125   124    1
    79   150   149    1
    80   150   153    1
    81    72    71    2
    82   130   132   ar
    83   120   119    2
    84    64    63    2
    85   153   154    1
    86    71    70    1
    87   119   118    1
    88   200   201    1
    89    63    69   am
    90    63    62    1
    91    70    69    1
    92    70    73    1
    93    68    66    1
    94    74    73    1
    95   100    98    1
    96    98    97    1
    97   154   155   ar
    98   154   156   ar
    99   206   205    1
   100   117   118    1
   101    65    62    1
   102    65    66    1
   103    62    61    1
   104   204   201    1
   105   204   205    1
   106   202   201    1
   107   202   203    2
   108   121   118    1
   109   121   122    1
   110   121   123    1
   111    73    75    1
   112   155   157   ar
   113   205   207    1
   114    66    67    1
   115   159   156   ar
   116   159   161   ar
   117   156   158   ar
   118    99    97    1
   119    97    94    1
   120    94    93    1
   121    94    95    1
   122   161   162   ar
   123   106   108    1
   124   106   105    1
   125   157   158   ar
   126   208   209    1
   127   158   160   ar
   128    95    96    2
   129    56    55    2
   130   102   101    1
   131   102   105    1
   132   102   103    1
   133   105   107    1
   134   162   160   ar
   135    60    58    1
   136   209   210    1
   137   209   212    1
   138    59    57    1
   139   103   104    2
   140    48    47    2
   141    55    54    1
   142   210   211    2
   143    54    57    1
   144    54    53    1
   145   212   213    1
   146    57    58    1
   147   110   109    1
   148   110   111    1
   149   110   113    1
   150    47    53   am
   151    47    46    1
   152   115   114    1
   153   111   112    2
   154   114   113    1
   155   114   116    1
   156   239   238    1
   157   213   215   ar
   158   213   214   ar
   159    46    49    1
   160    46    45    1
   161    49    50    1
   162    42    44   ar
   163    42    40   ar
   164   238   240    1
   165   238   235    1
   166   226   224    1
   167    44    43   ar
   168   222   223    2
   169   222   221    1
   170   216   217    1
   171   224   221    1
   172   224   225    1
   173    52    50   ar
   174    50    51   ar
   175   236   237    2
   176   236   235    1
   177    40    39   ar
   178   221   220    1
   179   220   218   am
   180   235   234    1
   181    43    41   ar
   182    37    36    2
   183   217   218    1
   184   218   219    2
   185   234   229   am
   186    39    41   ar
   187    39    38    1
   188   227   228    1
   189    27    26    1
   190    36    35    1
   191   229   230    2
   192   229   228    1
   193    35    38    1
   194    35    34    1
   195    31    30    2
   196    24    26   ar
   197    24    22   ar
   198   228   231    1
   199    26    25   ar
   200    34    30   am
   201   231   232    1
   202   231   233    1
   203    30    29    1
   204    22    21   ar
   205    25    23   ar
   206    29    32    1
   207    29    28    1
   208    32    33    1
   209    21    23   ar
   210    21    20    1
   211    19    18    2
   212    20    17    1
   213    18    17    1
   214    17    16    1
   215    12    11    2
   216    16    11   am
   217     7     6    1
   218     7     8    1
   219    11    10    1
   220     6     5    1
   221     4     3    2
   222    14    13    1
   223     3     2    1
   224    10    13    1
   225    10     9    1
   226     5     2    1
   227    13    15    1
   228     2     1    1
