@<TRIPOS>MOLECULE
tmp/5vckA01.pdb
 83 79 0 0 0
SMALL
GASTEIGER

@<TRIPOS>ATOM
      1  N         27.6500  -15.2920   28.9410 N.3    14  LYS14      -0.1231
      2  CA        27.2760  -16.2170   29.9730 C.3    14  LYS14       0.1693
      3  C         26.6700  -15.3310   31.0470 C.2    14  LYS14       0.2592
      4  O         27.3030  -14.3390   31.4490 O.2    14  LYS14      -0.2718
      5  CB        28.4850  -17.0050   30.4970 C.3    14  LYS14       0.0285
      6  CG        28.0950  -18.1700   31.4130 C.3    14  LYS14       0.0035
      7  CD        29.2610  -19.0660   31.8230 C.3    14  LYS14       0.0206
      8  CE        30.2100  -18.3460   32.7740 C.3    14  LYS14       0.1093
      9  NZ        31.3470  -19.1930   33.2290 N.3    14  LYS14      -0.1314
     10  N         25.4550  -15.6930   31.4630 N.am   15  ILE15      -0.1966
     11  CA        24.5980  -14.9400   32.3870 C.3    15  ILE15       0.1727
     12  C         23.5830  -15.8840   33.0780 C.2    15  ILE15       0.2617
     13  O         23.0470  -16.8080   32.4390 O.2    15  ILE15      -0.2715
     14  CB        23.8300  -13.8140   31.6480 C.3    15  ILE15       0.0290
     15  CG1       22.8330  -13.1340   32.5780 C.3    15  ILE15       0.0022
     16  CG2       23.1260  -14.3490   30.3980 C.3    15  ILE15       0.0023
     17  CD1       22.4620  -11.7430   32.1420 C.3    15  ILE15       0.0001
     18  N         23.3050  -15.6310   34.3620 N.am   16  GLY16      -0.1940
     19  CA        22.5070  -16.5460   35.2250 C.3    16  GLY16       0.2014
     20  C         22.5910  -18.0410   34.9240 C.2    16  GLY16       0.2639
     21  O         21.5600  -18.7030   34.7670 O.2    16  GLY16      -0.2714
     22  N         23.8140  -18.5640   34.8300 N.am   17  GLY17      -0.1954
     23  CA        24.0750  -19.9860   34.5270 C.3    17  GLY17       0.1869
     24  C         24.1120  -20.4000   33.0550 C.2    17  GLY17       0.2309
     25  O         24.6130  -21.4960   32.7180 O.2    17  GLY17      -0.2863
     26  N         16.1650  -14.2780   36.1920 N.3    38  LEU38      -0.1231
     27  CA        17.1750  -13.6520   37.0580 C.3    38  LEU38       0.1678
     28  C         16.5820  -13.5000   38.4560 C.2    38  LEU38       0.2434
     29  O         15.3640  -13.5460   38.6080 O.2    38  LEU38      -0.2733
     30  CB        17.6060  -12.2810   36.5120 C.3    38  LEU38       0.0284
     31  CG        18.5150  -12.2330   35.2810 C.3    38  LEU38       0.0019
     32  CD1       18.9080  -10.7920   35.0060 C.3    38  LEU38       0.0001
     33  CD2       19.7530  -13.1140   35.4290 C.3    38  LEU38       0.0001
     34  N         17.4380  -13.2970   39.4800 N.am   39  PRO39      -0.2729
     35  CA        16.9690  -13.4430   40.8590 C.3    39  PRO39       0.1401
     36  C         16.2930  -12.2170   41.4900 C.2    39  PRO39       0.2269
     37  O         16.6010  -11.0750   41.1420 O.2    39  PRO39      -0.2865
     38  CB        18.2620  -13.7790   41.6350 C.3    39  PRO39       0.0296
     39  CG        19.4090  -13.5020   40.7110 C.3    39  PRO39       0.0237
     40  CD        18.8670  -12.9290   39.4400 C.3    39  PRO39       0.0939
     41  N         23.0470   -5.1790   39.5460 N.3    61  GLN61      -0.1231
     42  CA        24.2140   -5.9480   40.0030 C.3    61  GLN61       0.1698
     43  C         24.2750   -7.3900   39.4370 C.2    61  GLN61       0.2592
     44  O         24.8680   -8.3020   40.0330 O.2    61  GLN61      -0.2718
     45  CB        24.2940   -5.9130   41.5420 C.3    61  GLN61       0.0381
     46  CG        24.6600   -4.5340   42.0960 C.3    61  GLN61       0.0905
     47  CD        24.1980   -4.2580   43.5270 C.2    61  GLN61       0.2608
     48  OE1       24.4610   -3.1750   44.0570 O.2    61  GLN61      -0.2717
     49  NE2       23.5030   -5.2120   44.1560 N.am   61  GLN61      -0.0878
     50  N         23.6990   -7.5750   38.2530 N.am   62  ILE62      -0.1966
     51  CA        23.6990   -8.8720   37.5960 C.3    62  ILE62       0.1727
     52  C         25.1040   -9.0440   37.0140 C.2    62  ILE62       0.2616
     53  O         25.6140   -8.1320   36.3590 O.2    62  ILE62      -0.2715
     54  CB        22.5720   -8.9520   36.5300 C.3    62  ILE62       0.0290
     55  CG1       21.1960   -8.8490   37.2060 C.3    62  ILE62       0.0022
     56  CG2       22.6550  -10.2130   35.6960 C.3    62  ILE62       0.0023
     57  CD1       20.8620   -9.9590   38.2000 C.3    62  ILE62       0.0001
     58  N         25.7380  -10.1800   37.3250 N.am   63  LEU63      -0.1977
     59  CA        27.0480  -10.5560   36.7620 C.3    63  LEU63       0.1596
     60  C         26.9170  -11.1330   35.3540 C.2    63  LEU63       0.2287
     61  O         26.0710  -11.9860   35.1200 O.2    63  LEU63      -0.2864
     62  CB        27.7450  -11.6170   37.6360 C.3    63  LEU63       0.0297
     63  CG        29.1210  -12.0800   37.1260 C.3    63  LEU63       0.0022
     64  CD1       30.0880  -10.9340   36.9130 C.3    63  LEU63       0.0001
     65  CD2       29.7570  -13.0990   38.0570 C.3    63  LEU63       0.0001
     66  N         29.3950  -12.4930   31.7060 N.3    65  GLU65      -0.1245
     67  CA        30.6300  -12.6360   30.9280 C.3    65  GLU65       0.1567
     68  C         30.3510  -12.3830   29.4430 C.2    65  GLU65       0.2260
     69  O         29.5090  -13.0310   28.8530 O.2    65  GLU65      -0.2867
     70  CB        31.3370  -13.9840   31.1350 C.3    65  GLU65       0.0388
     71  CG        32.8140  -13.8790   30.7340 C.3    65  GLU65       0.1160
     72  CD        33.7150  -14.9850   31.2400 C.2    65  GLU65       0.3649
     73  OE1       34.0730  -14.9890   32.4350 O.co2  65  GLU65      -0.2457
     74  OE2       34.1300  -15.8230   30.4260 O.co2  65  GLU65      -0.2457
     75  N         34.5710  -10.1000   32.1530 N.3    70  LYS70      -0.1245
     76  CA        33.5810  -10.0820   33.1950 C.3    70  LYS70       0.1561
     77  C         33.0740   -8.6440   33.3950 C.2    70  LYS70       0.2260
     78  O         33.8070   -7.6710   33.1950 O.2    70  LYS70      -0.2867
     79  CB        34.1830  -10.6390   34.4800 C.3    70  LYS70       0.0271
     80  CG        34.3190  -12.1310   34.4210 C.3    70  LYS70       0.0035
     81  CD        34.6440  -12.4310   35.8600 C.3    70  LYS70       0.0206
     82  CE        35.6500  -13.5200   36.0320 C.3    70  LYS70       0.1093
     83  NZ        35.2590  -14.7610   35.4010 N.3    70  LYS70      -0.1314
@<TRIPOS>BOND
     1    69    68    2
     2     1     2    1
     3    68    67    1
     4     2     5    1
     5     2     3    1
     6    16    14    1
     7    74    72   ar
     8     5     6    1
     9    71    70    1
    10    71    72    1
    11    67    70    1
    12    67    66    1
    13     3     4    2
    14     3    10   am
    15    72    73   ar
    16     6     7    1
    17    10    11    1
    18    14    11    1
    19    14    15    1
    20     7     8    1
    21    17    15    1
    22    75    76    1
    23    11    12    1
    24    13    12    2
    25    25    24    2
    26     8     9    1
    27    24    23    1
    28    12    18   am
    29    76    77    1
    30    76    79    1
    31    78    77    2
    32    18    19    1
    33    80    79    1
    34    80    81    1
    35    23    22    1
    36    21    20    2
    37    22    20   am
    38    20    19    1
    39    32    31    1
    40    61    60    2
    41    31    33    1
    42    31    30    1
    43    60    59    1
    44    83    82    1
    45    56    54    1
    46    81    82    1
    47    26    27    1
    48    53    52    2
    49    30    27    1
    50    54    55    1
    51    54    51    1
    52    59    58    1
    53    59    62    1
    54    64    63    1
    55    52    58   am
    56    52    51    1
    57    27    28    1
    58    63    62    1
    59    63    65    1
    60    55    57    1
    61    51    50    1
    62    50    43   am
    63    28    29    2
    64    28    34   am
    65    43    42    1
    66    43    44    2
    67    40    34    1
    68    40    39    1
    69    34    35    1
    70    41    42    1
    71    42    45    1
    72    39    38    1
    73    35    36    1
    74    35    38    1
    75    37    36    2
    76    45    46    1
    77    46    47    1
    78    47    48    2
    79    47    49   am
