@<TRIPOS>MOLECULE
tmp/5vcmA00.pdb
 134 129 0 0 0
SMALL
GASTEIGER

@<TRIPOS>ATOM
      1  N          2.0640  -20.3380  -31.0750 N.3    34  GLN34      -0.1231
      2  CA         2.7080  -20.7270  -32.3250 C.3    34  GLN34       0.1698
      3  C          1.6330  -21.0900  -33.3460 C.2    34  GLN34       0.2592
      4  O          0.8260  -21.9970  -33.1160 O.2    34  GLN34      -0.2718
      5  CB         3.6800  -21.8910  -32.1140 C.3    34  GLN34       0.0381
      6  CG         4.6690  -22.0600  -33.3060 C.3    34  GLN34       0.0905
      7  CD         5.9260  -22.8690  -32.9870 C.2    34  GLN34       0.2608
      8  OE1        6.5240  -22.7270  -31.9140 O.2    34  GLN34      -0.2717
      9  NE2        6.3280  -23.7370  -33.9200 N.am   34  GLN34      -0.0878
     10  N          1.6480  -20.3980  -34.4790 N.am   35  VAL35      -0.1966
     11  CA         0.6160  -20.4990  -35.5050 C.3    35  VAL35       0.1727
     12  C          1.2410  -20.8760  -36.8410 C.2    35  VAL35       0.2616
     13  O          2.2540  -20.2940  -37.2470 O.2    35  VAL35      -0.2715
     14  CB        -0.1410  -19.1620  -35.6310 C.3    35  VAL35       0.0290
     15  CG1       -1.2880  -19.2990  -36.6130 C.3    35  VAL35       0.0023
     16  CG2       -0.6430  -18.7030  -34.2680 C.3    35  VAL35       0.0023
     17  N          0.6100  -21.8270  -37.5420 N.am   36  HIS36      -0.1973
     18  CA         1.0130  -22.1740  -38.8930 C.3    36  HIS36       0.1656
     19  C         -0.1840  -21.9770  -39.8090 C.2    36  HIS36       0.2291
     20  O         -0.4490  -20.8510  -40.2410 O.2    36  HIS36      -0.2864
     21  CB         1.5940  -23.5910  -38.9560 C.3    36  HIS36       0.0771
     22  CG         2.0040  -24.0060  -40.3350 C.ar   36  HIS36       0.0820
     23  ND1        2.9560  -23.3210  -41.0630 N.ar   36  HIS36      -0.2267
     24  CD2        1.5800  -25.0180  -41.1270 C.ar   36  HIS36       0.1154
     25  CE1        3.1020  -23.8960  -42.2420 C.ar   36  HIS36       0.1986
     26  NE2        2.2830  -24.9320  -42.3060 N.ar   36  HIS36      -0.2212
     27  N         -3.7430  -23.6240  -39.7420 N.3    38  ARG38      -0.1245
     28  CA        -4.9610  -24.3520  -39.3750 C.3    38  ARG38       0.1563
     29  C         -5.9410  -23.3500  -38.7800 C.2    38  ARG38       0.2260
     30  O         -6.1320  -23.2910  -37.5590 O.2    38  ARG38      -0.2867
     31  CB        -4.6580  -25.4950  -38.4080 C.3    38  ARG38       0.0307
     32  CG        -4.1860  -26.7570  -39.1100 C.3    38  ARG38       0.0489
     33  CD        -3.9030  -27.8620  -38.0980 C.3    38  ARG38       0.2205
     34  NE        -2.9730  -27.4030  -37.0700 N.pl3  38  ARG38      -0.0865
     35  CZ        -2.7210  -28.0590  -35.9400 C.cat  38  ARG38       0.5346
     36  NH1       -3.3270  -29.2170  -35.6850 N.pl3  38  ARG38       0.1354
     37  NH2       -1.8580  -27.5610  -35.0650 N.pl3  38  ARG38       0.1354
     38  N          4.4050  -18.5590  -38.9540 N.3    65  ASP65      -0.1239
     39  CA         5.3220  -18.9030  -40.0340 C.3    65  ASP65       0.1674
     40  C          4.5940  -19.0900  -41.3600 C.2    65  ASP65       0.2266
     41  O          5.1580  -19.6490  -42.3050 O.2    65  ASP65      -0.2867
     42  CB         6.1770  -20.1250  -39.6790 C.3    65  ASP65       0.1410
     43  CG         5.3770  -21.4080  -39.4860 C.2    65  ASP65       0.3668
     44  OD1        4.2030  -21.5120  -39.8970 O.co2  65  ASP65      -0.2456
     45  OD2        5.9690  -22.3390  -38.9190 O.co2  65  ASP65      -0.2456
     46  N          9.6850  -29.0990  -44.4480 N.3   137  LYS137     -0.1245
     47  CA         8.4440  -28.8990  -43.7080 C.3   137  LYS137      0.1561
     48  C          8.4790  -29.5550  -42.3340 C.2   137  LYS137      0.2260
     49  O          7.7590  -29.1090  -41.4370 O.2   137  LYS137     -0.2867
     50  CB         7.2480  -29.4080  -44.5220 C.3   137  LYS137      0.0271
     51  CG         7.2060  -30.9180  -44.7200 C.3   137  LYS137      0.0035
     52  CD         6.1200  -31.3150  -45.7100 C.3   137  LYS137      0.0206
     53  CE         6.1040  -32.8180  -45.9350 C.3   137  LYS137      0.1093
     54  NZ         5.2000  -33.2010  -47.0540 N.3   137  LYS137     -0.1314
     55  N         10.6420  -27.1030  -39.7850 N.3   140  GLN140     -0.1231
     56  CA        10.1990  -25.7310  -39.5440 C.3   140  GLN140      0.1698
     57  C          9.6810  -25.5210  -38.1200 C.2   140  GLN140      0.2592
     58  O          9.9070  -24.4560  -37.5310 O.2   140  GLN140     -0.2718
     59  CB         9.1340  -25.3460  -40.5690 C.3   140  GLN140      0.0381
     60  CG         8.5460  -23.9610  -40.3320 C.3   140  GLN140      0.0905
     61  CD         8.0450  -23.3140  -41.6090 C.2   140  GLN140      0.2608
     62  OE1        8.8000  -22.6570  -42.3190 O.2   140  GLN140     -0.2717
     63  NE2        6.7690  -23.4890  -41.8970 N.am  140  GLN140     -0.0878
     64  N          8.9810  -26.5070  -37.5460 N.am  141  THR141     -0.1953
     65  CA         8.3520  -26.2630  -36.2480 C.3   141  THR141      0.1897
     66  C          9.3930  -26.0070  -35.1600 C.2   141  THR141      0.2313
     67  O          9.2140  -25.1110  -34.3260 O.2   141  THR141     -0.2863
     68  CB         7.4430  -27.4360  -35.8710 C.3   141  THR141      0.1794
     69  OG1        6.4080  -27.5600  -36.8510 O.3   141  THR141     -0.2208
     70  CG2        6.8130  -27.2280  -34.5030 C.3   141  THR141      0.0378
     71  N         10.8690  -22.5100  -35.6930 N.3   144  HIS144     -0.1241
     72  CA         9.9110  -21.4920  -35.2810 C.3   144  HIS144      0.1621
     73  C          9.8430  -21.3940  -33.7640 C.2   144  HIS144      0.2264
     74  O          9.8700  -20.2910  -33.2100 O.2   144  HIS144     -0.2867
     75  CB         8.5490  -21.8330  -35.8950 C.3   144  HIS144      0.0745
     76  CG         7.4820  -20.7950  -35.6990 C.ar  144  HIS144      0.0817
     77  ND1        6.2250  -20.9280  -36.2510 N.ar  144  HIS144     -0.2268
     78  CD2        7.4710  -19.6130  -35.0280 C.ar  144  HIS144      0.1154
     79  CE1        5.4830  -19.8830  -35.9200 C.ar  144  HIS144      0.1986
     80  NE2        6.2160  -19.0740  -35.1770 N.ar  144  HIS144     -0.2212
     81  N         -0.1060  -23.3130  -28.5300 N.3   170  GLU170     -0.1231
     82  CA        -0.1900  -23.5700  -29.9580 C.3   170  GLU170      0.1699
     83  C         -1.6040  -23.3410  -30.4700 C.2   170  GLU170      0.2592
     84  O         -2.5740  -23.2850  -29.7100 O.2   170  GLU170     -0.2718
     85  CB         0.2780  -25.0000  -30.2560 C.3   170  GLU170      0.0402
     86  CG         1.7470  -25.1340  -29.8480 C.3   170  GLU170      0.1161
     87  CD         2.3110  -26.5150  -30.0140 C.2   170  GLU170      0.3649
     88  OE1        1.7100  -27.3170  -30.7480 O.co2 170  GLU170     -0.2457
     89  OE2        3.3600  -26.7880  -29.3960 O.co2 170  GLU170     -0.2457
     90  N         -1.7020  -23.2180  -31.7960 N.am  171  GLU171     -0.1966
     91  CA        -2.9430  -22.8160  -32.4500 C.3   171  GLU171      0.1733
     92  C         -4.0880  -23.7890  -32.2060 C.2   171  GLU171      0.2616
     93  O         -5.2490  -23.3990  -32.3660 O.2   171  GLU171     -0.2715
     94  CB        -2.7200  -22.6970  -33.9640 C.3   171  GLU171      0.0429
     95  CG        -2.2940  -24.0410  -34.5760 C.3   171  GLU171      0.1163
     96  CD        -1.8240  -23.9540  -36.0180 C.2   171  GLU171      0.3649
     97  OE1       -1.9440  -22.8720  -36.6300 O.co2 171  GLU171     -0.2457
     98  OE2       -1.3460  -24.9890  -36.5350 O.co2 171  GLU171     -0.2457
     99  N         -3.7880  -25.0540  -31.8780 N.am  172  ASP172     -0.1971
    100  CA        -4.8080  -26.0830  -31.7200 C.3   172  ASP172      0.1709
    101  C         -4.9920  -26.4600  -30.2530 C.2   172  ASP172      0.2293
    102  O         -5.3420  -27.6030  -29.9340 O.2   172  ASP172     -0.2864
    103  CB        -4.4730  -27.3140  -32.5680 C.3   172  ASP172      0.1436
    104  CG        -3.2280  -28.0380  -32.0880 C.2   172  ASP172      0.3671
    105  OD1       -2.4570  -27.4400  -31.3090 O.co2 172  ASP172     -0.2456
    106  OD2       -3.0250  -29.2060  -32.4860 O.co2 172  ASP172     -0.2456
    107  N         10.7280  -29.9460  -30.8910 N.3   256  TRP256     -0.1241
    108  CA        11.2300  -29.0260  -29.8780 C.3   256  TRP256      0.1605
    109  C         11.0560  -29.5970  -28.4810 C.2   256  TRP256      0.2264
    110  O         11.9240  -29.3920  -27.6220 O.2   256  TRP256     -0.2867
    111  CB        10.5350  -27.6620  -29.9760 C.3   256  TRP256      0.0550
    112  CG         9.0660  -27.6920  -29.6220 C.ar  256  TRP256      0.0003
    113  CD1        8.0160  -27.8260  -30.4860 C.ar  256  TRP256      0.0946
    114  CD2        8.4920  -27.5870  -28.3140 C.ar  256  TRP256      0.0152
    115  NE1        6.8300  -27.7980  -29.8010 N.ar  256  TRP256     -0.2442
    116  CE2        7.0950  -27.6580  -28.4640 C.ar  256  TRP256      0.0810
    117  CE3        9.0270  -27.4360  -27.0310 C.ar  256  TRP256      0.0012
    118  CZ2        6.2210  -27.5850  -27.3770 C.ar  256  TRP256      0.0191
    119  CZ3        8.1590  -27.3670  -25.9550 C.ar  256  TRP256      0.0001
    120  CH2        6.7720  -27.4430  -26.1380 C.ar  256  TRP256      0.0015
    121  N         -5.9090  -30.2130  -25.8160 N.3   284  HIS284     -0.1241
    122  CA        -5.3520  -30.3580  -27.1620 C.3   284  HIS284      0.1621
    123  C         -6.4950  -30.6610  -28.1230 C.2   284  HIS284      0.2264
    124  O         -6.9450  -31.8030  -28.2330 O.2   284  HIS284     -0.2867
    125  CB        -4.2810  -31.4460  -27.1930 C.3   284  HIS284      0.0745
    126  CG        -3.5880  -31.5860  -28.5160 C.ar  284  HIS284      0.0817
    127  ND1       -3.1240  -32.7980  -28.9850 N.ar  284  HIS284     -0.2268
    128  CD2       -3.2650  -30.6710  -29.4620 C.ar  284  HIS284      0.1154
    129  CE1       -2.5520  -32.6250  -30.1630 C.ar  284  HIS284      0.1986
    130  NE2       -2.6240  -31.3430  -30.4750 N.ar  284  HIS284     -0.2212
    131  N         -6.4640  -30.4990  -31.4250 N.3   286  GLY286     -0.1225
    132  CA        -6.0570  -31.1170  -32.6740 C.3   286  GLY286      0.1811
    133  C         -5.7470  -32.5980  -32.5550 C.2   286  GLY286      0.2280
    134  O         -4.7910  -33.0900  -33.1620 O.2   286  GLY286     -0.2866
@<TRIPOS>BOND
     1    54    53    1
     2    53    52    1
     3    52    51    1
     4    51    50    1
     5    50    47    1
     6    46    47    1
     7    47    48    1
     8    48    49    2
     9    62    61    2
    10    26    25   ar
    11    26    24   ar
    12    41    40    2
    13    25    23   ar
    14    63    61   am
    15    61    60    1
    16    40    39    1
    17    24    22   ar
    18    23    22   ar
    19    59    60    1
    20    59    56    1
    21    22    21    1
    22    20    19    2
    23    39    42    1
    24    39    38    1
    25    44    43   ar
    26    19    18    1
    27    55    56    1
    28    27    28    1
    29    42    43    1
    30    56    57    1
    31    43    45   ar
    32    28    29    1
    33    28    31    1
    34    32    31    1
    35    32    33    1
    36    21    18    1
    37    18    17    1
    38    29    30    2
    39    57    64   am
    40    57    58    2
    41    33    34    1
    42    64    65    1
    43    17    12   am
    44    13    12    2
    45    34    35    2
    46    69    68    1
    47    12    11    1
    48    97    96   ar
    49    15    14    1
    50    98    96   ar
    51    77    79   ar
    52    77    76   ar
    53    65    68    1
    54    65    66    1
    55    96    95    1
    56    35    36    1
    57    35    37    1
    58    79    80   ar
    59    75    76    1
    60    75    72    1
    61    68    70    1
    62    76    78   ar
    63    71    72    1
    64    14    11    1
    65    14    16    1
    66    11    10    1
    67    72    73    1
    68    80    78   ar
    69    66    67    2
    70    95    94    1
    71    10     3   am
    72    94    91    1
    73     9     7   am
    74    73    74    2
    75     3     4    2
    76     3     2    1
    77     6     7    1
    78     6     5    1
    79   134   133    2
    80     7     8    2
    81   132   133    1
    82   132   131    1
    83   103   104    1
    84   103   100    1
    85   106   104   ar
    86    91    92    1
    87    91    90    1
    88    93    92    2
    89     2     5    1
    90     2     1    1
    91    92    99   am
    92   104   105   ar
    93    99   100    1
    94    90    83   am
    95   100   101    1
    96   107   108    1
    97    88    87   ar
    98   113   115   ar
    99   113   112   ar
   100   130   129   ar
   101   130   128   ar
   102    83    82    1
   103    83    84    2
   104    85    82    1
   105    85    86    1
   106   101   102    2
   107   129   127   ar
   108    87    86    1
   109    87    89   ar
   110   111   108    1
   111   111   112    1
   112    82    81    1
   113   108   109    1
   114   115   116   ar
   115   112   114   ar
   116   128   126   ar
   117   127   126   ar
   118   126   125    1
   119   109   110    2
   120   116   114   ar
   121   116   118   ar
   122   114   117   ar
   123   124   123    2
   124   123   122    1
   125   118   120   ar
   126   125   122    1
   127   122   121    1
   128   117   119   ar
   129   120   119   ar
