@<TRIPOS>MOLECULE
tmp/5vcpC00.pdb
 156 153 0 0 0
SMALL
GASTEIGER

@<TRIPOS>ATOM
      1  N        -23.7980   28.4410  -21.9220 N.3    41  ALA41      -0.1231
      2  CA       -23.5720   27.4420  -20.8850 C.3    41  ALA41       0.1694
      3  C        -22.2320   27.6450  -20.1800 C.2    41  ALA41       0.2592
      4  O        -21.8470   26.8370  -19.3360 O.2    41  ALA41      -0.2718
      5  CB       -23.6500   26.0400  -21.4810 C.3    41  ALA41       0.0304
      6  N        -21.5320   28.7210  -20.5350 N.am   42  ASN42      -0.1960
      7  CA       -20.1970   29.0090  -20.0050 C.3    42  ASN42       0.1819
      8  C        -19.2190   27.8530  -20.1880 C.2    42  ASN42       0.2622
      9  O        -18.4450   27.5370  -19.2850 O.2    42  ASN42      -0.2715
     10  CB       -20.2590   29.3980  -18.5230 C.3    42  ASN42       0.1195
     11  CG       -20.9470   30.7300  -18.2980 C.2    42  ASN42       0.2630
     12  OD1      -20.4010   31.7870  -18.6240 O.2    42  ASN42      -0.2716
     13  ND2      -22.1440   30.6890  -17.7260 N.am   42  ASN42      -0.0877
     14  N        -19.2480   27.2310  -21.3620 N.am   43  GLY43      -0.1940
     15  CA       -18.3720   26.1080  -21.6350 C.3    43  GLY43       0.2014
     16  C        -17.0380   26.5540  -22.2070 C.2    43  GLY43       0.2639
     17  O        -16.9140   27.6670  -22.7130 O.2    43  GLY43      -0.2714
     18  N        -16.0230   25.7050  -22.0790 N.am   44  ALA44      -0.1963
     19  CA       -14.7190   25.9820  -22.6710 C.3    44  ALA44       0.1728
     20  C        -14.6320   25.3850  -24.0760 C.2    44  ALA44       0.2616
     21  O        -13.6630   25.6190  -24.7990 O.2    44  ALA44      -0.2715
     22  CB       -13.6030   25.4410  -21.7950 C.3    44  ALA44       0.0334
     23  N        -15.6400   24.5970  -24.4430 N.am   45  GLY45      -0.1955
     24  CA       -15.6870   23.9540  -25.7460 C.3    45  GLY45       0.1869
     25  C        -17.0550   23.3650  -26.0470 C.2    45  GLY45       0.2309
     26  O        -17.9130   23.3140  -25.1700 O.2    45  GLY45      -0.2863
     27  N        -23.0380   17.3160  -29.7730 N.3    50  GLN50      -0.1245
     28  CA       -23.7090   17.6740  -28.5240 C.3    50  GLN50       0.1566
     29  C        -25.0150   18.4520  -28.7280 C.2    50  GLN50       0.2260
     30  O        -25.8650   18.5110  -27.8270 O.2    50  GLN50      -0.2867
     31  CB       -22.7790   18.4820  -27.6300 C.3    50  GLN50       0.0367
     32  CG       -21.6980   17.6480  -26.9920 C.3    50  GLN50       0.0905
     33  CD       -20.8200   18.4860  -26.1190 C.2    50  GLN50       0.2608
     34  OE1      -19.9980   19.2640  -26.6100 O.2    50  GLN50      -0.2717
     35  NE2      -20.9960   18.3550  -24.8110 N.am   50  GLN50      -0.0878
     36  N         -8.9690   16.8030  -13.9060 N.3    87  TRP87      -0.1227
     37  CA       -10.4160   16.7700  -13.6810 C.3    87  TRP87       0.1737
     38  C        -11.1570   17.3010  -14.9030 C.2    87  TRP87       0.2595
     39  O        -10.7600   18.3030  -15.4920 O.2    87  TRP87      -0.2718
     40  CB       -10.8060   17.5710  -12.4330 C.3    87  TRP87       0.0564
     41  CG       -10.3820   16.9130  -11.1650 C.ar   87  TRP87       0.0003
     42  CD1       -9.3180   17.2560  -10.3740 C.ar   87  TRP87       0.0946
     43  CD2      -10.9880   15.7700  -10.5490 C.ar   87  TRP87       0.0152
     44  NE1       -9.2370   16.4070   -9.2970 N.ar   87  TRP87      -0.2442
     45  CE2      -10.2520   15.4880   -9.3770 C.ar   87  TRP87       0.0810
     46  CE3      -12.0920   14.9700  -10.8610 C.ar   87  TRP87       0.0012
     47  CZ2      -10.5760   14.4340   -8.5310 C.ar   87  TRP87       0.0191
     48  CZ3      -12.4150   13.9220  -10.0170 C.ar   87  TRP87       0.0001
     49  CH2      -11.6580   13.6630   -8.8640 C.ar   87  TRP87       0.0015
     50  N        -12.2100   16.5950  -15.3080 N.am   88  GLU88      -0.1965
     51  CA       -13.0260   17.0500  -16.4210 C.3    88  GLU88       0.1733
     52  C        -14.5010   17.0250  -16.0520 C.2    88  GLU88       0.2617
     53  O        -14.9530   16.1780  -15.2560 O.2    88  GLU88      -0.2715
     54  CB       -12.7880   16.1840  -17.6650 C.3    88  GLU88       0.0429
     55  CG       -11.3290   16.1680  -18.1050 C.3    88  GLU88       0.1163
     56  CD       -11.1090   15.5340  -19.4820 C.2    88  GLU88       0.3649
     57  OE1       -9.9340   15.2650  -19.8260 O.co2  88  GLU88      -0.2457
     58  OE2      -12.1000   15.2930  -20.2060 O.co2  88  GLU88      -0.2457
     59  N        -15.2400   17.9580  -16.6480 N.am   89  GLY89      -0.1940
     60  CA       -16.6830   17.9150  -16.6510 C.3    89  GLY89       0.2014
     61  C        -17.1180   18.1020  -18.1000 C.2    89  GLY89       0.2639
     62  O        -16.3050   18.4320  -18.9730 O.2    89  GLY89      -0.2714
     63  N        -18.4000   17.8910  -18.3580 N.am   90  CYS90      -0.1953
     64  CA       -18.9370   17.9500  -19.7130 C.3    90  CYS90       0.1843
     65  C        -20.3540   18.4890  -19.6180 C.2    90  CYS90       0.2625
     66  O        -21.0940   18.1190  -18.7100 O.2    90  CYS90      -0.2714
     67  CB       -18.8870   16.5560  -20.3540 C.3    90  CYS90       0.0997
     68  SG       -19.6610   16.3600  -21.9730 S.3    90  CYS90      -0.0797
     69  N        -20.7250   19.3780  -20.5330 N.am   91  LEU91      -0.1977
     70  CA       -22.0760   19.9220  -20.5680 C.3    91  LEU91       0.1596
     71  C        -23.1190   18.8270  -20.8150 C.2    91  LEU91       0.2287
     72  O        -24.2910   18.9890  -20.4690 O.2    91  LEU91      -0.2864
     73  CB       -22.1770   20.9970  -21.6490 C.3    91  LEU91       0.0297
     74  CG       -21.2870   22.2230  -21.4230 C.3    91  LEU91       0.0022
     75  CD1      -21.2620   23.1130  -22.6690 C.3    91  LEU91       0.0001
     76  CD2      -21.7600   23.0110  -20.2000 C.3    91  LEU91       0.0001
     77  N        -18.0060   15.2610  -12.1530 N.3    97  ARG97      -0.1245
     78  CA       -16.6230   15.4910  -12.5360 C.3    97  ARG97       0.1563
     79  C        -15.9110   14.1440  -12.5110 C.2    97  ARG97       0.2260
     80  O        -16.2790   13.2570  -11.7350 O.2    97  ARG97      -0.2867
     81  CB       -15.9190   16.4800  -11.5940 C.3    97  ARG97       0.0307
     82  CG       -16.4710   17.9110  -11.6090 C.3    97  ARG97       0.0489
     83  CD       -16.0600   18.6500  -12.8990 C.3    97  ARG97       0.2205
     84  NE       -16.4620   20.0590  -12.8810 N.pl3  97  ARG97      -0.0865
     85  CZ       -17.6490   20.5000  -13.2960 C.cat  97  ARG97       0.5346
     86  NH1      -18.5530   19.6510  -13.7720 N.pl3  97  ARG97       0.1354
     87  NH2      -17.9360   21.7910  -13.2440 N.pl3  97  ARG97       0.1354
     88  N         -3.6860   21.9980  -20.4890 N.3   125  PHE125     -0.1241
     89  CA        -5.1290   22.2060  -20.5990 C.3   125  PHE125      0.1605
     90  C         -5.6170   22.3550  -22.0490 C.2   125  PHE125      0.2264
     91  O         -6.6340   21.7720  -22.4290 O.2   125  PHE125     -0.2867
     92  CB        -5.5420   23.4380  -19.8010 C.3   125  PHE125      0.0534
     93  CG        -7.0220   23.6070  -19.6980 C.ar  125  PHE125     -0.0203
     94  CD1       -7.7860   22.6820  -19.0020 C.ar  125  PHE125     -0.0042
     95  CD2       -7.6530   24.6810  -20.2980 C.ar  125  PHE125     -0.0042
     96  CE1       -9.1570   22.8220  -18.9070 C.ar  125  PHE125     -0.0003
     97  CE2       -9.0210   24.8300  -20.2060 C.ar  125  PHE125     -0.0003
     98  CZ        -9.7770   23.8980  -19.5130 C.ar  125  PHE125     -0.0000
     99  N         -5.8210   19.0550  -23.5140 N.3   128  ARG128     -0.1231
    100  CA        -6.9100   18.3290  -22.8640 C.3   128  ARG128      0.1694
    101  C         -8.2470   18.6830  -23.4990 C.2   128  ARG128      0.2591
    102  O         -9.0460   17.8080  -23.8230 O.2   128  ARG128     -0.2718
    103  CB        -6.9390   18.6280  -21.3510 C.3   128  ARG128      0.0321
    104  CG        -8.1050   17.9370  -20.6100 C.3   128  ARG128      0.0489
    105  CD        -7.9590   18.0920  -19.0870 C.3   128  ARG128      0.2205
    106  NE        -6.6920   17.5080  -18.6490 N.pl3 128  ARG128     -0.0865
    107  CZ        -6.5180   16.2270  -18.3310 C.cat 128  ARG128      0.5346
    108  NH1       -7.5380   15.3810  -18.3670 N.pl3 128  ARG128      0.1354
    109  NH2       -5.3190   15.7880  -17.9500 N.pl3 128  ARG128      0.1354
    110  N         -8.4720   19.9800  -23.6820 N.am  129  VAL129     -0.1980
    111  CA        -9.7100   20.4810  -24.2630 C.3   129  VAL129      0.1595
    112  C         -9.9300   19.9230  -25.6650 C.2   129  VAL129      0.2287
    113  O        -11.0270   19.4700  -25.9890 O.2   129  VAL129     -0.2864
    114  CB        -9.7130   22.0340  -24.3000 C.3   129  VAL129      0.0276
    115  CG1      -10.9080   22.5590  -25.0590 C.3   129  VAL129      0.0022
    116  CG2       -9.6990   22.5970  -22.8620 C.3   129  VAL129      0.0022
    117  N        -10.7350   16.1850  -25.4060 N.3   132  HIS132     -0.1226
    118  CA       -12.1070   16.0650  -24.9100 C.3   132  HIS132      0.1752
    119  C        -13.1320   16.3400  -26.0410 C.2   132  HIS132      0.2595
    120  O        -14.0470   15.5380  -26.2750 O.2   132  HIS132     -0.2718
    121  CB       -12.2980   17.0330  -23.7410 C.3   132  HIS132      0.0759
    122  CG       -13.6490   16.9830  -23.1120 C.ar  132  HIS132      0.0818
    123  ND1      -13.8580   16.4680  -21.8490 N.ar  132  HIS132     -0.2268
    124  CD2      -14.8560   17.4130  -23.5490 C.ar  132  HIS132      0.1154
    125  CE1      -15.1350   16.5780  -21.5370 C.ar  132  HIS132      0.1986
    126  NE2      -15.7590   17.1610  -22.5440 N.ar  132  HIS132     -0.2212
    127  N        -12.9660   17.4460  -26.7650 N.am  133  GLU133     -0.1979
    128  CA       -13.9340   17.7830  -27.8180 C.3   133  GLU133      0.1602
    129  C        -13.9190   16.7930  -28.9730 C.2   133  GLU133      0.2287
    130  O        -14.9730   16.4090  -29.4930 O.2   133  GLU133     -0.2864
    131  CB       -13.6880   19.1900  -28.3610 C.3   133  GLU133      0.0415
    132  CG       -13.8520   20.2870  -27.3400 C.3   133  GLU133      0.1163
    133  CD       -15.1910   20.2450  -26.6260 C.2   133  GLU133      0.3649
    134  OE1      -16.1900   19.7620  -27.2130 O.co2 133  GLU133     -0.2457
    135  OE2      -15.2400   20.7060  -25.4670 O.co2 133  GLU133     -0.2457
    136  N        -15.8320   13.5500  -28.5410 N.3   136  HIS136     -0.1241
    137  CA       -17.2580   13.6100  -28.8960 C.3   136  HIS136      0.1621
    138  C        -17.4840   13.2150  -30.3610 C.2   136  HIS136      0.2264
    139  O        -18.5470   12.6920  -30.7050 O.2   136  HIS136     -0.2867
    140  CB       -17.8310   15.0120  -28.6690 C.3   136  HIS136      0.0745
    141  CG       -18.2100   15.2920  -27.2500 C.ar  136  HIS136      0.0817
    142  ND1      -19.2050   14.5970  -26.5970 N.ar  136  HIS136     -0.2268
    143  CD2      -17.7250   16.1860  -26.3550 C.ar  136  HIS136      0.1154
    144  CE1      -19.3160   15.0460  -25.3580 C.ar  136  HIS136      0.1986
    145  NE2      -18.4320   16.0120  -25.1870 N.ar  136  HIS136     -0.2212
    146  N        -15.9100   18.8820   -4.7540 N.3   159  PHE159     -0.1241
    147  CA       -15.3960   20.2390   -4.5530 C.3   159  PHE159      0.1605
    148  C        -16.4230   21.1040   -3.8210 C.2   159  PHE159      0.2264
    149  O        -17.1020   21.9230   -4.4390 O.2   159  PHE159     -0.2867
    150  CB       -15.0260   20.8730   -5.8990 C.3   159  PHE159      0.0534
    151  CG       -14.1130   20.0230   -6.7370 C.ar  159  PHE159     -0.0203
    152  CD1      -12.7590   19.9420   -6.4450 C.ar  159  PHE159     -0.0042
    153  CD2      -14.6110   19.2950   -7.8120 C.ar  159  PHE159     -0.0042
    154  CE1      -11.9170   19.1570   -7.2130 C.ar  159  PHE159     -0.0003
    155  CE2      -13.7720   18.5040   -8.5840 C.ar  159  PHE159     -0.0003
    156  CZ       -12.4240   18.4370   -8.2860 C.ar  159  PHE159     -0.0000
@<TRIPOS>BOND
     1   139   138    2
     2   138   137    1
     3    27    28    1
     4   130   129    2
     5   129   128    1
     6   137   140    1
     7   137   136    1
     8    29    28    1
     9    29    30    2
    10   140   141    1
    11    28    31    1
    12   131   128    1
    13   131   132    1
    14   128   127    1
    15    31    32    1
    16   132   133    1
    17   141   142   ar
    18   141   143   ar
    19   134   133   ar
    20    32    33    1
    21   127   119   am
    22   133   135   ar
    23    34    33    2
    24   142   144   ar
    25   143   145   ar
    26   120   119    2
    27    33    35   am
    28    25    24    1
    29    25    26    2
    30   119   118    1
    31   113   112    2
    32    24    23    1
    33   112   111    1
    34   117   118    1
    35   144   145   ar
    36   115   114    1
    37   118   121    1
    38    21    20    2
    39    23    20   am
    40   114   111    1
    41   114   116    1
    42   111   110    1
    43    20    19    1
    44   102   101    2
    45   121   122    1
    46   110   101   am
    47   124   122   ar
    48   124   126   ar
    49    99   100    1
    50   101   100    1
    51   122   123   ar
    52   100   103    1
    53    17    16    2
    54    19    18    1
    55    19    22    1
    56    75    74    1
    57   126   125   ar
    58    91    90    2
    59    16    18   am
    60    16    15    1
    61    90    89    1
    62    68    67    1
    63     1     2    1
    64   123   125   ar
    65    73    74    1
    66    73    70    1
    67    15    14    1
    68     5     2    1
    69    74    76    1
    70    14     8   am
    71   103   104    1
    72     2     3    1
    73    71    70    1
    74    71    72    2
    75   104   105    1
    76    89    88    1
    77    89    92    1
    78    70    69    1
    79     6     3   am
    80     6     7    1
    81    69    65   am
    82    67    64    1
    83    95    97   ar
    84    95    93   ar
    85    97    98   ar
    86    58    56   ar
    87     8     7    1
    88     8     9    2
    89     3     4    2
    90     7    10    1
    91    57    56   ar
    92    92    93    1
    93    64    65    1
    94    64    63    1
    95    93    94   ar
    96    65    66    2
    97    98    96   ar
    98    56    55    1
    99   105   106    1
   100    94    96   ar
   101    62    61    2
   102   106   107    2
   103    12    11    2
   104    10    11    1
   105   108   107    1
   106    63    61   am
   107   107   109    1
   108    11    13   am
   109    55    54    1
   110    61    60    1
   111    54    51    1
   112    60    59    1
   113    59    52   am
   114    51    52    1
   115    51    50    1
   116    52    53    2
   117    39    38    2
   118    50    38   am
   119    38    37    1
   120    36    37    1
   121    86    85    1
   122    37    40    1
   123    85    87    1
   124    85    84    2
   125    83    84    1
   126    83    82    1
   127    78    79    1
   128    78    77    1
   129    78    81    1
   130    79    80    2
   131    40    41    1
   132    82    81    1
   133    41    43   ar
   134    41    42   ar
   135    46    43   ar
   136    46    48   ar
   137    43    45   ar
   138    42    44   ar
   139    48    49   ar
   140    45    44   ar
   141    45    47   ar
   142    49    47   ar
   143   155   156   ar
   144   155   153   ar
   145   156   154   ar
   146   153   151   ar
   147   154   152   ar
   148   151   152   ar
   149   151   150    1
   150   150   147    1
   151   146   147    1
   152   147   148    1
   153   149   148    2
