@<TRIPOS>MOLECULE
tmp/5vcqA00.pdb
 154 145 0 0 0
SMALL
GASTEIGER

@<TRIPOS>ATOM
      1  N         10.2050   -0.1330   12.3670 N.3    10  ASN10      -0.1240
      2  CA         8.8840    0.1670   12.9010 C.3    10  ASN10       0.1653
      3  C          7.7820   -0.6270   12.2030 C.2    10  ASN10       0.2266
      4  O          8.0450   -1.4130   11.2880 O.2    10  ASN10      -0.2867
      5  CB         8.5960    1.6810   12.8440 C.3    10  ASN10       0.1155
      6  CG         8.3680    2.2070   11.4310 C.2    10  ASN10       0.2627
      7  OD1        8.1690    1.4520   10.4680 O.2    10  ASN10      -0.2716
      8  ND2        8.3940    3.5270   11.3060 N.am   10  ASN10      -0.0877
      9  N          5.7700    0.0760   10.0820 N.3    12  LEU12      -0.1245
     10  CA         5.5710    0.3210    8.6580 C.3    12  LEU12       0.1561
     11  C          6.6390   -0.3980    7.8340 C.2    12  LEU12       0.2260
     12  O          6.5630   -0.4340    6.6130 O.2    12  LEU12      -0.2867
     13  CB         5.5880    1.8230    8.3580 C.3    12  LEU12       0.0270
     14  CG         4.4700    2.6880    8.9500 C.3    12  LEU12       0.0019
     15  CD1        4.8710    4.1640    8.9400 C.3    12  LEU12       0.0001
     16  CD2        3.1840    2.4870    8.1620 C.3    12  LEU12       0.0001
     17  N          9.8400    0.5420    8.1290 N.3    14  SER14      -0.1217
     18  CA        10.9040    1.5170    7.9530 C.3    14  SER14       0.1889
     19  C         12.1320    1.0970    8.7620 C.2    14  SER14       0.2288
     20  O         12.0010    0.3730    9.7460 O.2    14  SER14      -0.2866
     21  CB        10.4350    2.9100    8.3760 C.3    14  SER14       0.2089
     22  OG         9.2980    3.3110    7.6300 O.3    14  SER14      -0.2183
     23  N         17.8880    7.0070    8.2510 N.3    30  TYR30      -0.1241
     24  CA        16.5090    6.5460    8.3100 C.3    30  TYR30       0.1605
     25  C         16.0420    6.2520    6.9100 C.2    30  TYR30       0.2264
     26  O         16.2140    7.0720    6.0100 O.2    30  TYR30      -0.2867
     27  CB        15.5900    7.5930    8.9410 C.3    30  TYR30       0.0534
     28  CG        14.2650    7.0390    9.4200 C.ar   30  TYR30      -0.0201
     29  CD1       13.1660    6.9330    8.5610 C.ar   30  TYR30      -0.0009
     30  CD2       14.1160    6.6170   10.7300 C.ar   30  TYR30      -0.0009
     31  CE1       11.9550    6.4250    9.0110 C.ar   30  TYR30       0.0417
     32  CE2       12.9170    6.1160   11.1940 C.ar   30  TYR30       0.0417
     33  CZ        11.8440    6.0150   10.3400 C.ar   30  TYR30       0.1957
     34  OH        10.6660    5.5080   10.8320 O.3    30  TYR30      -0.2866
     35  N         12.5000    5.2810    5.1100 N.3    32  SER32      -0.1217
     36  CA        11.0570    5.0920    5.2610 C.3    32  SER32       0.1889
     37  C         10.4750    4.1670    4.2020 C.2    32  SER32       0.2288
     38  O         10.7870    4.2960    3.0130 O.2    32  SER32      -0.2866
     39  CB        10.3100    6.4270    5.1910 C.3    32  SER32       0.2089
     40  OG         8.9030    6.1930    5.1740 O.3    32  SER32      -0.2183
     41  N          7.3210    4.1000    3.5020 N.3    34  VAL34      -0.1231
     42  CA         6.1420    4.7490    2.9440 C.3    34  VAL34       0.1692
     43  C          6.4080    6.2150    2.6460 C.2    34  VAL34       0.2593
     44  O          7.3600    6.7970    3.1550 O.2    34  VAL34      -0.2718
     45  CB         4.9070    4.6720    3.8860 C.3    34  VAL34       0.0266
     46  CG1        4.5080    3.2270    4.1780 C.3    34  VAL34       0.0020
     47  CG2        5.1460    5.4540    5.1920 C.3    34  VAL34       0.0020
     48  N          5.5470    6.8030    1.8200 N.am   35  GLY35      -0.1942
     49  CA         5.5990    8.2260    1.5450 C.3    35  GLY35       0.2014
     50  C          6.5450    8.6390    0.4270 C.2    35  GLY35       0.2639
     51  O          7.1050    7.8130   -0.3100 O.2    35  GLY35      -0.2714
     52  N          6.7360    9.9430    0.3150 N.am   36  ASN36      -0.1958
     53  CA         7.6240   10.4920   -0.6920 C.3    36  ASN36       0.1819
     54  C          9.0690   10.4170   -0.1990 C.2    36  ASN36       0.2621
     55  O          9.6520   11.4170    0.2170 O.2    36  ASN36      -0.2715
     56  CB         7.2180   11.9260   -1.0210 C.3    36  ASN36       0.1195
     57  CG         7.9180   12.4600   -2.2510 C.2    36  ASN36       0.2630
     58  OD1        8.5500   11.7060   -2.9920 O.2    36  ASN36      -0.2716
     59  ND2        7.8060   13.7670   -2.4740 N.am   36  ASN36      -0.0877
     60  N          9.6220    9.2060   -0.2590 N.am   37  ALA37      -0.1977
     61  CA        10.9060    8.8720    0.3440 C.3    37  ALA37       0.1597
     62  C         11.4960    7.6640   -0.3670 C.2    37  ALA37       0.2287
     63  O         10.7760    6.7350   -0.7070 O.2    37  ALA37      -0.2864
     64  CB        10.7430    8.5780    1.8620 C.3    37  ALA37       0.0319
     65  N         13.5430   15.4070    4.8450 N.3    66  TRP66      -0.1241
     66  CA        13.3340   14.4270    3.7890 C.3    66  TRP66       0.1605
     67  C         13.9380   14.8510    2.4460 C.2    66  TRP66       0.2264
     68  O         13.2730   14.8160    1.4200 O.2    66  TRP66      -0.2867
     69  CB        11.8410   14.1400    3.6500 C.3    66  TRP66       0.0550
     70  CG        11.3140   13.4500    4.8590 C.ar   66  TRP66       0.0003
     71  CD1       10.5590   13.9960    5.8590 C.ar   66  TRP66       0.0946
     72  CD2       11.5470   12.0820    5.2280 C.ar   66  TRP66       0.0152
     73  NE1       10.2890   13.0430    6.8200 N.ar   66  TRP66      -0.2442
     74  CE2       10.8790   11.8590    6.4500 C.ar   66  TRP66       0.0810
     75  CE3       12.2450   11.0200    4.6320 C.ar   66  TRP66       0.0012
     76  CZ2       10.9050   10.6260    7.1000 C.ar   66  TRP66       0.0191
     77  CZ3       12.2590    9.7930    5.2730 C.ar   66  TRP66       0.0001
     78  CH2       11.5980    9.6100    6.5010 C.ar   66  TRP66       0.0015
     79  N         11.1120   15.9200   -0.4400 N.3    73  ALA73      -0.1245
     80  CA         9.6980   16.0900   -0.1090 C.3    73  ALA73       0.1562
     81  C          9.4150   17.4030    0.6140 C.2    73  ALA73       0.2260
     82  O          8.2670   17.6580    1.0120 O.2    73  ALA73      -0.2867
     83  CB         9.2020   14.9160    0.7430 C.3    73  ALA73       0.0290
     84  N         10.0500   18.5080    3.6030 N.3    75  SER75      -0.1217
     85  CA         9.3690   18.0860    4.8170 C.3    75  SER75       0.1889
     86  C         10.3880   17.6050    5.8230 C.2    75  SER75       0.2288
     87  O         11.4790   17.1740    5.4470 O.2    75  SER75      -0.2866
     88  CB         8.3700   16.9540    4.5250 C.3    75  SER75       0.2089
     89  OG         7.2690   17.3940    3.7500 O.3    75  SER75      -0.2183
     90  N         10.4540   15.2500    9.6430 N.3    77  THR77      -0.1218
     91  CA         9.7910   14.5270   10.7230 C.3    77  THR77       0.1862
     92  C         10.6460   14.5740   11.9730 C.2    77  THR77       0.2287
     93  O         11.8560   14.3980   11.8890 O.2    77  THR77      -0.2866
     94  CB         9.5340   13.0460   10.3580 C.3    77  THR77       0.1770
     95  OG1        8.6900   12.9690    9.2070 O.3    77  THR77      -0.2211
     96  CG2        8.8620   12.3050   11.5070 C.3    77  THR77       0.0375
     97  N         10.7550   12.4670   15.6030 N.3    79  TRP79      -0.1241
     98  CA        10.2460   11.4610   16.5260 C.3    79  TRP79       0.1605
     99  C         10.6540   11.8030   17.9500 C.2    79  TRP79       0.2264
    100  O         11.8280   12.0430   18.2240 O.2    79  TRP79      -0.2867
    101  CB        10.7820   10.0790   16.2010 C.3    79  TRP79       0.0550
    102  CG        10.3220    9.4740   14.9350 C.ar   79  TRP79       0.0003
    103  CD1        9.3750    8.5140   14.7920 C.ar   79  TRP79       0.0946
    104  CD2       10.8150    9.7610   13.6170 C.ar   79  TRP79       0.0152
    105  NE1        9.2440    8.1760   13.4630 N.ar   79  TRP79      -0.2442
    106  CE2       10.1230    8.9240   12.7250 C.ar   79  TRP79       0.0810
    107  CE3       11.7830   10.6390   13.1140 C.ar   79  TRP79       0.0012
    108  CZ2       10.3500    8.9430   11.3480 C.ar   79  TRP79       0.0191
    109  CZ3       12.0180   10.6510   11.7340 C.ar   79  TRP79       0.0001
    110  CH2       11.2980    9.8150   10.8720 C.ar   79  TRP79       0.0015
    111  N          5.3130   11.2000   16.5690 N.3    95  TRP95      -0.1241
    112  CA         6.0600   12.0280   15.6500 C.3    95  TRP95       0.1605
    113  C          5.2320   13.1600   15.0680 C.2    95  TRP95       0.2264
    114  O          3.9910   13.1290   15.0710 O.2    95  TRP95      -0.2867
    115  CB         6.6870   11.1700   14.5260 C.3    95  TRP95       0.0550
    116  CG         5.7550   10.2470   13.7510 C.ar   95  TRP95       0.0003
    117  CD1        5.6650    8.8850   13.8640 C.ar   95  TRP95       0.0946
    118  CD2        4.8250   10.6240   12.7250 C.ar   95  TRP95       0.0152
    119  NE1        4.7210    8.3940   12.9840 N.ar   95  TRP95      -0.2442
    120  CE2        4.1960    9.4410   12.2700 C.ar   95  TRP95       0.0810
    121  CE3        4.4540   11.8490   12.1530 C.ar   95  TRP95       0.0012
    122  CZ2        3.2250    9.4460   11.2660 C.ar   95  TRP95       0.0191
    123  CZ3        3.4830   11.8540   11.1540 C.ar   95  TRP95       0.0001
    124  CH2        2.8800   10.6570   10.7240 C.ar   95  TRP95       0.0015
    125  N          5.2790   15.4320   11.5450 N.3    97  LEU97      -0.1245
    126  CA         5.7940   15.5950   10.1910 C.3    97  LEU97       0.1561
    127  C          5.3370   16.9330    9.6070 C.2    97  LEU97       0.2260
    128  O          4.1690   17.1000    9.2740 O.2    97  LEU97      -0.2867
    129  CB         5.3260   14.4330    9.3030 C.3    97  LEU97       0.0270
    130  CG         5.5060   14.5650    7.7860 C.3    97  LEU97       0.0019
    131  CD1        6.9510   14.8590    7.4330 C.3    97  LEU97       0.0001
    132  CD2        5.0060   13.3150    7.0480 C.3    97  LEU97       0.0001
    133  N          5.5430   19.7960    6.6360 N.3    99  SER99      -0.1217
    134  CA         5.9150   20.1590    5.2740 C.3    99  SER99       0.1889
    135  C          6.0260   21.6730    5.1420 C.2    99  SER99       0.2288
    136  O          5.2390   22.4050    5.7270 O.2    99  SER99      -0.2866
    137  CB         4.8860   19.6280    4.2760 C.3    99  SER99       0.2089
    138  OG         4.8110   18.2100    4.3140 O.3    99  SER99      -0.2183
    139  N          1.4820   16.7470   10.0410 N.3   111  LEU111     -0.1245
    140  CA         0.8820   15.4650   10.3870 C.3   111  LEU111      0.1561
    141  C          1.3980   14.9780   11.7350 C.2   111  LEU111      0.2260
    142  O          2.5330   15.2580   12.1020 O.2   111  LEU111     -0.2867
    143  CB         1.1960   14.4150    9.3190 C.3   111  LEU111      0.0270
    144  CG         0.5760   14.6000    7.9270 C.3   111  LEU111      0.0019
    145  CD1        1.2790   13.6920    6.9520 C.3   111  LEU111      0.0001
    146  CD2       -0.9080   14.2900    7.9710 C.3   111  LEU111      0.0001
    147  N          5.0180    5.7750   15.9940 N.3   115  ASP115     -0.1239
    148  CA         5.7430    4.6030   15.5250 C.3   115  ASP115      0.1674
    149  C          6.2490    3.8030   16.7030 C.2   115  ASP115      0.2266
    150  O          6.7050    4.3750   17.6990 O.2   115  ASP115     -0.2867
    151  CB         6.9470    4.9780   14.6590 C.3   115  ASP115      0.1410
    152  CG         6.5600    5.5610   13.3120 C.2   115  ASP115      0.3668
    153  OD1        5.4060    5.3730   12.8760 O.co2 115  ASP115     -0.2456
    154  OD2        7.4260    6.2160   12.6960 O.co2 115  ASP115     -0.2456
@<TRIPOS>BOND
     1    58    57    2
     2    59    57   am
     3    57    56    1
     4    56    53    1
     5    63    62    2
     6    53    54    1
     7    53    52    1
     8    79    80    1
     9    62    61    1
    10    51    50    2
    11    60    54   am
    12    60    61    1
    13    54    55    2
    14    80    81    1
    15    80    83    1
    16    52    50   am
    17    61    64    1
    18    50    49    1
    19    81    82    2
    20    68    67    2
    21    49    48    1
    22    48    43   am
    23    67    66    1
    24    43    42    1
    25    43    44    2
    26    42    41    1
    27    42    45    1
    28    38    37    2
    29    84    85    1
    30    69    66    1
    31    69    70    1
    32    89    88    1
    33    66    65    1
    34    45    46    1
    35    45    47    1
    36    37    36    1
    37   137   138    1
    38   137   134    1
    39    88    85    1
    40    75    72   ar
    41    75    77   ar
    42    85    86    1
    43    70    72   ar
    44    70    71   ar
    45    35    36    1
    46   135   134    1
    47   135   136    2
    48    40    39    1
    49    39    36    1
    50    72    74   ar
    51    77    78   ar
    52   134   133    1
    53    87    86    2
    54    71    73   ar
    55    26    25    2
    56    74    73   ar
    57    74    76   ar
    58    78    76   ar
    59    12    11    2
    60    25    24    1
    61   145   144    1
    62   132   130    1
    63   131   130    1
    64    22    21    1
    65   130   129    1
    66    11    10    1
    67   144   146    1
    68   144   143    1
    69    18    17    1
    70    18    21    1
    71    18    19    1
    72    16    14    1
    73    23    24    1
    74    24    27    1
    75    13    10    1
    76    13    14    1
    77    29    31   ar
    78    29    28   ar
    79    10     9    1
    80    19    20    2
    81    15    14    1
    82    27    28    1
    83    31    33   ar
    84    95    94    1
    85   128   127    2
    86   129   126    1
    87   143   140    1
    88    28    30   ar
    89   127   126    1
    90    90    91    1
    91   139   140    1
    92   126   125    1
    93    33    34    1
    94    33    32   ar
    95    94    91    1
    96    94    96    1
    97   140   141    1
    98     7     6    2
    99    91    92    1
   100   124   123   ar
   101   124   122   ar
   102    30    32   ar
   103   110   108   ar
   104   110   109   ar
   105   123   121   ar
   106   122   120   ar
   107     4     3    2
   108     8     6   am
   109   108   106   ar
   110     6     5    1
   111   109   107   ar
   112   141   142    2
   113    93    92    2
   114   121   118   ar
   115     3     2    1
   116   120   118   ar
   117   120   119   ar
   118     1     2    1
   119   154   152   ar
   120   118   116   ar
   121   106   105   ar
   122   106   104   ar
   123     5     2    1
   124   153   152   ar
   125   119   117   ar
   126   107   104   ar
   127   152   151    1
   128   105   103   ar
   129   104   102   ar
   130   116   117   ar
   131   116   115    1
   132   115   112    1
   133   151   148    1
   134   103   102   ar
   135   102   101    1
   136   113   114    2
   137   113   112    1
   138   148   147    1
   139   148   149    1
   140    97    98    1
   141   112   111    1
   142   101    98    1
   143    98    99    1
   144   149   150    2
   145    99   100    2
