@<TRIPOS>MOLECULE
tmp/5vcsA00.pdb
 107 102 0 0 0
SMALL
GASTEIGER

@<TRIPOS>ATOM
      1  N        -40.1750  -37.4840   11.2040 N.3   120  ARG120     -0.1245
      2  CA       -38.8680  -38.0540   10.8880 C.3   120  ARG120      0.1563
      3  C        -38.8290  -38.6070    9.4690 C.2   120  ARG120      0.2260
      4  O        -37.9590  -38.2390    8.6720 O.2   120  ARG120     -0.2867
      5  CB       -38.5120  -39.1480   11.8950 C.3   120  ARG120      0.0307
      6  CG       -37.1380  -39.7610   11.6720 C.3   120  ARG120      0.0489
      7  CD       -36.9360  -41.0060   12.5200 C.3   120  ARG120      0.2205
      8  NE       -35.5800  -41.5340   12.3990 N.pl3 120  ARG120     -0.0865
      9  CZ       -35.1950  -42.4030   11.4700 C.cat 120  ARG120      0.5346
     10  NH1      -36.0640  -42.8470   10.5730 N.pl3 120  ARG120      0.1354
     11  NH2      -33.9390  -42.8280   11.4380 N.pl3 120  ARG120      0.1354
     12  N        -31.3370  -33.9710    7.4930 N.3   139  ASP139     -0.1239
     13  CA       -29.9550  -34.4240    7.5750 C.3   139  ASP139      0.1674
     14  C        -29.5420  -35.0170    6.2270 C.2   139  ASP139      0.2266
     15  O        -30.2810  -34.9560    5.2410 O.2   139  ASP139     -0.2867
     16  CB       -29.7750  -35.3970    8.7420 C.3   139  ASP139      0.1410
     17  CG       -30.6450  -36.6350    8.6270 C.2   139  ASP139      0.3668
     18  OD1      -31.3000  -36.8330    7.5820 O.co2 139  ASP139     -0.2456
     19  OD2      -30.6730  -37.4180    9.6000 O.co2 139  ASP139     -0.2456
     20  N        -29.5960  -37.8340    5.1150 N.3   141  PHE141     -0.1241
     21  CA       -30.3340  -39.0240    4.7070 C.3   141  PHE141      0.1605
     22  C        -31.8330  -38.7580    4.6520 C.2   141  PHE141      0.2264
     23  O        -32.6390  -39.6800    4.7990 O.2   141  PHE141     -0.2867
     24  CB       -30.0320  -40.1980    5.6380 C.3   141  PHE141      0.0534
     25  CG       -28.5720  -40.5260    5.7380 C.ar  141  PHE141     -0.0203
     26  CD1      -27.9790  -41.3820    4.8260 C.ar  141  PHE141     -0.0042
     27  CD2      -27.7890  -39.9730    6.7390 C.ar  141  PHE141     -0.0042
     28  CE1      -26.6330  -41.6850    4.9120 C.ar  141  PHE141     -0.0003
     29  CE2      -26.4440  -40.2720    6.8290 C.ar  141  PHE141     -0.0003
     30  CZ       -25.8650  -41.1290    5.9130 C.ar  141  PHE141     -0.0000
     31  N        -33.8110  -37.5090    6.7160 N.3   143  HIS143     -0.1226
     32  CA       -34.5190  -37.5970    7.9830 C.3   143  HIS143      0.1752
     33  C        -34.4960  -36.2490    8.6920 C.2   143  HIS143      0.2596
     34  O        -33.5620  -35.4580    8.5360 O.2   143  HIS143     -0.2718
     35  CB       -33.9000  -38.6750    8.8730 C.3   143  HIS143      0.0759
     36  CG       -33.9390  -40.0460    8.2720 C.ar  143  HIS143      0.0818
     37  ND1      -32.9690  -40.9950    8.5160 N.ar  143  HIS143     -0.2268
     38  CD2      -34.8340  -40.6300    7.4400 C.ar  143  HIS143      0.1154
     39  CE1      -33.2640  -42.1020    7.8590 C.ar  143  HIS143      0.1986
     40  NE2      -34.3910  -41.9070    7.1980 N.ar  143  HIS143     -0.2212
     41  N        -35.5380  -35.9910    9.4750 N.am  144  TYR144     -0.1976
     42  CA       -35.6910  -34.7160   10.1530 C.3   144  TYR144      0.1639
     43  C        -35.3080  -34.8360   11.6280 C.2   144  TYR144      0.2290
     44  O        -34.9870  -35.9140   12.1340 O.2   144  TYR144     -0.2864
     45  CB       -37.1160  -34.1950    9.9700 C.3   144  TYR144      0.0560
     46  CG       -37.3780  -33.7190    8.5590 C.ar  144  TYR144     -0.0198
     47  CD1      -37.0130  -32.4410    8.1580 C.ar  144  TYR144     -0.0009
     48  CD2      -37.9710  -34.5540    7.6210 C.ar  144  TYR144     -0.0009
     49  CE1      -37.2420  -32.0050    6.8670 C.ar  144  TYR144      0.0417
     50  CE2      -38.2040  -34.1260    6.3280 C.ar  144  TYR144      0.0417
     51  CZ       -37.8380  -32.8500    5.9570 C.ar  144  TYR144      0.1957
     52  OH       -38.0660  -32.4150    4.6710 O.3   144  TYR144     -0.2866
     53  N        -34.9860  -35.0840   15.5800 N.3   146  GLU146     -0.1245
     54  CA       -35.6100  -35.7150   16.7350 C.3   146  GLU146      0.1567
     55  C        -34.9320  -35.1900   17.9920 C.2   146  GLU146      0.2260
     56  O        -33.7030  -35.2480   18.1070 O.2   146  GLU146     -0.2867
     57  CB       -35.5070  -37.2390   16.6570 C.3   146  GLU146      0.0388
     58  CG       -36.3850  -37.8610   15.5830 C.3   146  GLU146      0.1160
     59  CD       -36.1630  -39.3530   15.4400 C.2   146  GLU146      0.3649
     60  OE1      -35.0790  -39.7500   14.9640 O.co2 146  GLU146     -0.2457
     61  OE2      -37.0700  -40.1310   15.8030 O.co2 146  GLU146     -0.2457
     62  N        -32.5950  -37.4960   20.2270 N.3   149  PHE149     -0.1241
     63  CA       -31.3070  -37.9100   19.6830 C.3   149  PHE149      0.1605
     64  C        -30.2870  -36.7820   19.6140 C.2   149  PHE149      0.2264
     65  O        -29.0890  -37.0600   19.4860 O.2   149  PHE149     -0.2867
     66  CB       -31.4910  -38.5060   18.2840 C.3   149  PHE149      0.0534
     67  CG       -32.2000  -39.8290   18.2770 C.ar  149  PHE149     -0.0203
     68  CD1      -31.5070  -41.0020   18.5250 C.ar  149  PHE149     -0.0042
     69  CD2      -33.5600  -39.9000   18.0220 C.ar  149  PHE149     -0.0042
     70  CE1      -32.1560  -42.2220   18.5190 C.ar  149  PHE149     -0.0003
     71  CE2      -34.2150  -41.1180   18.0150 C.ar  149  PHE149     -0.0003
     72  CZ       -33.5120  -42.2800   18.2640 C.ar  149  PHE149     -0.0000
     73  N        -25.0560  -36.8990   15.0250 N.3   266  TYR266     -0.1241
     74  CA       -25.5030  -36.6620   16.3920 C.3   266  TYR266      0.1605
     75  C        -24.6250  -37.3480   17.4300 C.2   266  TYR266      0.2264
     76  O        -24.7780  -37.0690   18.6240 O.2   266  TYR266     -0.2867
     77  CB       -26.9580  -37.1140   16.5500 C.3   266  TYR266      0.0534
     78  CG       -27.1690  -38.6080   16.4380 C.ar  266  TYR266     -0.0201
     79  CD1      -27.2180  -39.2320   15.1990 C.ar  266  TYR266     -0.0009
     80  CD2      -27.3370  -39.3920   17.5720 C.ar  266  TYR266     -0.0009
     81  CE1      -27.4150  -40.5970   15.0910 C.ar  266  TYR266      0.0417
     82  CE2      -27.5360  -40.7570   17.4750 C.ar  266  TYR266      0.0417
     83  CZ       -27.5740  -41.3540   16.2330 C.ar  266  TYR266      0.1957
     84  OH       -27.7710  -42.7110   16.1320 O.3   266  TYR266     -0.2866
     85  N        -18.3870  -42.8770    7.5230 N.3   335  ARG335     -0.1245
     86  CA       -19.7000  -42.4690    7.0370 C.3   335  ARG335      0.1563
     87  C        -20.4210  -41.5760    8.0390 C.2   335  ARG335      0.2260
     88  O        -20.4740  -41.8940    9.2310 O.2   335  ARG335     -0.2867
     89  CB       -20.5800  -43.6850    6.7410 C.3   335  ARG335      0.0307
     90  CG       -21.9380  -43.3120    6.1630 C.3   335  ARG335      0.0489
     91  CD       -22.8590  -44.5100    6.0370 C.3   335  ARG335      0.2205
     92  NE       -23.1830  -45.0710    7.3440 N.pl3 335  ARG335     -0.0865
     93  CZ       -24.1570  -44.6110    8.1230 C.cat 335  ARG335      0.5346
     94  NH1      -24.8930  -43.5840    7.7250 N.pl3 335  ARG335      0.1354
     95  NH2      -24.3950  -45.1730    9.3000 N.pl3 335  ARG335      0.1354
     96  N        -23.4620  -40.1900   10.0890 N.3   337  ASN337     -0.1240
     97  CA       -24.6440  -40.8690   10.6010 C.3   337  ASN337      0.1653
     98  C        -25.8870  -39.9920   10.5990 C.2   337  ASN337      0.2266
     99  O        -26.9640  -40.4690   10.9680 O.2   337  ASN337     -0.2867
    100  CB       -24.3790  -41.3840   12.0190 C.3   337  ASN337      0.1155
    101  CG       -23.2250  -42.3650   12.0760 C.2   337  ASN337      0.2627
    102  OD1      -23.3730  -43.5370   11.7310 O.2   337  ASN337     -0.2716
    103  ND2      -22.0650  -41.8880   12.5120 N.am  337  ASN337     -0.0877
    104  N        -28.6520  -37.0350   11.6100 N.3   339  GLY339     -0.1225
    105  CA       -29.2470  -36.6210   12.8610 C.3   339  GLY339      0.1811
    106  C        -28.8230  -35.2580   13.3550 C.2   339  GLY339      0.2280
    107  O        -29.2480  -34.8530   14.4450 O.2   339  GLY339     -0.2866
@<TRIPOS>BOND
     1    22    21    1
     2    22    23    2
     3    52    51    1
     4    21    20    1
     5    21    24    1
     6    26    28   ar
     7    26    25   ar
     8    28    30   ar
     9    15    14    2
    10    24    25    1
    11    25    27   ar
    12    30    29   ar
    13    51    50   ar
    14    51    49   ar
    15    91    90    1
    16    91    92    1
    17    90    89    1
    18    14    13    1
    19    50    48   ar
    20    31    32    1
    21    27    29   ar
    22    89    86    1
    23    49    47   ar
    24    86    85    1
    25    86    87    1
    26    40    38   ar
    27    40    39   ar
    28    92    93    2
    29    38    36   ar
    30    12    13    1
    31    13    16    1
    32    18    17   ar
    33    48    46   ar
    34    94    93    1
    35    39    37   ar
    36    32    33    1
    37    32    35    1
    38    87    88    2
    39    93    95    1
    40    47    46   ar
    41    36    37   ar
    42    36    35    1
    43    34    33    2
    44    46    45    1
    45    17    16    1
    46    17    19   ar
    47     4     3    2
    48    33    41   am
    49     3     2    1
    50    41    42    1
    51    45    42    1
    52    96    97    1
    53    42    43    1
    54    10     9    1
    55    98    97    1
    56    98    99    2
    57    97   100    1
    58     2     1    1
    59     2     5    1
    60    11     9    1
    61     9     8    2
    62   104   105    1
    63    43    44    2
    64     6     5    1
    65     6     7    1
    66   102   101    2
    67   100   101    1
    68   101   103   am
    69     8     7    1
    70   105   106    1
    71   106   107    2
    72    60    59   ar
    73    73    74    1
    74    81    79   ar
    75    81    83   ar
    76    79    78   ar
    77    59    58    1
    78    59    61   ar
    79    53    54    1
    80    58    57    1
    81    84    83    1
    82    83    82   ar
    83    74    77    1
    84    74    75    1
    85    78    77    1
    86    78    80   ar
    87    57    54    1
    88    54    55    1
    89    75    76    2
    90    82    80   ar
    91    55    56    2
    92    71    69   ar
    93    71    72   ar
    94    69    67   ar
    95    72    70   ar
    96    67    66    1
    97    67    68   ar
    98    66    63    1
    99    70    68   ar
   100    65    64    2
   101    64    63    1
   102    63    62    1
