@<TRIPOS>MOLECULE
tmp/5vcuA00.pdb
 140 136 0 0 0
SMALL
GASTEIGER

@<TRIPOS>ATOM
      1  N         12.4020  -19.7900   -3.2080 N.3    12  GLY12      -0.1210
      2  CA        11.4010  -20.6760   -2.6380 C.3    12  GLY12       0.1956
      3  C         10.0080  -20.0760   -2.7490 C.2    12  GLY12       0.2612
      4  O          9.8200  -18.8630   -2.6310 O.2    12  GLY12      -0.2717
      5  N          9.0330  -20.9410   -3.0330 N.am   13  ALA13      -0.1965
      6  CA         7.5930  -20.6670   -3.0390 C.3    13  ALA13       0.1728
      7  C          7.1120  -19.8880   -4.2600 C.2    13  ALA13       0.2616
      8  O          5.9290  -19.5340   -4.3020 O.2    13  ALA13      -0.2715
      9  CB         7.1340  -19.9280   -1.7790 C.3    13  ALA13       0.0334
     10  N          7.9590  -19.6220   -5.2580 N.am   14  VAL14      -0.1963
     11  CA         7.4580  -18.8950   -6.4270 C.3    14  VAL14       0.1727
     12  C          6.6280  -19.7860   -7.3410 C.2    14  VAL14       0.2617
     13  O          5.8880  -19.2690   -8.1930 O.2    14  VAL14      -0.2715
     14  CB         8.5930  -18.2400   -7.2330 C.3    14  VAL14       0.0290
     15  CG1        9.3870  -17.2500   -6.3370 C.3    14  VAL14       0.0023
     16  CG2        9.4990  -19.3020   -7.8730 C.3    14  VAL14       0.0023
     17  N          6.7210  -21.1070   -7.1860 N.am   15  GLY15      -0.1940
     18  CA         5.9090  -22.0240   -7.9590 C.3    15  GLY15       0.2014
     19  C          6.6760  -22.9060   -8.9240 C.2    15  GLY15       0.2639
     20  O          6.0930  -23.3890   -9.9010 O.2    15  GLY15      -0.2714
     21  N          7.9650  -23.1570   -8.6630 N.am   16  LYS16      -0.1963
     22  CA         8.7460  -23.9980   -9.5780 C.3    16  LYS16       0.1728
     23  C          8.1720  -25.4120   -9.6630 C.2    16  LYS16       0.2617
     24  O          8.0140  -25.9730  -10.7560 O.2    16  LYS16      -0.2715
     25  CB        10.2140  -24.0470   -9.1320 C.3    16  LYS16       0.0311
     26  CG        10.8720  -22.6680   -8.9840 C.3    16  LYS16       0.0038
     27  CD        12.3460  -22.7820   -8.6020 C.3    16  LYS16       0.0206
     28  CE        12.5440  -23.3840   -7.2000 C.3    16  LYS16       0.1093
     29  NZ        11.8510  -22.5990   -6.1270 N.3    16  LYS16      -0.1314
     30  N          7.8910  -26.0240   -8.5170 N.am   17  THR17      -0.1937
     31  CA         7.4090  -27.3970   -8.5490 C.3    17  THR17       0.2028
     32  C          6.0280  -27.4780   -9.1840 C.2    17  THR17       0.2642
     33  O          5.7530  -28.3980   -9.9660 O.2    17  THR17      -0.2714
     34  CB         7.4000  -27.9830   -7.1390 C.3    17  THR17       0.1808
     35  OG1        8.7380  -27.9850   -6.6320 O.3    17  THR17      -0.2208
     36  CG2        6.8780  -29.4100   -7.1630 C.3    17  THR17       0.0379
     37  N          5.1470  -26.5260   -8.8680 N.am   18  ALA18      -0.1977
     38  CA         3.8090  -26.5510   -9.4520 C.3    18  ALA18       0.1597
     39  C          3.8800  -26.3540  -10.9590 C.2    18  ALA18       0.2287
     40  O          3.1370  -26.9920  -11.7170 O.2    18  ALA18      -0.2864
     41  CB         2.9250  -25.4880   -8.7960 C.3    18  ALA18       0.0319
     42  N         -2.9310  -28.5650  -12.3700 N.3    28  PHE28      -0.1228
     43  CA        -2.3600  -27.9890  -11.1640 C.3    28  PHE28       0.1721
     44  C         -2.3370  -29.0530  -10.0650 C.2    28  PHE28       0.2437
     45  O         -3.3100  -29.7990   -9.9110 O.2    28  PHE28      -0.2733
     46  CB        -3.1950  -26.7800  -10.7330 C.3    28  PHE28       0.0547
     47  CG        -2.5850  -25.9660   -9.6220 C.ar   28  PHE28      -0.0202
     48  CD1       -1.3890  -25.2950   -9.8150 C.ar   28  PHE28      -0.0042
     49  CD2       -3.2270  -25.8490   -8.3980 C.ar   28  PHE28      -0.0042
     50  CE1       -0.8340  -24.5320   -8.7980 C.ar   28  PHE28      -0.0003
     51  CE2       -2.6750  -25.0900   -7.3770 C.ar   28  PHE28      -0.0003
     52  CZ        -1.4790  -24.4330   -7.5790 C.ar   28  PHE28      -0.0000
     53  N         -1.2270  -29.1780   -9.3040 N.am   29  PRO29      -0.2729
     54  CA        -1.1350  -30.2360   -8.2790 C.3    29  PRO29       0.1401
     55  C         -2.3490  -30.3420   -7.3740 C.2    29  PRO29       0.2269
     56  O         -2.6620  -29.4200   -6.6130 O.2    29  PRO29      -0.2865
     57  CB         0.1110  -29.8440   -7.4730 C.3    29  PRO29       0.0296
     58  CG         0.7300  -28.6530   -8.1830 C.3    29  PRO29       0.0237
     59  CD         0.0700  -28.5180   -9.5180 C.3    29  PRO29       0.0939
     60  N          2.3520  -31.7140   -2.6780 N.3    33  VAL33      -0.1231
     61  CA         3.3630  -31.1710   -3.5800 C.3    33  VAL33       0.1678
     62  C          4.7290  -31.3900   -2.9360 C.2    33  VAL33       0.2434
     63  O          4.9430  -30.9300   -1.8040 O.2    33  VAL33      -0.2733
     64  CB         3.1280  -29.6790   -3.8590 C.3    33  VAL33       0.0265
     65  CG1        4.2360  -29.1270   -4.7310 C.3    33  VAL33       0.0020
     66  CG2        1.7730  -29.4680   -4.5010 C.3    33  VAL33       0.0020
     67  N          5.6650  -32.0620   -3.6000 N.am   34  PRO34      -0.2718
     68  CA         6.9930  -32.2410   -3.0040 C.3    34  PRO34       0.1535
     69  C          7.7810  -30.9360   -3.0270 C.2    34  PRO34       0.2599
     70  O          7.4460  -29.9840   -3.7360 O.2    34  PRO34      -0.2715
     71  CB         7.6400  -33.3060   -3.8970 C.3    34  PRO34       0.0310
     72  CG         7.0120  -33.0380   -5.2730 C.3    34  PRO34       0.0237
     73  CD         5.5800  -32.6310   -4.9650 C.3    34  PRO34       0.0939
     74  N          8.8410  -30.8940   -2.2120 N.am   35  THR35      -0.1951
     75  CA         9.7630  -29.7610   -2.2690 C.3    35  THR35       0.1897
     76  C         10.4320  -29.6760   -3.6350 C.2    35  THR35       0.2313
     77  O         10.4830  -28.6070   -4.2580 O.2    35  THR35      -0.2863
     78  CB        10.8220  -29.8820   -1.1690 C.3    35  THR35       0.1794
     79  OG1       11.3950  -31.2000   -1.1930 O.3    35  THR35      -0.2208
     80  CG2       10.2020  -29.6260    0.2070 C.3    35  THR35       0.0378
     81  N         13.9400  -29.9470  -11.3780 N.3    57  ASP57      -0.1239
     82  CA        13.5010  -29.0500  -10.3170 C.3    57  ASP57       0.1674
     83  C         14.6790  -28.7770   -9.3760 C.2    57  ASP57       0.2266
     84  O         15.6720  -29.5090   -9.3740 O.2    57  ASP57      -0.2867
     85  CB        12.3180  -29.6950   -9.5760 C.3    57  ASP57       0.1410
     86  CG        11.4560  -28.6940   -8.7790 C.2    57  ASP57       0.3668
     87  OD1       11.7500  -27.4670   -8.7490 O.co2  57  ASP57      -0.2456
     88  OD2       10.4560  -29.1630   -8.1770 O.co2  57  ASP57      -0.2456
     89  N          5.5760  -16.2180  -12.6160 N.3   115  THR115     -0.1203
     90  CA         4.6200  -17.2340  -12.2080 C.3   115  THR115      0.1994
     91  C          3.4360  -16.6110  -11.4690 C.2   115  THR115      0.2617
     92  O          3.4430  -15.4430  -11.0790 O.2   115  THR115     -0.2717
     93  CB         5.2800  -18.2760  -11.2920 C.3   115  THR115      0.1784
     94  OG1        5.7520  -17.6120  -10.1050 O.3   115  THR115     -0.2211
     95  CG2        6.4470  -18.9560  -11.9810 C.3   115  THR115      0.0376
     96  N          2.4020  -17.4290  -11.2880 N.am  116  LYS116     -0.1979
     97  CA         1.2030  -17.0350  -10.5470 C.3   116  LYS116      0.1596
     98  C          0.4980  -15.8630  -11.2250 C.2   116  LYS116      0.2287
     99  O         -0.0160  -14.9520  -10.5790 O.2   116  LYS116     -0.2864
    100  CB         1.5400  -16.7310   -9.0800 C.3   116  LYS116      0.0298
    101  CG         2.3530  -17.8500   -8.4300 C.3   116  LYS116      0.0038
    102  CD         2.5040  -17.6400   -6.9150 C.3   116  LYS116      0.0206
    103  CE         3.2460  -18.7990   -6.2460 C.3   116  LYS116      0.1093
    104  NZ         3.2380  -18.6960   -4.7340 N.3   116  LYS116     -0.1314
    105  N         -2.3030  -15.8460  -12.4730 N.3   118  ASP118     -0.1225
    106  CA        -3.6990  -15.7860  -12.0530 C.3   118  ASP118      0.1805
    107  C         -3.8810  -14.8990  -10.8240 C.2   118  ASP118      0.2597
    108  O         -4.9350  -14.2730  -10.6680 O.2   118  ASP118     -0.2718
    109  CB        -4.2470  -17.1900  -11.7680 C.3   118  ASP118      0.1424
    110  CG        -3.4490  -17.9380  -10.6980 C.2   118  ASP118      0.3668
    111  OD1       -2.2430  -18.1950  -10.9080 O.co2 118  ASP118     -0.2456
    112  OD2       -4.0320  -18.2610   -9.6320 O.co2 118  ASP118     -0.2456
    113  N         -2.8900  -14.8490   -9.9330 N.am  119  LEU119     -0.1979
    114  CA        -3.0260  -13.9900   -8.7590 C.3   119  LEU119      0.1596
    115  C         -2.8290  -12.5230   -9.1230 C.2   119  LEU119      0.2287
    116  O         -3.5370  -11.6470   -8.6030 O.2   119  LEU119     -0.2864
    117  CB        -2.0380  -14.4280   -7.6730 C.3   119  LEU119      0.0297
    118  CG        -2.2290  -15.8600   -7.1800 C.3   119  LEU119      0.0022
    119  CD1       -1.2810  -16.1490   -6.0100 C.3   119  LEU119      0.0001
    120  CD2       -3.6850  -16.1070   -6.7650 C.3   119  LEU119      0.0001
    121  N          0.6490  -19.0840  -15.5410 N.3   158  SER158     -0.1202
    122  CA         0.0100  -19.6080  -14.3260 C.3   158  SER158      0.2020
    123  C         -0.0360  -21.1290  -14.3910 C.2   158  SER158      0.2619
    124  O         -0.6460  -21.6960  -15.3030 O.2   158  SER158     -0.2717
    125  CB        -1.4150  -19.0530  -14.1510 C.3   158  SER158      0.2103
    126  OG        -2.1320  -19.7750  -13.1360 O.3   158  SER158     -0.2182
    127  N          0.5830  -21.8000  -13.4180 N.am  159  ALA159     -0.1965
    128  CA         0.4000  -23.2430  -13.3230 C.3   159  ALA159      0.1728
    129  C         -1.0190  -23.6100  -12.9120 C.2   159  ALA159      0.2616
    130  O         -1.4540  -24.7400  -13.1630 O.2   159  ALA159     -0.2715
    131  CB         1.3940  -23.8470  -12.3260 C.3   159  ALA159      0.0334
    132  N         -1.7470  -22.6840  -12.2860 N.am  160  LYS160     -0.1977
    133  CA        -3.0840  -22.9890  -11.7810 C.3   160  LYS160      0.1596
    134  C         -4.1240  -22.9660  -12.8940 C.2   160  LYS160      0.2287
    135  O         -4.9550  -23.8730  -13.0010 O.2   160  LYS160     -0.2864
    136  CB        -3.4670  -21.9980  -10.6770 C.3   160  LYS160      0.0298
    137  CG        -4.8240  -22.2930  -10.0450 C.3   160  LYS160      0.0038
    138  CD        -5.0290  -21.4320   -8.7930 C.3   160  LYS160      0.0206
    139  CE        -6.0400  -22.0680   -7.8470 C.3   160  LYS160      0.1093
    140  NZ        -6.2470  -21.2800   -6.5900 N.3   160  LYS160     -0.1314
@<TRIPOS>BOND
     1   121   122    1
     2   124   123    2
     3   123   122    1
     4   123   127   am
     5   122   125    1
     6   125   126    1
     7   127   128    1
     8   128   129    1
     9   128   131    1
    10   130   129    2
    11   135   134    2
    12   129   132   am
    13   134   133    1
    14    89    90    1
    15   105   106    1
    16    42    43    1
    17   132   133    1
    18    90    91    1
    19    90    93    1
    20   106   109    1
    21   106   107    1
    22    95    93    1
    23   133   136    1
    24   109   110    1
    25    40    39    2
    26    91    96   am
    27    91    92    2
    28    81    82    1
    29    93    94    1
    30    96    97    1
    31    98    99    2
    32    98    97    1
    33    43    46    1
    34    43    44    1
    35    39    38    1
    36   111   110   ar
    37   107   108    2
    38   107   113   am
    39    24    23    2
    40    46    47    1
    41   110   112   ar
    42   136   137    1
    43    97   100    1
    44    82    85    1
    45    82    83    1
    46    44    45    2
    47    44    53   am
    48   137   138    1
    49    33    32    2
    50   113   114    1
    51    20    19    2
    52    48    47   ar
    53    48    50   ar
    54    23    22    1
    55    23    30   am
    56    47    49   ar
    57    22    25    1
    58    22    21    1
    59    85    86    1
    60    59    53    1
    61    59    58    1
    62    38    37    1
    63    38    41    1
    64    83    84    2
    65    53    54    1
    66    32    37   am
    67    32    31    1
    68    25    26    1
    69   115   114    1
    70   115   116    2
    71   100   101    1
    72    26    27    1
    73    19    21   am
    74    19    18    1
    75    50    52   ar
    76   138   139    1
    77    86    87   ar
    78    86    88   ar
    79   114   117    1
    80    27    28    1
    81    31    30    1
    82    31    34    1
    83   101   102    1
    84    49    51   ar
    85    54    57    1
    86    54    55    1
    87    13    12    2
    88    58    57    1
    89    18    17    1
    90    16    14    1
    91   139   140    1
    92   117   118    1
    93    52    51   ar
    94    55    56    2
    95    12    17   am
    96    12    11    1
    97    14    11    1
    98    14    15    1
    99    28    29    1
   100   118   120    1
   101   118   119    1
   102    36    34    1
   103    34    35    1
   104   102   103    1
   105    11    10    1
   106   103   104    1
   107    72    73    1
   108    72    71    1
   109    10     7   am
   110    73    67    1
   111    65    64    1
   112    66    64    1
   113     8     7    2
   114     7     6    1
   115    77    76    2
   116    71    68    1
   117    64    61    1
   118    70    69    2
   119    76    75    1
   120    67    68    1
   121    67    62   am
   122    61    62    1
   123    61    60    1
   124     1     2    1
   125     6     5    1
   126     6     9    1
   127     5     3   am
   128    69    68    1
   129    69    74   am
   130    62    63    2
   131     3     2    1
   132     3     4    2
   133    75    74    1
   134    75    78    1
   135    79    78    1
   136    78    80    1
