@<TRIPOS>MOLECULE
tmp/5vcvA00.pdb
 173 165 0 0 0
SMALL
GASTEIGER

@<TRIPOS>ATOM
      1  N         27.0660    5.9100    7.1490 N.3    43  LEU43      -0.1231
      2  CA        26.1850    6.1690    6.0210 C.3    43  LEU43       0.1693
      3  C         25.0040    5.2050    5.9880 C.2    43  LEU43       0.2592
      4  O         23.9480    5.5430    5.4880 O.2    43  LEU43      -0.2718
      5  CB        26.9660    6.0580    4.7110 C.3    43  LEU43       0.0284
      6  CG        28.1010    7.0680    4.5730 C.3    43  LEU43       0.0019
      7  CD1       28.9750    6.6900    3.3940 C.3    43  LEU43       0.0001
      8  CD2       27.5830    8.4400    4.4340 C.3    43  LEU43       0.0001
      9  N         25.1830    4.0000    6.5120 N.am   44  GLY44      -0.1957
     10  CA        24.1370    3.0050    6.4310 C.3    44  GLY44       0.1869
     11  C         24.4440    1.7770    7.2480 C.2    44  GLY44       0.2309
     12  O         25.5450    1.6010    7.6970 O.2    44  GLY44      -0.2863
     13  N         28.1230    0.7390    6.7530 N.3    51  VAL51      -0.1245
     14  CA        28.9020    1.5120    5.7860 C.3    51  VAL51       0.1561
     15  C         29.2620    2.8220    6.4110 C.2    51  VAL51       0.2260
     16  O         28.3790    3.5460    6.8650 O.2    51  VAL51      -0.2867
     17  CB        28.1230    1.7640    4.4940 C.3    51  VAL51       0.0252
     18  CG1       28.9370    2.5800    3.4990 C.3    51  VAL51       0.0019
     19  CG2       27.6870    0.4420    3.8850 C.3    51  VAL51       0.0019
     20  N         31.4800    6.6080    6.1270 N.3    53  LYS53      -0.1245
     21  CA        32.2960    7.6240    5.4730 C.3    53  LYS53       0.1561
     22  C         33.6010    7.7700    6.2310 C.2    53  LYS53       0.2260
     23  O         33.5720    7.9360    7.4370 O.2    53  LYS53      -0.2867
     24  CB        31.5490    8.9500    5.4540 C.3    53  LYS53       0.0271
     25  CG        32.3320   10.1270    4.9240 C.3    53  LYS53       0.0035
     26  CD        31.4530   11.3660    4.8370 C.3    53  LYS53       0.0206
     27  CE        32.2660   12.6060    4.6460 C.3    53  LYS53       0.1093
     28  NZ        31.4070   13.8140    4.7340 N.3    53  LYS53      -0.1314
     29  N         34.0420    5.4900    1.0960 N.3    64  ALA64      -0.1231
     30  CA        33.0560    4.7230    1.8160 C.3    64  ALA64       0.1694
     31  C         33.6420    3.3600    2.1460 C.2    64  ALA64       0.2592
     32  O         34.2470    2.7450    1.2880 O.2    64  ALA64      -0.2718
     33  CB        31.7780    4.5460    0.9910 C.3    64  ALA64       0.0304
     34  N         33.4400    2.8730    3.3710 N.am   65  VAL65      -0.1966
     35  CA        33.8850    1.5140    3.7070 C.3    65  VAL65       0.1727
     36  C         32.7560    0.7350    4.3120 C.2    65  VAL65       0.2616
     37  O         32.1790    1.1430    5.2890 O.2    65  VAL65      -0.2715
     38  CB        35.1090    1.4830    4.6860 C.3    65  VAL65       0.0290
     39  CG1       35.4320    0.0800    5.1070 C.3    65  VAL65       0.0023
     40  CG2       36.2960    2.1320    4.0220 C.3    65  VAL65       0.0023
     41  N         32.4850   -0.4140    3.7030 N.am   66  LYS66      -0.1977
     42  CA        31.5040   -1.3670    4.1830 C.3    66  LYS66       0.1596
     43  C         32.2150   -2.4510    4.9760 C.2    66  LYS66       0.2287
     44  O         33.1750   -3.0390    4.4930 O.2    66  LYS66      -0.2864
     45  CB        30.7480   -2.0130    3.0290 C.3    66  LYS66       0.0298
     46  CG        29.7310   -3.0300    3.5230 C.3    66  LYS66       0.0038
     47  CD        28.7240   -3.4540    2.4790 C.3    66  LYS66       0.0206
     48  CE        29.2880   -4.4560    1.4990 C.3    66  LYS66       0.1093
     49  NZ        28.1910   -5.1990    0.8180 N.3    66  LYS66      -0.1314
     50  N         31.4740  -11.0690   -3.4350 N.3    84  GLU84      -0.1245
     51  CA        31.0990   -9.7040   -3.7780 C.3    84  GLU84       0.1567
     52  C         32.3100   -8.9430   -4.3380 C.2    84  GLU84       0.2260
     53  O         32.1840   -8.0910   -5.2390 O.2    84  GLU84      -0.2867
     54  CB        30.5340   -8.9500   -2.5710 C.3    84  GLU84       0.0388
     55  CG        30.2270   -7.4950   -2.8790 C.3    84  GLU84       0.1160
     56  CD        29.6270   -6.7090   -1.7230 C.2    84  GLU84       0.3649
     57  OE1       29.6380   -7.1870   -0.5750 O.co2  84  GLU84      -0.2457
     58  OE2       29.1890   -5.5720   -1.9730 O.co2  84  GLU84      -0.2457
     59  N         32.5550   -7.2780   -8.0450 N.3    88  HIS88      -0.1241
     60  CA        32.8480   -5.8540   -8.1200 C.3    88  HIS88       0.1621
     61  C         34.0860   -5.6160   -8.9670 C.2    88  HIS88       0.2264
     62  O         34.1110   -4.6610   -9.7580 O.2    88  HIS88      -0.2867
     63  CB        33.0070   -5.2600   -6.6910 C.3    88  HIS88       0.0745
     64  CG        32.6970   -3.7990   -6.6070 C.ar   88  HIS88       0.0817
     65  ND1       32.0220   -3.2400   -5.5370 N.ar   88  HIS88      -0.2268
     66  CD2       32.9490   -2.7850   -7.4680 C.ar   88  HIS88       0.1154
     67  CE1       31.8710   -1.9470   -5.7440 C.ar   88  HIS88       0.1986
     68  NE2       32.4250   -1.6430   -6.9060 N.ar   88  HIS88      -0.2212
     69  N         30.0780    2.5090   -9.2780 N.3    98  VAL98      -0.1245
     70  CA        30.8030    2.8110   -8.0390 C.3    98  VAL98       0.1561
     71  C         32.1170    2.0660   -8.0680 C.2    98  VAL98       0.2260
     72  O         32.1060    0.8540   -8.2130 O.2    98  VAL98      -0.2867
     73  CB        29.9870    2.4250   -6.7930 C.3    98  VAL98       0.0252
     74  CG1       30.8030    2.6640   -5.5100 C.3    98  VAL98       0.0019
     75  CG2       28.7060    3.2110   -6.7460 C.3    98  VAL98       0.0019
     76  N         35.0670   -3.5920    2.3420 N.3   112  LEU112     -0.1245
     77  CA        35.1220   -3.0880    0.9660 C.3   112  LEU112      0.1561
     78  C         35.1980   -1.5720    1.0010 C.2   112  LEU112      0.2260
     79  O         34.3440   -0.9310    1.5880 O.2   112  LEU112     -0.2867
     80  CB        33.8840   -3.5240    0.1660 C.3   112  LEU112      0.0270
     81  CG        34.0180   -4.8790   -0.4990 C.3   112  LEU112      0.0019
     82  CD1       33.9160   -5.9620    0.5380 C.3   112  LEU112      0.0001
     83  CD2       32.9740   -5.0770   -1.5790 C.3   112  LEU112      0.0001
     84  N         35.1310    1.7850   -1.2170 N.3   114  THR114     -0.1203
     85  CA        34.8120    2.3680   -2.5280 C.3   114  THR114      0.1994
     86  C         35.0380    3.8700   -2.5220 C.2   114  THR114      0.2618
     87  O         35.2200    4.4870   -1.4730 O.2   114  THR114     -0.2717
     88  CB        33.3360    2.1240   -2.9650 C.3   114  THR114      0.1784
     89  OG1       32.4360    2.8380   -2.1130 O.3   114  THR114     -0.2211
     90  CG2       32.9600    0.6520   -2.9300 C.3   114  THR114      0.0376
     91  N         34.9670    4.4720   -3.6970 N.am  115  GLU115     -0.1965
     92  CA        34.8300    5.8960   -3.7550 C.3   115  GLU115      0.1733
     93  C         33.6040    6.3180   -2.9640 C.2   115  GLU115      0.2616
     94  O         32.6320    5.5890   -2.8660 O.2   115  GLU115     -0.2715
     95  CB        34.7130    6.3610   -5.2170 C.3   115  GLU115      0.0429
     96  CG        33.5020    5.8620   -5.9160 C.3   115  GLU115      0.1163
     97  CD        33.4650    6.3390   -7.3740 C.2   115  GLU115      0.3649
     98  OE1       33.8480    7.4900   -7.6250 O.co2 115  GLU115     -0.2457
     99  OE2       33.0630    5.5640   -8.2480 O.co2 115  GLU115     -0.2457
    100  N         33.6510    7.5140   -2.4110 N.am  116  LEU116     -0.1963
    101  CA        32.5070    8.0900   -1.7320 C.3   116  LEU116      0.1728
    102  C         31.6520    8.7990   -2.7620 C.2   116  LEU116      0.2616
    103  O         32.1430    9.6350   -3.5120 O.2   116  LEU116     -0.2715
    104  CB        32.9230    9.0880   -0.6420 C.3   116  LEU116      0.0311
    105  CG        31.7950    9.7720    0.1490 C.3   116  LEU116      0.0022
    106  CD1       31.0480    8.7500    0.9390 C.3   116  LEU116      0.0001
    107  CD2       32.3150   10.9030    1.0790 C.3   116  LEU116      0.0001
    108  N         30.3810    8.4600   -2.7920 N.am  117  CYS117     -0.1954
    109  CA        29.4270    9.0850   -3.6980 C.3   117  CYS117      0.1843
    110  C         28.4490    9.9170   -2.8940 C.2   117  CYS117      0.2626
    111  O         28.4910    9.9360   -1.6600 O.2   117  CYS117     -0.2714
    112  CB        28.6880    8.0390   -4.5070 C.3   117  CYS117      0.0997
    113  SG        29.7740    6.9820   -5.5060 S.3   117  CYS117     -0.0797
    114  N         27.5510   10.5960   -3.5930 N.am  118  GLY118     -0.1940
    115  CA        26.4480   11.2520   -2.9290 C.3   118  GLY118      0.1998
    116  C         25.4180   10.2310   -2.4480 C.2   118  GLY118      0.2481
    117  O         25.6590    9.0290   -2.5010 O.2   118  GLY118     -0.2729
    118  N         24.2510   10.7120   -1.9940 N.am  119  PRO119     -0.2715
    119  CA        23.2240    9.8130   -1.4830 C.3   119  PRO119      0.1536
    120  C         22.6520    8.8680   -2.5340 C.2   119  PRO119      0.2599
    121  O         22.7420    9.1310   -3.7330 O.2   119  PRO119     -0.2715
    122  CB        22.1420   10.7600   -0.9950 C.3   119  PRO119      0.0310
    123  CG        22.3080   12.0010   -1.8550 C.3   119  PRO119      0.0237
    124  CD        23.7710   12.1010   -2.1270 C.3   119  PRO119      0.0939
    125  N         22.0030    7.8070   -2.0870 N.am  120  SER120     -0.1950
    126  CA        21.3060    6.9450   -3.0280 C.3   120  SER120      0.1924
    127  C         20.1560    7.6750   -3.6830 C.2   120  SER120      0.2314
    128  O         19.6560    8.6780   -3.1970 O.2   120  SER120     -0.2863
    129  CB        20.7740    5.6910   -2.3500 C.3   120  SER120      0.2116
    130  OG        19.6490    5.9690   -1.5490 O.3   120  SER120     -0.2180
    131  N         17.2700    7.7980   -1.3270 N.3   123  GLN123     -0.1245
    132  CA        17.3360    8.8840   -0.3440 C.3   123  GLN123      0.1566
    133  C         16.9850   10.2050   -0.9340 C.2   123  GLN123      0.2260
    134  O         16.2560   10.9800   -0.3480 O.2   123  GLN123     -0.2867
    135  CB        18.7220    8.9870    0.2510 C.3   123  GLN123      0.0367
    136  CG        18.9980    7.9280    1.2580 C.3   123  GLN123      0.0905
    137  CD        20.4630    7.7760    1.4560 C.2   123  GLN123      0.2608
    138  OE1       21.1270    7.1330    0.6680 O.2   123  GLN123     -0.2717
    139  NE2       20.9800    8.3750    2.5000 N.am  123  GLN123     -0.0878
    140  N         23.7290    5.6890   -6.8150 N.3   167  PHE167     -0.1241
    141  CA        24.2210    6.8010   -6.0330 C.3   167  PHE167      0.1605
    142  C         24.4830    8.0380   -6.8800 C.2   167  PHE167      0.2264
    143  O         25.0660    7.9860   -7.9670 O.2   167  PHE167     -0.2867
    144  CB        25.4810    6.3730   -5.2560 C.3   167  PHE167      0.0534
    145  CG        25.2320    5.2040   -4.3690 C.ar  167  PHE167     -0.0203
    146  CD1       25.2700    3.9010   -4.8610 C.ar  167  PHE167     -0.0042
    147  CD2       24.8570    5.3930   -3.0600 C.ar  167  PHE167     -0.0042
    148  CE1       24.9670    2.7950   -3.9860 C.ar  167  PHE167     -0.0003
    149  CE2       24.5630    4.3120   -2.2400 C.ar  167  PHE167     -0.0003
    150  CZ        24.6280    3.0270   -2.7120 C.ar  167  PHE167     -0.0000
    151  N         25.7670    0.8260   -8.0740 N.3   177  GLY177     -0.1210
    152  CA        26.6000    0.1920   -7.0830 C.3   177  GLY177      0.1956
    153  C         26.0270   -1.1270   -6.6340 C.2   177  GLY177      0.2612
    154  O         25.1570   -1.6570   -7.3180 O.2   177  GLY177     -0.2717
    155  N         26.5270   -1.6390   -5.5030 N.am  178  ASP178     -0.1959
    156  CA        26.0630   -2.8770   -4.8730 C.3   178  ASP178      0.1840
    157  C         26.0610   -4.0800   -5.7990 C.2   178  ASP178      0.2622
    158  O         24.9960   -4.5080   -6.2640 O.2   178  ASP178     -0.2715
    159  CB        24.6580   -2.7220   -4.3330 C.3   178  ASP178      0.1450
    160  CG        24.6300   -2.2070   -2.9580 C.2   178  ASP178      0.3671
    161  OD1       25.1770   -1.1080   -2.7670 O.co2 178  ASP178     -0.2456
    162  OD2       24.0280   -2.8930   -2.0920 O.co2 178  ASP178     -0.2456
    163  N         27.2350   -4.6260   -6.0470 N.am  179  PHE179     -0.1974
    164  CA        27.3770   -5.6960   -7.0470 C.3   179  PHE179      0.1639
    165  C         27.3560   -7.0820   -6.3830 C.2   179  PHE179      0.2290
    166  O         27.8250   -8.0670   -6.9330 O.2   179  PHE179     -0.2864
    167  CB        28.6500   -5.4770   -7.8410 C.3   179  PHE179      0.0560
    168  CG        28.6370   -4.2000   -8.5930 C.ar  179  PHE179     -0.0200
    169  CD1       27.8390   -4.0670   -9.7070 C.ar  179  PHE179     -0.0042
    170  CD2       29.3950   -3.1310   -8.1760 C.ar  179  PHE179     -0.0042
    171  CE1       27.8020   -2.9020  -10.4010 C.ar  179  PHE179     -0.0003
    172  CE2       29.3560   -1.9440   -8.8570 C.ar  179  PHE179     -0.0003
    173  CZ        28.5560   -1.8230   -9.9740 C.ar  179  PHE179     -0.0000
@<TRIPOS>BOND
     1   171   173   ar
     2   171   169   ar
     3   173   172   ar
     4    62    61    2
     5   169   168   ar
     6    69    70    1
     7    61    60    1
     8   172   170   ar
     9   168   170   ar
    10   168   167    1
    11    99    97   ar
    12    72    71    2
    13    60    59    1
    14    60    63    1
    15   151   152    1
    16    71    70    1
    17    70    73    1
    18   143   142    2
    19   167   164    1
    20    98    97   ar
    21    66    68   ar
    22    66    64   ar
    23    97    96    1
    24   154   153    2
    25   152   153    1
    26   164   165    1
    27   164   163    1
    28   166   165    2
    29    68    67   ar
    30   142   141    1
    31   140   141    1
    32    73    75    1
    33    73    74    1
    34    63    64    1
    35   153   155   am
    36    64    65   ar
    37   158   157    2
    38   163   157   am
    39   141   144    1
    40    96    95    1
    41   157   156    1
    42    67    65   ar
    43   113   112    1
    44   155   156    1
    45   144   145    1
    46    53    52    2
    47    95    92    1
    48   156   159    1
    49   146   145   ar
    50   146   148   ar
    51   112   109    1
    52   145   147   ar
    53    52    51    1
    54   159   160    1
    55   148   150   ar
    56    51    50    1
    57    51    54    1
    58    92    91    1
    59    92    93    1
    60   121   120    2
    61   109   110    1
    62   109   108    1
    63    91    86   am
    64   127   128    2
    65   127   126    1
    66   114   115    1
    67   114   110   am
    68   103   102    2
    69   147   149   ar
    70   126   129    1
    71   126   125    1
    72    88    90    1
    73    88    85    1
    74    88    89    1
    75    93    94    2
    76    93   100   am
    77   160   161   ar
    78   160   162   ar
    79   115   116    1
    80   110   111    2
    81    55    54    1
    82    55    56    1
    83   108   102   am
    84   102   101    1
    85   150   149   ar
    86   120   125   am
    87   120   119    1
    88    85    86    1
    89    85    84    1
    90    86    87    2
    91   117   116    2
    92   116   118   am
    93   100   101    1
    94   129   130    1
    95   124   118    1
    96   124   123    1
    97   118   119    1
    98    58    56   ar
    99   123   122    1
   100   101   104    1
   101    56    57   ar
   102    83    81    1
   103   119   122    1
   104   131   132    1
   105   133   134    2
   106   133   132    1
   107   104   105    1
   108    81    80    1
   109    81    82    1
   110   132   135    1
   111   105   106    1
   112   105   107    1
   113    80    77    1
   114   135   136    1
   115   138   137    2
   116    49    48    1
   117    77    78    1
   118    77    76    1
   119    33    30    1
   120    78    79    2
   121    29    30    1
   122   136   137    1
   123    32    31    2
   124   137   139   am
   125    48    47    1
   126    30    31    1
   127    31    34   am
   128    47    46    1
   129    45    46    1
   130    45    42    1
   131    34    35    1
   132     7     6    1
   133    18    17    1
   134    41    42    1
   135    41    36   am
   136    35    36    1
   137    35    38    1
   138    19    17    1
   139    40    38    1
   140    42    43    1
   141    36    37    2
   142     8     6    1
   143    44    43    2
   144    17    14    1
   145     6     5    1
   146    27    28    1
   147    27    26    1
   148    38    39    1
   149     5     2    1
   150    26    25    1
   151    25    24    1
   152    24    21    1
   153    21    20    1
   154    21    22    1
   155     4     3    2
   156    14    15    1
   157    14    13    1
   158     3     2    1
   159     3     9   am
   160     2     1    1
   161    22    23    2
   162    15    16    2
   163    10     9    1
   164    10    11    1
   165    11    12    2
