@<TRIPOS>MOLECULE
tmp/5vcwB00.pdb
 170 161 0 0 0
SMALL
GASTEIGER

@<TRIPOS>ATOM
      1  N          6.0880    1.5840    6.0150 N.3    40  LEU40      -0.1231
      2  CA         6.9370    1.2450    7.1580 C.3    40  LEU40       0.1693
      3  C          8.2270    0.5470    6.7360 C.2    40  LEU40       0.2593
      4  O          9.3000    0.8150    7.2740 O.2    40  LEU40      -0.2718
      5  CB         6.1600    0.3650    8.1500 C.3    40  LEU40       0.0284
      6  CG         4.9480    1.0740    8.7640 C.3    40  LEU40       0.0019
      7  CD1        4.0520    0.1390    9.5420 C.3    40  LEU40       0.0001
      8  CD2        5.3850    2.2830    9.6410 C.3    40  LEU40       0.0001
      9  N          8.1160   -0.3640    5.7770 N.am   41  GLY41      -0.1942
     10  CA         9.2670   -1.1150    5.3200 C.3    41  GLY41       0.2014
     11  C          9.0750   -1.5710    3.8840 C.2    41  GLY41       0.2638
     12  O          7.9850   -1.4460    3.3200 O.2    41  GLY41      -0.2714
     13  N         10.1480   -2.0900    3.2990 N.am   42  HIS42      -0.1973
     14  CA        10.1230   -2.6750    1.9690 C.3    42  HIS42       0.1656
     15  C         11.3520   -3.5550    1.8160 C.2    42  HIS42       0.2291
     16  O         12.4090   -3.2470    2.3690 O.2    42  HIS42      -0.2864
     17  CB        10.0910   -1.6010    0.8830 C.3    42  HIS42       0.0771
     18  CG        11.3480   -0.7950    0.7990 C.ar   42  HIS42       0.0820
     19  ND1       11.5830    0.3030    1.5990 N.ar   42  HIS42      -0.2267
     20  CD2       12.4400   -0.9270    0.0110 C.ar   42  HIS42       0.1154
     21  CE1       12.7650    0.8140    1.3050 C.ar   42  HIS42       0.1986
     22  NE2       13.3050    0.0870    0.3430 N.ar   42  HIS42      -0.2212
     23  N          5.5180   -3.1380    3.5060 N.3    48  VAL48      -0.1245
     24  CA         4.6460   -3.0010    4.6680 C.3    48  VAL48       0.1561
     25  C          4.1880   -1.5570    4.8090 C.2    48  VAL48       0.2260
     26  O          5.0110   -0.6590    4.9020 O.2    48  VAL48      -0.2867
     27  CB         5.3580   -3.4390    5.9710 C.3    48  VAL48       0.0252
     28  CG1        4.4160   -3.3010    7.1560 C.3    48  VAL48       0.0019
     29  CG2        5.8690   -4.8690    5.8400 C.3    48  VAL48       0.0019
     30  N          1.5630    1.5240    6.6090 N.3    50  LYS50      -0.1245
     31  CA         0.7930    1.9710    7.7490 C.3    50  LYS50       0.1561
     32  C         -0.4890    2.4350    7.0900 C.2    50  LYS50       0.2260
     33  O         -0.4300    3.1330    6.1140 O.2    50  LYS50      -0.2867
     34  CB         1.4380    3.1360    8.4860 C.3    50  LYS50       0.0271
     35  CG         0.6290    3.5360    9.7050 C.3    50  LYS50       0.0035
     36  CD         1.1790    4.7170   10.4930 C.3    50  LYS50       0.0206
     37  CE         2.6930    4.8280   10.4400 C.3    50  LYS50       0.1093
     38  NZ         3.3140    5.2320   11.7320 N.3    50  LYS50      -0.1314
     39  N         -1.4370   -2.2730   10.1350 N.3    61  ALA61      -0.1245
     40  CA        -0.2990   -2.4750    9.2540 C.3    61  ALA61       0.1562
     41  C         -0.6630   -3.5270    8.2070 C.2    61  ALA61       0.2260
     42  O         -1.1460   -4.5990    8.5540 O.2    61  ALA61      -0.2867
     43  CB         0.9140   -2.8960   10.0370 C.3    61  ALA61       0.0290
     44  N          0.8950   -5.8010    5.0910 N.3    63  LYS63      -0.1245
     45  CA         1.9950   -6.2660    4.2490 C.3    63  LYS63       0.1561
     46  C          1.4810   -6.7650    2.9010 C.2    63  LYS63       0.2260
     47  O          0.5210   -7.5300    2.8370 O.2    63  LYS63      -0.2867
     48  CB         2.7900   -7.3790    4.9190 C.3    63  LYS63       0.0271
     49  CG         3.9530   -7.8690    4.0650 C.3    63  LYS63       0.0035
     50  CD         5.0070   -8.6050    4.8880 C.3    63  LYS63       0.0206
     51  CE         4.6520  -10.0670    5.0330 C.3    63  LYS63       0.1093
     52  NZ         5.7920  -10.9280    4.6060 N.3    63  LYS63      -0.1314
     53  N          0.4070  -17.6240   11.2590 N.3    85  HIS85      -0.1241
     54  CA        -0.0410  -16.5660   12.1500 C.3    85  HIS85       0.1621
     55  C         -1.3190  -16.9910   12.8620 C.2    85  HIS85       0.2264
     56  O         -1.5290  -16.6650   14.0290 O.2    85  HIS85      -0.2867
     57  CB        -0.2650  -15.2590   11.3750 C.3    85  HIS85       0.0745
     58  CG        -0.0920  -14.0270   12.2110 C.ar   85  HIS85       0.0817
     59  ND1        0.6880  -12.9620   11.8150 N.ar   85  HIS85      -0.2268
     60  CD2       -0.6020  -13.6920   13.4220 C.ar   85  HIS85       0.1154
     61  CE1        0.6520  -12.0240   12.7470 C.ar   85  HIS85       0.1986
     62  NE2       -0.1190  -12.4450   13.7350 N.ar   85  HIS85      -0.2212
     63  N          1.3910  -10.0990   18.3800 N.3    95  VAL95      -0.1245
     64  CA         0.7160   -9.2660   17.3970 C.3    95  VAL95       0.1561
     65  C         -0.5100  -10.0290   16.9120 C.2    95  VAL95       0.2260
     66  O         -0.4240  -11.2200   16.5930 O.2    95  VAL95      -0.2867
     67  CB         1.6460   -8.9120   16.1950 C.3    95  VAL95       0.0252
     68  CG1        0.8820   -8.1850   15.1330 C.3    95  VAL95       0.0019
     69  CG2        2.8560   -8.1030   16.6580 C.3    95  VAL95       0.0019
     70  N         -1.5860   -9.1010    4.1530 N.3   109  LEU109     -0.1245
     71  CA        -1.7390   -9.4500    5.5650 C.3   109  LEU109      0.1561
     72  C         -1.9860   -8.2010    6.4120 C.2   109  LEU109      0.2260
     73  O         -1.1450   -7.3070    6.4660 O.2   109  LEU109     -0.2867
     74  CB        -0.5050  -10.1880    6.0850 C.3   109  LEU109      0.0270
     75  CG        -0.5330  -11.7190    6.0210 C.3   109  LEU109      0.0019
     76  CD1       -0.4840  -12.1560    4.5700 C.3   109  LEU109      0.0001
     77  CD2        0.5960  -12.3920    6.8230 C.3   109  LEU109      0.0001
     78  N         -2.4010   -6.6900   10.0120 N.3   111  THR111     -0.1203
     79  CA        -2.2350   -6.8480   11.4640 C.3   111  THR111      0.1994
     80  C         -2.4870   -5.5410   12.2140 C.2   111  THR111      0.2618
     81  O         -2.6940   -4.4820   11.6080 O.2   111  THR111     -0.2717
     82  CB        -0.8240   -7.3480   11.8390 C.3   111  THR111      0.1784
     83  OG1        0.1180   -6.2900   11.6540 O.3   111  THR111     -0.2211
     84  CG2       -0.4190   -8.5450   10.9770 C.3   111  THR111      0.0376
     85  N         -2.4900   -5.6130   13.5380 N.am  112  GLU112     -0.1965
     86  CA        -2.6250   -4.3990   14.3250 C.3   112  GLU112      0.1733
     87  C         -1.3400   -3.6050   14.1520 C.2   112  GLU112      0.2616
     88  O         -0.2650   -4.1770   13.9510 O.2   112  GLU112     -0.2715
     89  CB        -2.8910   -4.7110   15.7980 C.3   112  GLU112      0.0429
     90  CG        -1.7540   -5.4420   16.5160 C.3   112  GLU112      0.1163
     91  CD        -2.0420   -5.6400   17.9950 C.2   112  GLU112      0.3649
     92  OE1       -2.9050   -4.9170   18.5290 O.co2 112  GLU112     -0.2457
     93  OE2       -1.4100   -6.5150   18.6230 O.co2 112  GLU112     -0.2457
     94  N         -1.4520   -2.2870   14.1800 N.am  113  LEU113     -0.1963
     95  CA        -0.2760   -1.4370   14.1450 C.3   113  LEU113      0.1728
     96  C          0.3400   -1.3970   15.5350 C.2   113  LEU113      0.2616
     97  O         -0.3620   -1.1840   16.5320 O.2   113  LEU113     -0.2715
     98  CB        -0.6360   -0.0300   13.6680 C.3   113  LEU113      0.0311
     99  CG         0.5420    0.9370   13.5320 C.3   113  LEU113      0.0022
    100  CD1        1.5500    0.4010   12.5260 C.3   113  LEU113      0.0001
    101  CD2        0.0680    2.3430   13.1530 C.3   113  LEU113      0.0001
    102  N          1.6460   -1.6170   15.6150 N.am  114  CYS114     -0.1954
    103  CA         2.3410   -1.4380   16.8840 C.3   114  CYS114      0.1843
    104  C          3.2830   -0.2340   16.8430 C.2   114  CYS114      0.2626
    105  O          3.3440    0.4860   15.8400 O.2   114  CYS114     -0.2714
    106  CB         3.1020   -2.7110   17.2370 C.3   114  CYS114      0.0997
    107  SG         1.9990   -4.1130   17.2680 S.3   114  CYS114     -0.0797
    108  N          4.0030   -0.0070   17.9360 N.am  115  GLY115     -0.1940
    109  CA         5.0390    1.0110   17.9550 C.3   115  GLY115      0.1998
    110  C          6.2450    0.4580   17.2230 C.2   115  GLY115      0.2481
    111  O          6.2000   -0.6610   16.7040 O.2   115  GLY115     -0.2729
    112  N          7.3350    1.2270   17.1840 N.am  116  PRO116     -0.2715
    113  CA         8.5510    0.8140   16.4720 C.3   116  PRO116      0.1536
    114  C          9.0620   -0.5460   16.9070 C.2   116  PRO116      0.2599
    115  O          8.8040   -0.9610   18.0380 O.2   116  PRO116     -0.2715
    116  CB         9.5670    1.9050   16.8450 C.3   116  PRO116      0.0310
    117  CG         9.0310    2.4890   18.1340 C.3   116  PRO116      0.0237
    118  CD         7.5410    2.4630   17.9610 C.3   116  PRO116      0.0939
    119  N          9.7800   -1.2340   16.0180 N.am  117  SER117     -0.1950
    120  CA        10.4650   -2.4520   16.4070 C.3   117  SER117      0.1924
    121  C         11.4630   -2.1270   17.5130 C.2   117  SER117      0.2314
    122  O         11.8220   -0.9600   17.7330 O.2   117  SER117     -0.2863
    123  CB        11.1910   -3.0840   15.2180 C.3   117  SER117      0.2116
    124  OG        12.3540   -2.3290   14.8910 O.3   117  SER117     -0.2180
    125  N         14.4770   -3.1370   17.3900 N.3   119  GLN119     -0.1231
    126  CA        15.6030   -2.7150   16.5660 C.3   119  GLN119      0.1698
    127  C         15.5650   -1.1860   16.2850 C.2   119  GLN119      0.2592
    128  O         16.5600   -0.4950   16.4970 O.2   119  GLN119     -0.2718
    129  CB        15.6000   -3.5020   15.2430 C.3   119  GLN119      0.0381
    130  CG        16.6830   -3.1140   14.2520 C.3   119  GLN119      0.0905
    131  CD        16.5410   -3.8270   12.9150 C.2   119  GLN119      0.2608
    132  OE1       15.4400   -3.9560   12.3650 O.2   119  GLN119     -0.2717
    133  NE2       17.6580   -4.2960   12.3880 N.am  119  GLN119     -0.0878
    134  N         14.4450   -0.6630   15.7890 N.am  120  GLN120     -0.1979
    135  CA        14.3450    0.8030   15.5560 C.3   120  GLN120      0.1601
    136  C         14.6350    1.5620   16.8480 C.2   120  GLN120      0.2287
    137  O         15.3780    2.5470   16.8680 O.2   120  GLN120     -0.2864
    138  CB        12.9590    1.2070   15.0550 C.3   120  GLN120      0.0394
    139  CG        12.5740    0.6750   13.7020 C.3   120  GLN120      0.0908
    140  CD        11.1650    1.0800   13.3150 C.2   120  GLN120      0.2608
    141  OE1       10.1890    0.5100   13.7920 O.2   120  GLN120     -0.2717
    142  NE2       11.0550    2.0800   12.4520 N.am  120  GLN120     -0.0878
    143  N         18.4150    1.5420   17.7210 N.3   123  GLU123     -0.1245
    144  CA        19.1850    2.3920   16.8250 C.3   123  GLU123      0.1567
    145  C         19.0110    3.8330   17.2370 C.2   123  GLU123      0.2260
    146  O         19.9710    4.5920   17.2290 O.2   123  GLU123     -0.2867
    147  CB        18.7820    2.2000   15.3540 C.3   123  GLU123      0.0388
    148  CG        18.8480    0.7470   14.8890 C.3   123  GLU123      0.1160
    149  CD        18.7860    0.5880   13.3730 C.2   123  GLU123      0.3649
    150  OE1       19.8690    0.4840   12.7580 O.co2 123  GLU123     -0.2457
    151  OE2       17.6730    0.5530   12.7980 O.co2 123  GLU123     -0.2457
    152  N          7.8900   -5.6930   18.7350 N.3   164  PHE164     -0.1241
    153  CA         7.3280   -4.3680   18.5200 C.3   164  PHE164      0.1605
    154  C          6.8510   -3.7390   19.8270 C.2   164  PHE164      0.2264
    155  O          6.0520   -4.3300   20.5540 O.2   164  PHE164     -0.2867
    156  CB         6.1760   -4.4580   17.5020 C.3   164  PHE164      0.0534
    157  CG         6.5790   -5.0570   16.1700 C.ar  164  PHE164     -0.0203
    158  CD1        7.0920   -4.2570   15.1570 C.ar  164  PHE164     -0.0042
    159  CD2        6.4570   -6.4130   15.9410 C.ar  164  PHE164     -0.0042
    160  CE1        7.4750   -4.8030   13.9310 C.ar  164  PHE164     -0.0003
    161  CE2        6.8390   -6.9790   14.7160 C.ar  164  PHE164     -0.0003
    162  CZ         7.3450   -6.1750   13.7070 C.ar  164  PHE164     -0.0000
    163  N          5.5580  -11.1910   13.4930 N.3   175  ASP175     -0.1239
    164  CA         6.1220  -11.7490   12.2760 C.3   175  ASP175      0.1674
    165  C          6.2820  -13.2320   12.3590 C.2   175  ASP175      0.2266
    166  O          7.3530  -13.7290   12.4940 O.2   175  ASP175     -0.2867
    167  CB         7.4310  -11.0970   11.8870 C.3   175  ASP175      0.1410
    168  CG         7.7620  -11.2820   10.4190 C.2   175  ASP175      0.3668
    169  OD1        7.1110  -12.0590    9.7220 O.co2 175  ASP175     -0.2456
    170  OD2        8.6840  -10.6350    9.9570 O.co2 175  ASP175     -0.2456
@<TRIPOS>BOND
     1    20    22   ar
     2    20    18   ar
     3    22    21   ar
     4    18    17    1
     5    18    19   ar
     6    17    14    1
     7    21    19   ar
     8    15    14    1
     9    15    16    2
    10    14    13    1
    11    47    46    2
    12    46    45    1
    13    13    11   am
    14    12    11    2
    15    23    24    1
    16    11    10    1
    17    49    50    1
    18    49    48    1
    19    70    71    1
    20    45    48    1
    21    45    44    1
    22    76    75    1
    23    52    51    1
    24    24    25    1
    25    24    27    1
    26    25    26    2
    27    50    51    1
    28    10     9    1
    29    71    74    1
    30    71    72    1
    31     9     3   am
    32    29    27    1
    33    27    28    1
    34     1     2    1
    35    75    74    1
    36    75    77    1
    37    33    32    2
    38    72    73    2
    39    30    31    1
    40     3     2    1
    41     3     4    2
    42    32    31    1
    43     2     5    1
    44    31    34    1
    45     5     6    1
    46    41    42    2
    47    41    40    1
    48    34    35    1
    49     6     7    1
    50     6     8    1
    51    40    43    1
    52    40    39    1
    53    35    36    1
    54   169   168   ar
    55   170   168   ar
    56    78    79    1
    57   168   167    1
    58    37    36    1
    59    37    38    1
    60    84    82    1
    61    53    54    1
    62    57    54    1
    63    57    58    1
    64    79    82    1
    65    79    80    1
    66    81    80    2
    67    83    82    1
    68    59    58   ar
    69    59    61   ar
    70   167   164    1
    71    54    55    1
    72    58    60   ar
    73    80    85   am
    74   164   165    1
    75   164   163    1
    76   165   166    2
    77   132   131    2
    78   133   131   am
    79   142   140   am
    80   100    99    1
    81    61    62   ar
    82   150   149   ar
    83   151   149   ar
    84    55    56    2
    85   131   130    1
    86   101    99    1
    87   140   139    1
    88   140   141    2
    89   149   148    1
    90    60    62   ar
    91    99    98    1
    92    85    86    1
    93    98    95    1
    94   139   138    1
    95   162   160   ar
    96   162   161   ar
    97   160   158   ar
    98    88    87    2
    99    95    94    1
   100    95    96    1
   101    87    94   am
   102    87    86    1
   103   130   129    1
   104    86    89    1
   105   161   159   ar
   106   148   147    1
   107   124   123    1
   108   138   135    1
   109    68    67    1
   110   158   157   ar
   111   123   120    1
   112   129   126    1
   113   147   144    1
   114    96   102   am
   115    96    97    2
   116   135   134    1
   117   135   136    1
   118   102   103    1
   119   134   127   am
   120    89    90    1
   121   105   104    2
   122   159   157   ar
   123   119   120    1
   124   119   114   am
   125   157   156    1
   126    67    69    1
   127    67    64    1
   128   127   128    2
   129   127   126    1
   130   120   121    1
   131   113   116    1
   132   113   114    1
   133   113   112    1
   134    90    91    1
   135   126   125    1
   136    66    65    2
   137   111   110    2
   138   144   145    1
   139   144   143    1
   140   104   103    1
   141   104   108   am
   142   116   117    1
   143   136   137    2
   144   103   106    1
   145   114   115    2
   146    65    64    1
   147   112   110   am
   148   112   118    1
   149   110   109    1
   150   146   145    2
   151   106   107    1
   152    64    63    1
   153   156   153    1
   154   121   122    2
   155   108   109    1
   156   118   117    1
   157    91    92   ar
   158    91    93   ar
   159   153   152    1
   160   153   154    1
   161   154   155    2
