@<TRIPOS>MOLECULE
tmp/5vcyA00.pdb
 177 166 0 0 0
SMALL
GASTEIGER

@<TRIPOS>ATOM
      1  N         -9.8830   -4.5220  -11.4730 N.3    48  SER48      -0.1217
      2  CA       -10.0420   -5.8080  -10.8220 C.3    48  SER48       0.1889
      3  C        -11.4730   -5.9810  -10.3740 C.2    48  SER48       0.2288
      4  O        -12.2300   -5.0070  -10.2910 O.2    48  SER48      -0.2866
      5  CB        -9.0910   -5.9430   -9.6280 C.3    48  SER48       0.2089
      6  OG        -9.3630   -4.9890   -8.6200 O.3    48  SER48      -0.2183
      7  N        -13.5750   -6.6300   -7.3000 N.3    50  LEU50      -0.1231
      8  CA       -13.5120   -6.5420   -5.8440 C.3    50  LEU50       0.1693
      9  C        -14.4390   -7.5370   -5.1730 C.2    50  LEU50       0.2592
     10  O        -14.1470   -8.0220   -4.0820 O.2    50  LEU50      -0.2718
     11  CB       -13.8660   -5.1280   -5.3990 C.3    50  LEU50       0.0284
     12  CG       -12.8550   -4.0420   -5.7500 C.3    50  LEU50       0.0019
     13  CD1      -13.4700   -2.6870   -5.4640 C.3    50  LEU50       0.0001
     14  CD2      -11.5900   -4.2230   -4.9510 C.3    50  LEU50       0.0001
     15  N        -15.5660   -7.8280   -5.8140 N.am   51  GLY51      -0.1957
     16  CA       -16.5320   -8.7560   -5.2570 C.3    51  GLY51       0.1869
     17  C        -17.5470   -9.1870   -6.2820 C.2    51  GLY51       0.2309
     18  O        -17.6770   -8.5720   -7.3410 O.2    51  GLY51      -0.2863
     19  N        -18.7680   -6.0640   -8.2650 N.3    58  VAL58      -0.1245
     20  CA       -18.1690   -4.7810   -7.9260 C.3    58  VAL58       0.1561
     21  C        -16.7470   -4.7630   -8.4590 C.2    58  VAL58       0.2260
     22  O        -15.9460   -5.6530   -8.1530 O.2    58  VAL58      -0.2867
     23  CB       -18.1600   -4.5250   -6.4040 C.3    58  VAL58       0.0252
     24  CG1      -17.4430   -3.2090   -6.0740 C.3    58  VAL58       0.0019
     25  CG2      -19.5900   -4.5230   -5.8610 C.3    58  VAL58       0.0019
     26  N        -13.0970   -2.5250   -9.1430 N.3    60  LYS60      -0.1245
     27  CA       -12.1780   -1.4040   -8.9920 C.3    60  LYS60       0.1561
     28  C        -11.8980   -0.8840  -10.3860 C.2    60  LYS60       0.2260
     29  O        -11.5080   -1.6480  -11.2810 O.2    60  LYS60      -0.2867
     30  CB       -10.8870   -1.8420   -8.2930 C.3    60  LYS60       0.0271
     31  CG        -9.8410   -0.7500   -8.1080 C.3    60  LYS60       0.0035
     32  CD        -8.6210   -1.2980   -7.3770 C.3    60  LYS60       0.0206
     33  CE        -7.5400   -0.2760   -7.1970 C.3    60  LYS60       0.1093
     34  NZ        -6.4610   -0.7940   -6.2920 N.3    60  LYS60      -0.1314
     35  N        -15.0240    2.5130   -7.0900 N.3    71  ALA71      -0.1231
     36  CA       -15.6650    1.2040   -7.1200 C.3    71  ALA71       0.1694
     37  C        -16.9670    1.3520   -7.9010 C.2    71  ALA71       0.2592
     38  O        -17.6860    2.3440   -7.7340 O.2    71  ALA71      -0.2718
     39  CB       -15.9150    0.6790   -5.7060 C.3    71  ALA71       0.0304
     40  N        -17.2470    0.3980   -8.7840 N.am   72  VAL72      -0.1966
     41  CA       -18.5010    0.4040   -9.5360 C.3    72  VAL72       0.1727
     42  C        -19.2080   -0.9330   -9.3690 C.2    72  VAL72       0.2616
     43  O        -18.6470   -1.9840   -9.6660 O.2    72  VAL72      -0.2715
     44  CB       -18.2910    0.6860  -11.0290 C.3    72  VAL72       0.0290
     45  CG1      -19.6060    0.4370  -11.8240 C.3    72  VAL72       0.0023
     46  CG2      -17.7820    2.1150  -11.2360 C.3    72  VAL72       0.0023
     47  N        -20.4410   -0.8730   -8.8680 N.am   73  LYS73      -0.1977
     48  CA       -21.2930   -2.0400   -8.7710 C.3    73  LYS73       0.1596
     49  C        -22.1730   -2.0970  -10.0040 C.2    73  LYS73       0.2287
     50  O        -22.8620   -1.1200  -10.3180 O.2    73  LYS73      -0.2864
     51  CB       -22.1570   -2.0140   -7.5110 C.3    73  LYS73       0.0298
     52  CG       -23.0720   -3.2260   -7.4430 C.3    73  LYS73       0.0038
     53  CD       -23.7650   -3.3890   -6.1130 C.3    73  LYS73       0.0206
     54  CE       -25.0280   -2.5600   -5.9860 C.3    73  LYS73       0.1093
     55  NZ       -25.8960   -3.0160   -4.8170 N.3    73  LYS73      -0.1314
     56  N        -31.9160    1.9650   -4.4160 N.3    91  GLU91      -0.1245
     57  CA       -30.6220    2.0610   -3.7460 C.3    91  GLU91       0.1567
     58  C        -30.0030    3.4370   -3.9630 C.2    91  GLU91       0.2260
     59  O        -29.3920    4.0050   -3.0580 O.2    91  GLU91      -0.2867
     60  CB       -29.6560    0.9720   -4.2280 C.3    91  GLU91       0.0388
     61  CG       -28.3050    1.0300   -3.5160 C.3    91  GLU91       0.1160
     62  CD       -27.3750   -0.1320   -3.8100 C.2    91  GLU91       0.3649
     63  OE1      -27.6940   -0.9830   -4.6610 O.co2  91  GLU91      -0.2457
     64  OE2      -26.2950   -0.1860   -3.1690 O.co2  91  GLU91      -0.2457
     65  N        -29.1200    6.0580   -1.0350 N.3    95  HIS95      -0.1241
     66  CA       -27.7490    6.4900   -0.9030 C.3    95  HIS95       0.1621
     67  C        -27.7610    8.0120   -0.9160 C.2    95  HIS95       0.2264
     68  O        -26.9490    8.6590   -0.2440 O.2    95  HIS95      -0.2867
     69  CB       -26.8880    5.9060   -2.0430 C.3    95  HIS95       0.0745
     70  CG       -25.4590    5.7030   -1.6770 C.ar   95  HIS95       0.0817
     71  ND1      -24.7660    4.5520   -1.9810 N.ar   95  HIS95      -0.2268
     72  CD2      -24.5930    6.5070   -1.0220 C.ar   95  HIS95       0.1154
     73  CE1      -23.5250    4.6600   -1.5350 C.ar   95  HIS95       0.1986
     74  NE2      -23.3960    5.8340   -0.9480 N.ar   95  HIS95      -0.2212
     75  N        -19.9460    5.8870    2.9990 N.3   105  VAL105     -0.1245
     76  CA       -19.3630    5.8260    1.6580 C.3   105  VAL105      0.1561
     77  C        -20.1310    6.7650    0.7380 C.2   105  VAL105      0.2260
     78  O        -21.3630    6.7290    0.6870 O.2   105  VAL105     -0.2867
     79  CB       -19.3820    4.3850    1.0760 C.3   105  VAL105      0.0252
     80  CG1      -18.8410    4.3750   -0.3710 C.3   105  VAL105      0.0019
     81  CG2      -18.6040    3.4300    1.9770 C.3   105  VAL105      0.0019
     82  N        -23.6320    1.6930  -10.1070 N.3   119  LEU119     -0.1245
     83  CA       -23.3990    2.6340   -9.0060 C.3   119  LEU119      0.1561
     84  C        -21.9110    2.8340   -8.8370 C.2   119  LEU119      0.2260
     85  O        -21.1840    1.8780   -8.6280 O.2   119  LEU119     -0.2867
     86  CB       -23.9880    2.1330   -7.6810 C.3   119  LEU119      0.0270
     87  CG       -25.3880    2.6180   -7.3350 C.3   119  LEU119      0.0019
     88  CD1      -26.3880    2.0270   -8.3070 C.3   119  LEU119      0.0001
     89  CD2      -25.7540    2.2600   -5.9100 C.3   119  LEU119      0.0001
     90  N        -19.0660    4.5320   -6.5820 N.3   121  THR121     -0.1203
     91  CA       -18.7390    5.1230   -5.2790 C.3   121  THR121      0.1994
     92  C        -17.2600    5.4320   -5.2030 C.2   121  THR121      0.2618
     93  O        -16.4670    4.9490   -6.0070 O.2   121  THR121     -0.2717
     94  CB       -19.0550    4.1880   -4.0830 C.3   121  THR121      0.1784
     95  OG1      -18.1850    3.0510   -4.1280 O.3   121  THR121     -0.2211
     96  CG2      -20.4990    3.7410   -4.0690 C.3   121  THR121      0.0376
     97  N        -16.8810    6.2210   -4.2100 N.am  122  GLU122     -0.1965
     98  CA       -15.4830    6.3220   -3.8760 C.3   122  GLU122      0.1733
     99  C        -14.9380    4.9110   -3.6110 C.2   122  GLU122      0.2616
    100  O        -15.6640    4.0060   -3.1530 O.2   122  GLU122     -0.2715
    101  CB       -15.2690    7.2320   -2.6640 C.3   122  GLU122      0.0429
    102  CG       -15.9330    6.7600   -1.3910 C.3   122  GLU122      0.1163
    103  CD       -15.6900    7.7030   -0.2290 C.2   122  GLU122      0.3649
    104  OE1      -14.5830    8.2850   -0.1590 O.co2 122  GLU122     -0.2457
    105  OE2      -16.6010    7.8660    0.6130 O.co2 122  GLU122     -0.2457
    106  N        -13.6690    4.7180   -3.9350 N.am  123  LEU123     -0.1963
    107  CA       -12.9710    3.4980   -3.5800 C.3   123  LEU123      0.1728
    108  C        -12.4370    3.6310   -2.1590 C.2   123  LEU123      0.2616
    109  O        -11.6920    4.5560   -1.8410 O.2   123  LEU123     -0.2715
    110  CB       -11.8330    3.2080   -4.5630 C.3   123  LEU123      0.0311
    111  CG       -11.0490    1.9180   -4.2910 C.3   123  LEU123      0.0022
    112  CD1      -11.8960    0.6650   -4.5490 C.3   123  LEU123      0.0001
    113  CD2       -9.8110    1.8970   -5.1380 C.3   123  LEU123      0.0001
    114  N        -12.8270    2.6940   -1.3080 N.am  124  CYS124     -0.1954
    115  CA       -12.3350    2.6570    0.0610 C.3   124  CYS124      0.1843
    116  C        -11.2400    1.6120    0.2290 C.2   124  CYS124      0.2626
    117  O        -10.8850    0.8850   -0.7140 O.2   124  CYS124     -0.2714
    118  CB       -13.4880    2.3800    1.0230 C.3   124  CYS124      0.0997
    119  SG       -14.7740    3.6290    0.9750 S.3   124  CYS124     -0.0797
    120  N        -10.6970    1.5480    1.4380 N.am  125  GLY125     -0.1940
    121  CA        -9.7750    0.4960    1.7920 C.3   125  GLY125      0.1998
    122  C        -10.5580   -0.7750    2.0350 C.2   125  GLY125      0.2481
    123  O        -11.7620   -0.8070    1.7910 O.2   125  GLY125     -0.2729
    124  N         -9.8830   -1.8330    2.5170 N.am  126  PRO126     -0.2715
    125  CA       -10.5410   -3.1240    2.7370 C.3   126  PRO126      0.1536
    126  C        -11.7210   -3.0440    3.6830 C.2   126  PRO126      0.2599
    127  O        -11.7380   -2.2250    4.6080 O.2   126  PRO126     -0.2715
    128  CB        -9.4380   -3.9880    3.3470 C.3   126  PRO126      0.0310
    129  CG        -8.4300   -3.0460    3.8190 C.3   126  PRO126      0.0237
    130  CD        -8.4720   -1.8750    2.9190 C.3   126  PRO126      0.0939
    131  N        -12.7000   -3.9120    3.4540 N.am  127  SER127     -0.1950
    132  CA       -13.7820   -4.0620    4.3990 C.3   127  SER127      0.1924
    133  C        -13.2190   -4.6050    5.7040 C.2   127  SER127      0.2314
    134  O        -12.1480   -5.2100    5.7340 O.2   127  SER127     -0.2863
    135  CB       -14.8500   -5.0030    3.8730 C.3   127  SER127      0.2116
    136  OG       -14.3530   -6.3310    3.8830 O.3   127  SER127     -0.2180
    137  N        -12.4890   -8.2110    5.2980 N.3   130  GLN130     -0.1245
    138  CA       -11.2150   -8.4580    4.6150 C.3   130  GLN130      0.1566
    139  C        -10.0310   -8.2230    5.5390 C.2   130  GLN130      0.2260
    140  O         -9.0650   -8.9900    5.5600 O.2   130  GLN130     -0.2867
    141  CB       -11.1010   -7.5530    3.3680 C.3   130  GLN130      0.0367
    142  CG       -12.0900   -7.8990    2.2610 C.3   130  GLN130      0.0905
    143  CD       -12.0380   -6.9740    1.0280 C.2   130  GLN130      0.2608
    144  OE1      -12.1500   -5.7420    1.1200 O.2   130  GLN130     -0.2717
    145  NE2      -11.8990   -7.5880   -0.1360 N.am  130  GLN130     -0.0878
    146  N        -18.6060   -6.9030    6.2370 N.3   171  ALA171     -0.1231
    147  CA       -18.3620   -6.7540    4.8130 C.3   171  ALA171      0.1694
    148  C        -18.7830   -5.3990    4.2190 C.2   171  ALA171      0.2592
    149  O        -18.4110   -5.0980    3.0890 O.2   171  ALA171     -0.2718
    150  CB       -19.0510   -7.8660    4.0610 C.3   171  ALA171      0.0304
    151  N        -19.5430   -4.5690    4.9220 N.am  172  ASN172     -0.1974
    152  CA       -19.8390   -3.2450    4.3520 C.3   172  ASN172      0.1688
    153  C        -19.4860   -2.1110    5.2880 C.2   172  ASN172      0.2292
    154  O        -20.1430   -1.0650    5.3150 O.2   172  ASN172     -0.2864
    155  CB       -21.3010   -3.1520    3.9220 C.3   172  ASN172      0.1181
    156  CG       -22.2570   -3.5000    5.0320 C.2   172  ASN172      0.2629
    157  OD1      -21.9690   -3.2750    6.2050 O.2   172  ASN172     -0.2716
    158  ND2      -23.4120   -4.0460    4.6700 N.am  172  ASN172     -0.0877
    159  N        -15.8920   -0.1210    5.6830 N.3   174  PHE174     -0.1241
    160  CA       -14.6280   -0.0400    4.9650 C.3   174  PHE174      0.1605
    161  C        -13.6110    0.8420    5.6450 C.2   174  PHE174      0.2264
    162  O        -13.9100    1.9610    6.0800 O.2   174  PHE174     -0.2867
    163  CB       -14.8860    0.4510    3.5540 C.3   174  PHE174      0.0534
    164  CG       -15.7570   -0.4720    2.7820 C.ar  174  PHE174     -0.0203
    165  CD1      -15.2100   -1.5620    2.1280 C.ar  174  PHE174     -0.0042
    166  CD2      -17.1310   -0.2910    2.7510 C.ar  174  PHE174     -0.0042
    167  CE1      -16.0180   -2.4460    1.4390 C.ar  174  PHE174     -0.0003
    168  CE2      -17.9370   -1.1700    2.0620 C.ar  174  PHE174     -0.0003
    169  CZ       -17.3810   -2.2470    1.4060 C.ar  174  PHE174     -0.0000
    170  N        -23.1680    0.3070    1.4300 N.3   185  ASP185     -0.1239
    171  CA       -24.1370   -0.7190    1.0440 C.3   185  ASP185      0.1674
    172  C        -25.5540   -0.3770    1.5160 C.2   185  ASP185      0.2266
    173  O        -26.0800   -0.9800    2.4540 O.2   185  ASP185     -0.2867
    174  CB       -23.6950   -2.0770    1.5930 C.3   185  ASP185      0.1410
    175  CG       -24.4040   -3.2330    0.9420 C.2   185  ASP185      0.3668
    176  OD1      -24.9640   -3.0340   -0.1480 O.co2 185  ASP185     -0.2456
    177  OD2      -24.3770   -4.3530    1.5100 O.co2 185  ASP185     -0.2456
@<TRIPOS>BOND
     1    45    44    1
     2     1     2    1
     3    29    28    2
     4    46    44    1
     5    44    41    1
     6     2     3    1
     7     2     5    1
     8    28    27    1
     9     3     4    2
    10    50    49    2
    11    82    83    1
    12    49    48    1
    13    43    42    2
    14     5     6    1
    15    41    42    1
    16    41    40    1
    17    42    47   am
    18    26    27    1
    19    83    84    1
    20    83    86    1
    21    27    30    1
    22    47    48    1
    23    84    85    2
    24    40    37   am
    25    48    51    1
    26    21    22    2
    27    21    20    1
    28    88    87    1
    29    30    31    1
    30    19    20    1
    31    31    32    1
    32    20    23    1
    33    37    38    2
    34    37    36    1
    35    86    87    1
    36    51    52    1
    37    52    53    1
    38    32    33    1
    39    18    17    2
    40    87    89    1
    41     7     8    1
    42    33    34    1
    43    36    35    1
    44    36    39    1
    45    90    91    1
    46    23    24    1
    47    23    25    1
    48    17    16    1
    49    53    54    1
    50    93    92    2
    51    54    55    1
    52     8    11    1
    53     8     9    1
    54    15    16    1
    55    15     9   am
    56    12    13    1
    57    12    11    1
    58    12    14    1
    59    91    92    1
    60    91    94    1
    61    92    97   am
    62     9    10    2
    63   113   111    1
    64    63    62   ar
    65   110   111    1
    66   110   107    1
    67   112   111    1
    68    56    57    1
    69    60    57    1
    70    60    61    1
    71    97    98    1
    72    95    94    1
    73    94    96    1
    74    58    57    1
    75    58    59    2
    76   106    99   am
    77   106   107    1
    78    98    99    1
    79    98   101    1
    80    62    61    1
    81    62    64   ar
    82    99   100    2
    83   107   108    1
    84   101   102    1
    85   108   109    2
    86   108   114   am
    87    69    70    1
    88    69    66    1
    89    71    70   ar
    90    71    73   ar
    91    70    72   ar
    92    73    74   ar
    93   102   103    1
    94   114   115    1
    95    65    66    1
    96    72    74   ar
    97    67    66    1
    98    67    68    2
    99   117   116    2
   100    80    79    1
   101   103   104   ar
   102   103   105   ar
   103   176   175   ar
   104   145   143   am
   105   115   116    1
   106   115   118    1
   107   116   120   am
   108    78    77    2
   109    77    76    1
   110   175   177   ar
   111   175   174    1
   112   119   118    1
   113   143   144    2
   114   143   142    1
   115   171   170    1
   116   171   172    1
   117   171   174    1
   118    79    76    1
   119    79    81    1
   120   169   167   ar
   121   169   168   ar
   122   120   121    1
   123   167   165   ar
   124   172   173    2
   125    76    75    1
   126   123   122    2
   127   121   122    1
   128   122   124   am
   129   168   166   ar
   130   165   164   ar
   131   142   141    1
   132   124   125    1
   133   124   130    1
   134   125   128    1
   135   125   126    1
   136   166   164   ar
   137   164   163    1
   138   130   129    1
   139   149   148    2
   140   128   129    1
   141   141   138    1
   142   131   126   am
   143   131   132    1
   144   163   160    1
   145   126   127    2
   146   135   136    1
   147   135   132    1
   148   155   152    1
   149   155   156    1
   150   150   147    1
   151   148   147    1
   152   148   151   am
   153   152   151    1
   154   152   153    1
   155   132   133    1
   156   138   137    1
   157   138   139    1
   158   158   156   am
   159   147   146    1
   160   160   161    1
   161   160   159    1
   162   156   157    2
   163   153   154    2
   164   139   140    2
   165   161   162    2
   166   133   134    2
