@<TRIPOS>MOLECULE
tmp/5vczA00.pdb
 164 154 0 0 0
SMALL
GASTEIGER

@<TRIPOS>ATOM
      1  N         13.4310   -4.3720  -11.4430 N.3    47  SER47      -0.1217
      2  CA        13.2630   -5.6610  -10.7910 C.3    47  SER47       0.1889
      3  C         11.8830   -5.8330  -10.3130 C.2    47  SER47       0.2288
      4  O         11.1100   -4.8630  -10.2620 O.2    47  SER47      -0.2866
      5  CB        14.2420   -5.8090   -9.6600 C.3    47  SER47       0.2089
      6  OG        13.9590   -4.9110   -8.6260 O.3    47  SER47      -0.2183
      7  N          9.7110   -6.5120   -7.3200 N.3    49  LEU49      -0.1231
      8  CA         9.6780   -6.4060   -5.8480 C.3    49  LEU49       0.1693
      9  C          8.7220   -7.3620   -5.1850 C.2    49  LEU49       0.2592
     10  O          8.9540   -7.8090   -4.0370 O.2    49  LEU49      -0.2718
     11  CB         9.3100   -4.9880   -5.4640 C.3    49  LEU49       0.0284
     12  CG        10.3500   -3.9030   -5.7500 C.3    49  LEU49       0.0019
     13  CD1        9.7860   -2.5270   -5.4870 C.3    49  LEU49       0.0001
     14  CD2       11.6320   -4.0950   -4.9450 C.3    49  LEU49       0.0001
     15  N          7.6440   -7.6970   -5.8860 N.am   50  GLY50      -0.1957
     16  CA         6.6460   -8.5950   -5.3420 C.3    50  GLY50       0.1869
     17  C          5.7110   -9.1150   -6.4140 C.2    50  GLY50       0.2309
     18  O          5.5840   -8.5150   -7.4590 O.2    50  GLY50      -0.2863
     19  N          4.4990   -5.9760   -8.3760 N.3    57  VAL57      -0.1245
     20  CA         5.1100   -4.6920   -8.0740 C.3    57  VAL57       0.1561
     21  C          6.5130   -4.6790   -8.5680 C.2    57  VAL57       0.2260
     22  O          7.2810   -5.6120   -8.3060 O.2    57  VAL57      -0.2867
     23  CB         5.1220   -4.4280   -6.5640 C.3    57  VAL57       0.0252
     24  CG1        5.7290   -3.1010   -6.2750 C.3    57  VAL57       0.0019
     25  CG2        3.6990   -4.4630   -6.0500 C.3    57  VAL57       0.0019
     26  N         10.2120   -2.4260   -9.1810 N.3    59  LYS59      -0.1245
     27  CA        11.0930   -1.2730   -9.0150 C.3    59  LYS59       0.1561
     28  C         11.3750   -0.7560  -10.3960 C.2    59  LYS59       0.2260
     29  O         11.7880   -1.5250  -11.2790 O.2    59  LYS59      -0.2867
     30  CB        12.3970   -1.7120   -8.3290 C.3    59  LYS59       0.0271
     31  CG        13.3960   -0.5830   -8.0460 C.3    59  LYS59       0.0035
     32  CD        14.6830   -1.1050   -7.4370 C.3    59  LYS59       0.0206
     33  CE        15.6650   -0.0610   -7.1790 C.3    59  LYS59       0.1093
     34  NZ        16.7810   -0.6250   -6.3060 N.3    59  LYS59      -0.1314
     35  N          8.2260    2.6330   -7.1620 N.3    70  ALA70      -0.1231
     36  CA         7.5720    1.3180   -7.2100 C.3    70  ALA70       0.1694
     37  C          6.3090    1.4600   -8.0410 C.2    70  ALA70       0.2592
     38  O          5.6130    2.4720   -7.8890 O.2    70  ALA70      -0.2718
     39  CB         7.2300    0.7870   -5.8140 C.3    70  ALA70       0.0304
     40  N          6.0340    0.5140   -8.9190 N.am   71  VAL71      -0.1966
     41  CA         4.7720    0.4940   -9.6920 C.3    71  VAL71       0.1727
     42  C          4.0940   -0.8570   -9.5220 C.2    71  VAL71       0.2616
     43  O          4.6960   -1.9050   -9.8150 O.2    71  VAL71      -0.2715
     44  CB         4.9980    0.7830  -11.1820 C.3    71  VAL71       0.0290
     45  CG1        3.6800    0.5750  -11.8930 C.3    71  VAL71       0.0023
     46  CG2        5.5120    2.1800  -11.3880 C.3    71  VAL71       0.0023
     47  N          2.8560   -0.8370   -9.0420 N.am   72  LYS72      -0.1977
     48  CA         2.0220   -2.0080   -8.9730 C.3    72  LYS72       0.1596
     49  C          1.1190   -2.0370  -10.1790 C.2    72  LYS72       0.2287
     50  O          0.4340   -1.0450  -10.4690 O.2    72  LYS72      -0.2864
     51  CB         1.2410   -2.0260   -7.6870 C.3    72  LYS72       0.0298
     52  CG         0.3630   -3.3090   -7.5760 C.3    72  LYS72       0.0038
     53  CD        -0.3010   -3.4730   -6.1850 C.3    72  LYS72       0.0206
     54  CE        -1.2640   -2.3620   -5.7940 C.3    72  LYS72       0.1093
     55  NZ        -2.5330   -2.4260   -6.5520 N.3    72  LYS72      -0.1314
     56  N         -8.5330    1.9690   -4.4300 N.3    90  GLU90      -0.1245
     57  CA        -7.2250    2.0620   -3.7810 C.3    90  GLU90       0.1567
     58  C         -6.6290    3.4560   -4.0010 C.2    90  GLU90       0.2260
     59  O         -5.9700    4.0360   -3.1310 O.2    90  GLU90      -0.2867
     60  CB        -6.2480    0.9670   -4.2880 C.3    90  GLU90       0.0388
     61  CG        -4.8930    0.9820   -3.5800 C.3    90  GLU90       0.1160
     62  CD        -3.9910   -0.1290   -3.9940 C.2    90  GLU90       0.3649
     63  OE1       -4.2520   -0.8120   -5.0060 O.co2  90  GLU90      -0.2457
     64  OE2       -2.9650   -0.3430   -3.3330 O.co2  90  GLU90      -0.2457
     65  N         -5.6500    6.2610   -1.1030 N.3    94  HIS94      -0.1241
     66  CA        -4.4500    7.0990   -1.0110 C.3    94  HIS94       0.1621
     67  C         -4.7560    8.5650   -0.9430 C.2    94  HIS94       0.2264
     68  O         -4.1750    9.3300   -0.1540 O.2    94  HIS94      -0.2867
     69  CB        -3.5930    6.8780   -2.2080 C.3    94  HIS94       0.0745
     70  CG        -2.5940    5.8080   -2.0300 C.ar   94  HIS94       0.0817
     71  ND1       -1.4220    6.0250   -1.3520 N.ar   94  HIS94      -0.2268
     72  CD2       -2.5570    4.5400   -2.4830 C.ar   94  HIS94       0.1154
     73  CE1       -0.6700    4.9420   -1.4440 C.ar   94  HIS94       0.1986
     74  NE2       -1.3500    4.0210   -2.0970 N.ar   94  HIS94      -0.2212
     75  N          3.1550    5.8950    2.9540 N.3   104  VAL104     -0.1245
     76  CA         3.7550    5.8620    1.6200 C.3   104  VAL104      0.1561
     77  C          2.9700    6.8280    0.7380 C.2   104  VAL104      0.2260
     78  O          1.7300    6.8080    0.6850 O.2   104  VAL104     -0.2867
     79  CB         3.7270    4.4470    1.0170 C.3   104  VAL104      0.0252
     80  CG1        4.2430    4.5240   -0.4350 C.3   104  VAL104      0.0019
     81  CG2        4.5830    3.4860    1.8410 C.3   104  VAL104      0.0019
     82  N         -0.3330    1.7610  -10.1740 N.3   118  LEU118     -0.1245
     83  CA        -0.1220    2.7240   -9.0860 C.3   118  LEU118      0.1561
     84  C          1.3780    2.8910   -8.9150 C.2   118  LEU118      0.2260
     85  O          2.1060    1.9040   -8.7180 O.2   118  LEU118     -0.2867
     86  CB        -0.7800    2.2790   -7.7380 C.3   118  LEU118      0.0270
     87  CG        -2.2480    2.6680   -7.5660 C.3   118  LEU118      0.0019
     88  CD1       -3.1140    1.9060   -8.5080 C.3   118  LEU118      0.0001
     89  CD2       -2.6650    2.5030   -6.1140 C.3   118  LEU118      0.0001
     90  N          4.2100    4.5710   -6.6140 N.3   120  THR120     -0.1203
     91  CA         4.5340    5.1540   -5.2850 C.3   120  THR120      0.1994
     92  C          5.9970    5.5190   -5.2150 C.2   120  THR120      0.2618
     93  O          6.8260    5.0560   -6.0260 O.2   120  THR120     -0.2717
     94  CB         4.2300    4.1730   -4.1150 C.3   120  THR120      0.1784
     95  OG1        5.1310    3.0590   -4.1780 O.3   120  THR120     -0.2211
     96  CG2        2.7840    3.7410   -4.0760 C.3   120  THR120      0.0376
     97  N          6.3580    6.3480   -4.2490 N.am  121  GLU121     -0.1965
     98  CA         7.7540    6.4640   -3.8720 C.3   121  GLU121      0.1733
     99  C          8.3220    5.0630   -3.6240 C.2   121  GLU121      0.2616
    100  O          7.6310    4.1480   -3.2000 O.2   121  GLU121     -0.2715
    101  CB         7.9130    7.3470   -2.6290 C.3   121  GLU121      0.0429
    102  CG         7.2660    6.7960   -1.3780 C.3   121  GLU121      0.1163
    103  CD         7.4830    7.6970   -0.1950 C.2   121  GLU121      0.3649
    104  OE1        8.5990    8.2660   -0.0460 O.co2 121  GLU121     -0.2457
    105  OE2        6.4950    7.8590    0.5650 O.co2 121  GLU121     -0.2457
    106  N          9.6100    4.9060   -3.9240 N.am  122  LEU122     -0.1963
    107  CA        10.3380    3.6870   -3.5800 C.3   122  LEU122      0.1728
    108  C         10.8720    3.8380   -2.1270 C.2   122  LEU122      0.2616
    109  O         11.5750    4.8080   -1.8030 O.2   122  LEU122     -0.2715
    110  CB        11.4740    3.4160   -4.5710 C.3   122  LEU122      0.0311
    111  CG        12.2250    2.1260   -4.2760 C.3   122  LEU122      0.0022
    112  CD1       11.3790    0.9050   -4.5930 C.3   122  LEU122      0.0001
    113  CD2       13.4960    2.0930   -5.0910 C.3   122  LEU122      0.0001
    114  N         10.5490    2.8620   -1.2940 N.am  123  CYS123     -0.1954
    115  CA        11.0140    2.8350    0.0640 C.3   123  CYS123      0.1843
    116  C         12.1250    1.8240    0.1930 C.2   123  CYS123      0.2626
    117  O         12.5220    1.1470   -0.7730 O.2   123  CYS123     -0.2714
    118  CB         9.8460    2.5050    1.0140 C.3   123  CYS123      0.0997
    119  SG         8.5490    3.7760    1.0050 S.3   123  CYS123     -0.0797
    120  N         12.6190    1.6690    1.4090 N.am  124  GLY124     -0.1940
    121  CA        13.4710    0.5610    1.7480 C.3   124  GLY124      0.1998
    122  C         12.6720   -0.7120    1.8710 C.2   124  GLY124      0.2481
    123  O         11.4900   -0.7640    1.5370 O.2   124  GLY124     -0.2729
    124  N         13.3010   -1.8160    2.3220 N.am  125  PRO125     -0.2715
    125  CA        12.6090   -3.0890    2.4240 C.3   125  PRO125      0.1536
    126  C         11.3890   -3.0570    3.3280 C.2   125  PRO125      0.2599
    127  O         11.3080   -2.2340    4.2530 O.2   125  PRO125     -0.2715
    128  CB        13.6540   -4.0370    3.0180 C.3   125  PRO125      0.0310
    129  CG        14.6160   -3.1970    3.6070 C.3   125  PRO125      0.0237
    130  CD        14.6140   -1.8460    2.9770 C.3   125  PRO125      0.0939
    131  N         10.4700   -3.9770    3.0420 N.am  126  SER126     -0.1950
    132  CA         9.4000   -4.1690    3.9820 C.3   126  SER126      0.1924
    133  C          9.9620   -4.6410    5.3060 C.2   126  SER126      0.2314
    134  O         11.0430   -5.2290    5.3940 O.2   126  SER126     -0.2863
    135  CB         8.4180   -5.1600    3.4510 C.3   126  SER126      0.2116
    136  OG         8.9420   -6.4860    3.5320 O.3   126  SER126     -0.2180
    137  N         10.6810   -8.2660    5.1630 N.3   129  GLN129     -0.1245
    138  CA        11.9640   -8.6050    4.5480 C.3   129  GLN129      0.1566
    139  C         13.1210   -8.2570    5.4390 C.2   129  GLN129      0.2260
    140  O         14.1380   -9.0040    5.4930 O.2   129  GLN129     -0.2867
    141  CB        12.1480   -7.8480    3.2330 C.3   129  GLN129      0.0367
    142  CG        11.1210   -8.1190    2.1850 C.3   129  GLN129      0.0905
    143  CD        11.2970   -7.3070    0.8830 C.2   129  GLN129      0.2608
    144  OE1       11.3340   -6.0010    0.8080 O.2   129  GLN129     -0.2717
    145  NE2       11.4010   -8.1060   -0.1860 N.am  129  GLN129     -0.0878
    146  N          7.2210   -0.2270    5.4410 N.3   173  PHE173     -0.1241
    147  CA         8.4380   -0.1150    4.6290 C.3   173  PHE173      0.1605
    148  C          9.4500    0.7680    5.2840 C.2   173  PHE173      0.2264
    149  O          9.1290    1.8850    5.7420 O.2   173  PHE173     -0.2867
    150  CB         8.1180    0.3890    3.2170 C.3   173  PHE173      0.0534
    151  CG         7.0850   -0.4490    2.5280 C.ar  173  PHE173     -0.0203
    152  CD1        7.4600   -1.5840    1.8580 C.ar  173  PHE173     -0.0042
    153  CD2        5.7200   -0.1690    2.6030 C.ar  173  PHE173     -0.0042
    154  CE1        6.5540   -2.4240    1.3330 C.ar  173  PHE173     -0.0003
    155  CE2        4.8090   -1.0110    2.0390 C.ar  173  PHE173     -0.0003
    156  CZ         5.2290   -2.1420    1.3770 C.ar  173  PHE173     -0.0000
    157  N          0.2130    0.1790    1.4630 N.3   184  ASP184     -0.1239
    158  CA        -0.7800   -0.7990    1.0010 C.3   184  ASP184      0.1674
    159  C         -2.1920   -0.4780    1.5740 C.2   184  ASP184      0.2266
    160  O         -2.6820   -1.1160    2.5000 O.2   184  ASP184     -0.2867
    161  CB        -0.3820   -2.2360    1.3100 C.3   184  ASP184      0.1410
    162  CG        -1.1210   -3.2050    0.4410 C.2   184  ASP184      0.3668
    163  OD1       -2.2030   -2.8470   -0.0540 O.co2 184  ASP184     -0.2456
    164  OD2       -0.5820   -4.3200    0.1740 O.co2 184  ASP184     -0.2456
@<TRIPOS>BOND
     1    45    44    1
     2     1     2    1
     3    46    44    1
     4    29    28    2
     5    44    41    1
     6     2     3    1
     7     2     5    1
     8    50    49    2
     9    28    27    1
    10     3     4    2
    11    49    48    1
    12    82    83    1
    13    43    42    2
    14    41    42    1
    15    41    40    1
    16     5     6    1
    17    42    47   am
    18    26    27    1
    19    83    84    1
    20    83    86    1
    21    47    48    1
    22    27    30    1
    23    48    51    1
    24    40    37   am
    25    84    85    2
    26    21    22    2
    27    21    20    1
    28    88    87    1
    29    19    20    1
    30    30    31    1
    31    20    23    1
    32    31    32    1
    33    37    38    2
    34    37    36    1
    35    86    87    1
    36    51    52    1
    37    52    53    1
    38    87    89    1
    39    18    17    2
    40    32    33    1
    41     7     8    1
    42    36    35    1
    43    36    39    1
    44    33    34    1
    45    90    91    1
    46    23    24    1
    47    23    25    1
    48    55    54    1
    49    17    16    1
    50    53    54    1
    51    93    92    2
    52    15    16    1
    53    15     9   am
    54     8    11    1
    55     8     9    1
    56    12    13    1
    57    12    11    1
    58    12    14    1
    59    91    92    1
    60    91    94    1
    61    92    97   am
    62     9    10    2
    63   113   111    1
    64    63    62   ar
    65   112   111    1
    66   110   111    1
    67   110   107    1
    68    56    57    1
    69    60    57    1
    70    60    61    1
    71    97    98    1
    72    95    94    1
    73    94    96    1
    74    58    57    1
    75    58    59    2
    76    62    61    1
    77    62    64   ar
    78   106    99   am
    79   106   107    1
    80    98    99    1
    81    98   101    1
    82    99   100    2
    83   107   108    1
    84   101   102    1
    85    72    74   ar
    86    72    70   ar
    87    69    70    1
    88    69    66    1
    89   108   109    2
    90   108   114   am
    91    74    73   ar
    92    70    71   ar
    93    73    71   ar
    94   102   103    1
    95   114   115    1
    96    65    66    1
    97    66    67    1
    98    67    68    2
    99   117   116    2
   100    80    79    1
   101   103   104   ar
   102   103   105   ar
   103   145   143   am
   104   163   162   ar
   105   115   116    1
   106   115   118    1
   107   164   162   ar
   108   116   120   am
   109   162   161    1
   110    78    77    2
   111    77    76    1
   112   144   143    2
   113   143   142    1
   114   158   161    1
   115   158   157    1
   116   158   159    1
   117   119   118    1
   118    79    76    1
   119    79    81    1
   120   154   156   ar
   121   154   152   ar
   122   156   155   ar
   123   120   121    1
   124   123   122    2
   125   159   160    2
   126    76    75    1
   127   121   122    1
   128   152   151   ar
   129   122   124   am
   130   155   153   ar
   131   142   141    1
   132   124   125    1
   133   124   130    1
   134   125   128    1
   135   125   126    1
   136   151   153   ar
   137   151   150    1
   138   130   129    1
   139   128   129    1
   140   131   126   am
   141   131   132    1
   142   150   147    1
   143   141   138    1
   144   126   127    2
   145   135   136    1
   146   135   132    1
   147   132   133    1
   148   138   137    1
   149   138   139    1
   150   147   148    1
   151   147   146    1
   152   148   149    2
   153   133   134    2
   154   139   140    2
