@<TRIPOS>MOLECULE
tmp/5vd0A00.pdb
 202 190 0 0 0
SMALL
GASTEIGER

@<TRIPOS>ATOM
      1  N         -9.8980    4.5830   11.8760 N.3    46  SER46      -0.1202
      2  CA       -10.1020    5.8440   11.1650 C.3    46  SER46       0.2020
      3  C        -11.5350    5.9880   10.6650 C.2    46  SER46       0.2619
      4  O        -12.3080    5.0250   10.6690 O.2    46  SER46      -0.2717
      5  CB        -9.1320    5.9610    9.9850 C.3    46  SER46       0.2103
      6  OG        -9.4730    5.0590    8.9470 O.3    46  SER46      -0.2182
      7  N        -11.8830    7.2010   10.2420 N.am   47  ARG47      -0.1965
      8  CA       -13.1850    7.4700    9.6430 C.3    47  ARG47       0.1729
      9  C        -13.0710    7.4520    8.1210 C.2    47  ARG47       0.2616
     10  O        -12.4780    8.3490    7.5220 O.2    47  ARG47      -0.2715
     11  CB       -13.7360    8.8150   10.1210 C.3    47  ARG47       0.0348
     12  CG       -15.1110    9.1370    9.5530 C.3    47  ARG47       0.0492
     13  CD       -15.8200   10.2320   10.3310 C.3    47  ARG47       0.2205
     14  NE       -15.3950   11.5670    9.9220 N.pl3  47  ARG47      -0.0865
     15  CZ       -15.9330   12.6900   10.3850 C.cat  47  ARG47       0.5346
     16  NH1      -16.9140   12.6390   11.2780 N.pl3  47  ARG47       0.1354
     17  NH2      -15.4900   13.8640    9.9570 N.pl3  47  ARG47       0.1354
     18  N        -13.6390    6.4210    7.5040 N.am   48  LEU48      -0.1963
     19  CA       -13.5610    6.2430    6.0570 C.3    48  LEU48       0.1728
     20  C        -14.4220    7.2600    5.3160 C.2    48  LEU48       0.2616
     21  O        -14.0440    7.7510    4.2550 O.2    48  LEU48      -0.2715
     22  CB       -13.9890    4.8250    5.6770 C.3    48  LEU48       0.0311
     23  CG       -13.0790    3.6990    6.1720 C.3    48  LEU48       0.0022
     24  CD1      -13.7170    2.3510    5.9020 C.3    48  LEU48       0.0001
     25  CD2      -11.7120    3.7740    5.5150 C.3    48  LEU48       0.0001
     26  N        -15.5790    7.5770    5.8830 N.am   49  GLY49      -0.1955
     27  CA       -16.4810    8.5380    5.2770 C.3    49  GLY49       0.1869
     28  C        -17.5490    9.0070    6.2440 C.2    49  GLY49       0.2309
     29  O        -17.7130    8.4460    7.3320 O.2    49  GLY49      -0.2863
     30  N        -26.2750   10.2550    6.6770 N.3    53  TYR53      -0.1241
     31  CA       -26.5770    8.9160    7.1700 C.3    53  TYR53       0.1605
     32  C        -25.8690    8.6090    8.4860 C.2    53  TYR53       0.2264
     33  O        -26.3290    7.7760    9.2620 O.2    53  TYR53      -0.2867
     34  CB       -26.1730    7.8710    6.1320 C.3    53  TYR53       0.0534
     35  CG       -24.6870    7.8870    5.8250 C.ar   53  TYR53      -0.0201
     36  CD1      -23.7810    7.2160    6.6390 C.ar   53  TYR53      -0.0009
     37  CD2      -24.1920    8.5790    4.7290 C.ar   53  TYR53      -0.0009
     38  CE1      -22.4300    7.2360    6.3700 C.ar   53  TYR53       0.0417
     39  CE2      -22.8390    8.6010    4.4510 C.ar   53  TYR53       0.0417
     40  CZ       -21.9640    7.9260    5.2710 C.ar   53  TYR53       0.1957
     41  OH       -20.6170    7.9470    4.9970 O.3    53  TYR53      -0.2866
     42  N        -18.8400    6.1000    8.5290 N.3    56  VAL56      -0.1245
     43  CA       -18.2390    4.7850    8.3200 C.3    56  VAL56       0.1561
     44  C        -16.8140    4.7760    8.8720 C.2    56  VAL56       0.2260
     45  O        -15.9930    5.6210    8.5090 O.2    56  VAL56      -0.2867
     46  CB       -18.1950    4.3750    6.8340 C.3    56  VAL56       0.0252
     47  CG1      -17.8080    2.9060    6.7090 C.3    56  VAL56       0.0019
     48  CG2      -19.5350    4.6220    6.1590 C.3    56  VAL56       0.0019
     49  N        -13.1660    2.5580    9.6860 N.3    58  LYS58      -0.1245
     50  CA       -12.3210    1.3830    9.5300 C.3    58  LYS58       0.1561
     51  C        -11.9990    0.8740   10.9250 C.2    58  LYS58       0.2260
     52  O        -11.5330    1.6330   11.7730 O.2    58  LYS58      -0.2867
     53  CB       -11.0350    1.7010    8.7640 C.3    58  LYS58       0.0271
     54  CG       -10.0810    0.5120    8.6750 C.3    58  LYS58       0.0035
     55  CD        -8.9770    0.7310    7.6470 C.3    58  LYS58       0.0206
     56  CE        -7.6720    1.1430    8.2940 C.3    58  LYS58       0.1093
     57  NZ        -6.5980    1.3550    7.2770 N.3    58  LYS58      -0.1314
     58  N        -15.2460   -2.5320    7.8190 N.3    69  ALA69      -0.1245
     59  CA       -15.8890   -1.2290    7.7750 C.3    69  ALA69       0.1562
     60  C        -17.1820   -1.3100    8.5760 C.2    69  ALA69       0.2260
     61  O        -17.9690   -2.2360    8.3890 O.2    69  ALA69      -0.2867
     62  CB       -16.1680   -0.8090    6.3400 C.3    69  ALA69       0.0290
     63  N        -20.5160    0.9790    9.3760 N.3    71  LYS71      -0.1245
     64  CA       -21.3400    2.1570    9.1760 C.3    71  LYS71       0.1561
     65  C        -22.2430    2.3290   10.3900 C.2    71  LYS71       0.2260
     66  O        -22.9760    1.4130   10.7540 O.2    71  LYS71      -0.2867
     67  CB       -22.1650    2.0320    7.8950 C.3    71  LYS71       0.0271
     68  CG       -22.8370    3.3270    7.4710 C.3    71  LYS71       0.0035
     69  CD       -23.3420    3.2620    6.0340 C.3    71  LYS71       0.0206
     70  CE       -24.8080    2.8710    5.9720 C.3    71  LYS71       0.1093
     71  NZ       -25.0910    1.6310    6.7450 N.3    71  LYS71      -0.1314
     72  N        -31.7730   -1.9980    4.8250 N.3    89  GLU89      -0.1245
     73  CA       -30.4600   -2.1260    4.1980 C.3    89  GLU89       0.1567
     74  C        -29.8590   -3.4860    4.5210 C.2    89  GLU89       0.2260
     75  O        -29.2350   -4.1110    3.6670 O.2    89  GLU89      -0.2867
     76  CB       -29.5080   -1.0150    4.6540 C.3    89  GLU89       0.0388
     77  CG       -28.1460   -1.0730    3.9520 C.3    89  GLU89       0.1160
     78  CD       -27.2100    0.0580    4.3470 C.2    89  GLU89       0.3649
     79  OE1      -27.5350    0.8080    5.2920 O.co2  89  GLU89      -0.2457
     80  OE2      -26.1430    0.1930    3.7090 O.co2  89  GLU89      -0.2457
     81  N        -28.9460   -6.2470    1.8310 N.3    93  HIS93      -0.1241
     82  CA       -27.5990   -6.8050    1.8180 C.3    93  HIS93       0.1621
     83  C        -27.6080   -8.3270    1.8860 C.2    93  HIS93       0.2264
     84  O        -26.7330   -8.9850    1.3240 O.2    93  HIS93      -0.2867
     85  CB       -26.7890   -6.2470    2.9870 C.3    93  HIS93       0.0745
     86  CG       -25.4250   -5.7700    2.6040 C.ar   93  HIS93       0.0817
     87  ND1      -25.0240   -4.4610    2.7620 N.ar   93  HIS93      -0.2268
     88  CD2      -24.3700   -6.4240    2.0640 C.ar   93  HIS93       0.1154
     89  CE1      -23.7780   -4.3310    2.3420 C.ar   93  HIS93       0.1986
     90  NE2      -23.3590   -5.5080    1.9140 N.ar   93  HIS93      -0.2212
     91  N        -20.0980   -6.4080   -1.9980 N.3   103  VAL103     -0.1245
     92  CA       -19.5740   -6.2620   -0.6420 C.3   103  VAL103      0.1561
     93  C        -20.3240   -7.1720    0.3250 C.2   103  VAL103      0.2260
     94  O        -21.5460   -7.0970    0.4440 O.2   103  VAL103     -0.2867
     95  CB       -19.6800   -4.7950   -0.1500 C.3   103  VAL103      0.0252
     96  CG1      -19.1830   -4.6490    1.2930 C.3   103  VAL103      0.0019
     97  CG2      -18.9020   -3.8730   -1.0650 C.3   103  VAL103      0.0019
     98  N        -23.6940   -1.4540   10.7980 N.3   117  LEU117     -0.1245
     99  CA       -23.5130   -2.3720    9.7050 C.3   117  LEU117      0.1561
    100  C        -22.0470   -2.6950    9.4770 C.2   117  LEU117      0.2260
    101  O        -21.3070   -1.8540    9.0630 O.2   117  LEU117     -0.2867
    102  CB       -24.0720   -1.7530    8.4470 C.3   117  LEU117      0.0270
    103  CG       -25.4530   -2.1690    8.0050 C.3   117  LEU117      0.0019
    104  CD1      -25.5790   -2.0990    6.5210 C.3   117  LEU117      0.0001
    105  CD2      -25.8240   -3.5480    8.4760 C.3   117  LEU117      0.0001
    106  N        -19.3170   -4.5860    7.3940 N.3   119  THR119     -0.1203
    107  CA       -19.0100   -5.2300    6.1360 C.3   119  THR119      0.1994
    108  C        -17.5230   -5.4790    5.9560 C.2   119  THR119      0.2618
    109  O        -16.7220   -4.9050    6.6590 O.2   119  THR119     -0.2717
    110  CB       -19.4520   -4.3930    4.9270 C.3   119  THR119      0.1784
    111  OG1      -18.6180   -3.2730    4.7880 O.3   119  THR119     -0.2211
    112  CG2      -20.8420   -3.9470    5.0440 C.3   119  THR119      0.0376
    113  N        -17.1840   -6.3380    4.9990 N.am  120  GLU120     -0.1965
    114  CA       -15.7910   -6.5910    4.6610 C.3   120  GLU120      0.1733
    115  C        -15.1350   -5.2850    4.2350 C.2   120  GLU120      0.2616
    116  O        -15.7420   -4.4850    3.5230 O.2   120  GLU120     -0.2715
    117  CB       -15.6780   -7.6370    3.5430 C.3   120  GLU120      0.0429
    118  CG       -16.2290   -7.1770    2.1910 C.3   120  GLU120      0.1163
    119  CD       -16.1310   -8.2440    1.1110 C.2   120  GLU120      0.3649
    120  OE1      -15.1650   -9.0350    1.1290 O.co2 120  GLU120     -0.2457
    121  OE2      -17.0260   -8.2900    0.2410 O.co2 120  GLU120     -0.2457
    122  N        -13.9060   -5.0580    4.6850 N.am  121  LEU121     -0.1963
    123  CA       -13.1750   -3.8690    4.2770 C.3   121  LEU121      0.1728
    124  C        -12.5740   -4.0810    2.8930 C.2   121  LEU121      0.2616
    125  O        -11.6810   -4.9030    2.7170 O.2   121  LEU121     -0.2715
    126  CB       -12.0760   -3.5240    5.2840 C.3   121  LEU121      0.0311
    127  CG       -11.2020   -2.3310    4.8830 C.3   121  LEU121      0.0022
    128  CD1      -12.0150   -1.0410    4.8670 C.3   121  LEU121      0.0001
    129  CD2       -9.9990   -2.2070    5.8030 C.3   121  LEU121      0.0001
    130  N        -13.0940   -3.3460    1.9170 N.am  122  CYS122     -0.1954
    131  CA       -12.5320   -3.3090    0.5730 C.3   122  CYS122      0.1843
    132  C        -11.6000   -2.1120    0.4340 C.2   122  CYS122      0.2626
    133  O        -11.3940   -1.3610    1.3890 O.2   122  CYS122     -0.2714
    134  CB       -13.6450   -3.2290   -0.4720 C.3   122  CYS122      0.0997
    135  SG       -14.9330   -4.4760   -0.2700 S.3   122  CYS122     -0.0797
    136  N        -11.0380   -1.9370   -0.7560 N.am  123  GLY123     -0.1940
    137  CA       -10.2350   -0.7640   -1.0430 C.3   123  GLY123      0.1998
    138  C        -11.1220    0.4530   -1.2260 C.2   123  GLY123      0.2481
    139  O        -12.3440    0.3500   -1.1240 O.2   123  GLY123     -0.2729
    140  N        -10.5130    1.6170   -1.4950 N.am  124  PRO124     -0.2715
    141  CA       -11.2560    2.8690   -1.6770 C.3   124  PRO124      0.1536
    142  C        -12.3030    2.7830   -2.7810 C.2   124  PRO124      0.2599
    143  O        -12.2010    1.9330   -3.6670 O.2   124  PRO124     -0.2715
    144  CB       -10.1600    3.8730   -2.0500 C.3   124  PRO124      0.0310
    145  CG        -8.9110    3.3030   -1.4770 C.3   124  PRO124      0.0237
    146  CD        -9.0600    1.8200   -1.6190 C.3   124  PRO124      0.0939
    147  N        -13.3040    3.6540   -2.7230 N.am  125  SER125     -0.1950
    148  CA       -14.3010    3.7180   -3.7770 C.3   125  SER125      0.1924
    149  C        -13.6250    4.2040   -5.0540 C.2   125  SER125      0.2314
    150  O        -12.5270    4.7620   -5.0030 O.2   125  SER125     -0.2863
    151  CB       -15.4530    4.6460   -3.3930 C.3   125  SER125      0.2116
    152  OG       -15.0190    5.9920   -3.3350 O.3   125  SER125     -0.2180
    153  N        -12.8860    7.9240   -4.8830 N.3   128  GLN128     -0.1245
    154  CA       -11.7060    8.2560   -4.1160 C.3   128  GLN128      0.1566
    155  C        -10.4750    7.9800   -4.9360 C.2   128  GLN128      0.2260
    156  O         -9.5860    8.7390   -4.9460 O.2   128  GLN128     -0.2867
    157  CB       -11.6510    7.4960   -2.8150 C.3   128  GLN128      0.0367
    158  CG       -12.5990    8.0220   -1.7760 C.3   128  GLN128      0.0905
    159  CD       -12.3190    9.4270   -1.4160 C.2   128  GLN128      0.2608
    160  OE1      -11.2340    9.7500   -0.9870 O.2   128  GLN128     -0.2717
    161  NE2      -13.2780   10.2750   -1.6030 N.am  128  GLN128     -0.0878
    162  N        -23.0310    4.3720   -8.3260 N.3   167  LYS167     -0.1245
    163  CA       -22.2200    5.5610   -8.5510 C.3   167  LYS167      0.1561
    164  C        -20.7760    5.2620   -8.1760 C.2   167  LYS167      0.2260
    165  O        -20.4940    4.2410   -7.5480 O.2   167  LYS167     -0.2867
    166  CB       -22.7660    6.7470   -7.7450 C.3   167  LYS167      0.0271
    167  CG       -22.8430    6.5150   -6.2400 C.3   167  LYS167      0.0035
    168  CD       -23.7640    7.5280   -5.5650 C.3   167  LYS167      0.0206
    169  CE       -23.7050    7.4210   -4.0460 C.3   167  LYS167      0.1093
    170  NZ       -24.7710    8.2400   -3.3980 N.3   167  LYS167     -0.1314
    171  N        -19.0130    6.3920   -5.9410 N.3   169  ALA169     -0.1231
    172  CA       -18.7560    6.4530   -4.5050 C.3   169  ALA169      0.1694
    173  C        -19.0490    5.1430   -3.7790 C.2   169  ALA169      0.2592
    174  O        -18.6260    4.9750   -2.6360 O.2   169  ALA169     -0.2718
    175  CB       -19.5660    7.5790   -3.8750 C.3   169  ALA169      0.0304
    176  N        -19.7700    4.2220   -4.4190 N.am  170  ASN170     -0.1974
    177  CA       -20.0720    2.9440   -3.7700 C.3   170  ASN170      0.1688
    178  C        -19.6840    1.7200   -4.6000 C.2   170  ASN170      0.2292
    179  O        -20.2500    0.6410   -4.4320 O.2   170  ASN170     -0.2864
    180  CB       -21.5590    2.8710   -3.3850 C.3   170  ASN170      0.1181
    181  CG       -22.4940    3.1750   -4.5390 C.2   170  ASN170      0.2629
    182  OD1      -22.2150    2.8590   -5.7010 O.2   170  ASN170     -0.2716
    183  ND2      -23.6280    3.7830   -4.2150 N.am  170  ASN170     -0.0877
    184  N        -16.2380   -0.2640   -4.7880 N.3   172  PHE172     -0.1241
    185  CA       -14.9820   -0.3100   -4.0480 C.3   172  PHE172      0.1605
    186  C        -13.9430   -1.2260   -4.6870 C.2   172  PHE172      0.2264
    187  O        -14.2500   -2.3390   -5.1060 O.2   172  PHE172     -0.2867
    188  CB       -15.2500   -0.7620   -2.6120 C.3   172  PHE172      0.0534
    189  CG       -16.2890    0.0630   -1.9020 C.ar  172  PHE172     -0.0203
    190  CD1      -17.6350   -0.2490   -2.0070 C.ar  172  PHE172     -0.0042
    191  CD2      -15.9210    1.1580   -1.1340 C.ar  172  PHE172     -0.0042
    192  CE1      -18.5960    0.5130   -1.3520 C.ar  172  PHE172     -0.0003
    193  CE2      -16.8770    1.9190   -0.4770 C.ar  172  PHE172     -0.0003
    194  CZ       -18.2170    1.5950   -0.5890 C.ar  172  PHE172     -0.0000
    195  N        -23.2820   -0.4980   -0.6800 N.3   183  ASP183     -0.1239
    196  CA       -24.2090    0.5840   -0.3570 C.3   183  ASP183      0.1674
    197  C        -25.6250    0.2510   -0.8320 C.2   183  ASP183      0.2266
    198  O        -26.1730    0.9160   -1.7120 O.2   183  ASP183     -0.2867
    199  CB       -23.7150    1.8920   -0.9850 C.3   183  ASP183      0.1410
    200  CG       -24.4470    3.1140   -0.4620 C.2   183  ASP183      0.3668
    201  OD1      -24.9220    3.0840    0.6910 O.co2 183  ASP183     -0.2456
    202  OD2      -24.5300    4.1140   -1.2070 O.co2 183  ASP183     -0.2456
@<TRIPOS>BOND
     1   163   162    1
     2   163   164    1
     3   163   166    1
     4   164   165    2
     5   166   167    1
     6   167   168    1
     7   171   172    1
     8   182   181    2
     9   168   169    1
    10   187   186    2
    11   149   150    2
    12   149   148    1
    13   156   155    2
    14   155   154    1
    15   153   154    1
    16   184   185    1
    17   186   185    1
    18   178   179    2
    19   178   177    1
    20   181   183   am
    21   181   180    1
    22   172   175    1
    23   172   173    1
    24   176   173   am
    25   176   177    1
    26   154   157    1
    27   185   188    1
    28   169   170    1
    29   173   174    2
    30   148   151    1
    31   148   147    1
    32   177   180    1
    33   143   142    2
    34   151   152    1
    35   157   158    1
    36   142   147   am
    37   142   141    1
    38   188   189    1
    39   144   141    1
    40   144   145    1
    41   190   189   ar
    42   190   192   ar
    43    91    92    1
    44   189   191   ar
    45   158   159    1
    46   198   197    2
    47   141   140    1
    48   146   140    1
    49   146   145    1
    50   161   159   am
    51   140   138   am
    52   159   160    2
    53   192   194   ar
    54   138   139    2
    55   138   137    1
    56   202   200   ar
    57   191   193   ar
    58    97    95    1
    59   137   136    1
    60   199   200    1
    61   199   196    1
    62   197   196    1
    63   136   132   am
    64   195   196    1
    65    92    95    1
    66    92    93    1
    67   194   193   ar
    68   134   135    1
    69   134   131    1
    70   200   201   ar
    71    95    96    1
    72   121   119   ar
    73    93    94    2
    74   132   131    1
    75   132   133    2
    76   131   130    1
    77   119   120   ar
    78   119   118    1
    79    84    83    2
    80    82    81    1
    81    82    83    1
    82    82    85    1
    83    90    88   ar
    84    90    89   ar
    85   130   124   am
    86    88    86   ar
    87   118   117    1
    88    89    87   ar
    89    86    87   ar
    90    86    85    1
    91   125   124    2
    92   124   123    1
    93   116   115    2
    94   117   114    1
    95    75    74    2
    96    80    78   ar
    97    77    78    1
    98    77    76    1
    99    73    74    1
   100    73    76    1
   101    73    72    1
   102   115   114    1
   103   115   122   am
   104    21    20    2
   105   123   122    1
   106   123   126    1
   107    78    79   ar
   108    39    37   ar
   109    39    40   ar
   110   114   113    1
   111    37    35   ar
   112   111   110    1
   113   128   127    1
   114   127   126    1
   115   127   129    1
   116   110   112    1
   117   110   107    1
   118    41    40    1
   119   113   108   am
   120    40    38   ar
   121    27    26    1
   122    27    28    1
   123    20    26   am
   124    20    19    1
   125    25    23    1
   126    22    19    1
   127    22    23    1
   128    35    34    1
   129    35    36   ar
   130    24    23    1
   131   108   107    1
   132   108   109    2
   133    70    69    1
   134    70    71    1
   135    69    68    1
   136    19    18    1
   137    34    31    1
   138   107   106    1
   139    48    46    1
   140    28    29    2
   141    62    59    1
   142    38    36   ar
   143   104   103    1
   144    30    31    1
   145    47    46    1
   146    46    43    1
   147    31    32    1
   148    57    56    1
   149    68    67    1
   150    18     9   am
   151    10     9    2
   152    55    56    1
   153    55    54    1
   154    59    58    1
   155    59    60    1
   156    67    64    1
   157   103   102    1
   158   103   105    1
   159     9     8    1
   160    43    42    1
   161    43    44    1
   162    61    60    2
   163   102    99    1
   164    32    33    2
   165    45    44    2
   166    54    53    1
   167    53    50    1
   168     6     5    1
   169   101   100    2
   170    64    63    1
   171    64    65    1
   172   100    99    1
   173    50    49    1
   174    50    51    1
   175    12    11    1
   176    12    13    1
   177     8    11    1
   178     8     7    1
   179    99    98    1
   180    14    13    1
   181    14    15    2
   182    17    15    1
   183     5     2    1
   184     7     3   am
   185    15    16    1
   186    65    66    2
   187     3     4    2
   188     3     2    1
   189    51    52    2
   190     2     1    1
