@<TRIPOS>MOLECULE
tmp/5vd1A00.pdb
 161 151 0 0 0
SMALL
GASTEIGER

@<TRIPOS>ATOM
      1  N         11.6350   -6.7070  -10.2450 N.3    49  ARG49      -0.1231
      2  CA        10.3370   -7.0020   -9.6420 C.3    49  ARG49       0.1694
      3  C         10.5140   -7.0710   -8.1300 C.2    49  ARG49       0.2592
      4  O         11.2390   -7.9320   -7.6240 O.2    49  ARG49      -0.2718
      5  CB         9.7440   -8.3090  -10.1610 C.3    49  ARG49       0.0321
      6  CG         8.2860   -8.4630   -9.7570 C.3    49  ARG49       0.0489
      7  CD         7.5990   -9.5930  -10.5060 C.3    49  ARG49       0.2205
      8  NE         7.9910  -10.9120  -10.0090 N.pl3  49  ARG49      -0.0865
      9  CZ         7.4670  -12.0570  -10.4120 C.cat  49  ARG49       0.5346
     10  NH1        6.4810  -12.0780  -11.3020 N.pl3  49  ARG49       0.1354
     11  NH2        7.9240  -13.1880   -9.8980 N.pl3  49  ARG49       0.1354
     12  N          9.8660   -6.1490   -7.4310 N.am   50  LEU50      -0.1966
     13  CA         9.9370   -6.0730   -5.9740 C.3    50  LEU50       0.1728
     14  C          9.0040   -7.0270   -5.2690 C.2    50  LEU50       0.2616
     15  O          9.2910   -7.4750   -4.1630 O.2    50  LEU50      -0.2715
     16  CB         9.6330   -4.6500   -5.5120 C.3    50  LEU50       0.0311
     17  CG        10.6090   -3.5740   -6.0130 C.3    50  LEU50       0.0022
     18  CD1       10.1070   -2.1840   -5.6660 C.3    50  LEU50       0.0001
     19  CD2       12.0210   -3.7840   -5.4480 C.3    50  LEU50       0.0001
     20  N          7.8730   -7.3080   -5.8940 N.am   51  GLY51      -0.1955
     21  CA         6.8850   -8.1950   -5.3070 C.3    51  GLY51       0.1869
     22  C          5.8820   -8.6490   -6.3270 C.2    51  GLY51       0.2309
     23  O          5.7670   -8.0720   -7.4200 O.2    51  GLY51      -0.2863
     24  N         -2.7010  -10.1600   -6.9240 N.3    55  TYR55      -0.1241
     25  CA        -3.0500   -8.7930   -7.2880 C.3    55  TYR55       0.1605
     26  C         -2.3600   -8.2990   -8.5420 C.2    55  TYR55       0.2264
     27  O         -2.8480   -7.3670   -9.1760 O.2    55  TYR55      -0.2867
     28  CB        -2.7010   -7.8330   -6.1460 C.3    55  TYR55       0.0534
     29  CG        -1.2170   -7.7480   -5.8480 C.ar   55  TYR55      -0.0201
     30  CD1       -0.3890   -6.8670   -6.5480 C.ar   55  TYR55      -0.0009
     31  CD2       -0.6340   -8.5590   -4.8880 C.ar   55  TYR55      -0.0009
     32  CE1        0.9650   -6.7980   -6.2910 C.ar   55  TYR55       0.0417
     33  CE2        0.7290   -8.4910   -4.6210 C.ar   55  TYR55       0.0417
     34  CZ         1.5160   -7.6100   -5.3200 C.ar   55  TYR55       0.1957
     35  OH         2.8630   -7.5340   -5.0670 O.3    55  TYR55      -0.2866
     36  N          4.7370   -5.6600   -8.4020 N.3    58  VAL58      -0.1245
     37  CA         5.3320   -4.3610   -8.0940 C.3    58  VAL58       0.1561
     38  C          6.7640   -4.3250   -8.6640 C.2    58  VAL58       0.2260
     39  O          7.5590   -5.2260   -8.4040 O.2    58  VAL58      -0.2867
     40  CB         5.3740   -4.0690   -6.6000 C.3    58  VAL58       0.0252
     41  CG1        5.8910   -2.6770   -6.3720 C.3    58  VAL58       0.0019
     42  CG2        4.0050   -4.2040   -5.9720 C.3    58  VAL58       0.0019
     43  N          8.4200    2.9290   -7.1000 N.3    71  ALA71      -0.1245
     44  CA         7.7850    1.6330   -7.2910 C.3    71  ALA71       0.1562
     45  C          6.5090    1.8170   -8.0960 C.2    71  ALA71       0.2260
     46  O          5.7820    2.7940   -7.9190 O.2    71  ALA71      -0.2867
     47  CB         7.4830    0.9620   -5.9530 C.3    71  ALA71       0.0290
     48  N          3.0740   -0.4570   -8.8960 N.3    73  LYS73      -0.1245
     49  CA         2.2100   -1.6020   -8.7170 C.3    73  LYS73       0.1561
     50  C          1.2260   -1.6800   -9.8700 C.2    73  LYS73       0.2260
     51  O          0.4820   -0.7290  -10.1240 O.2    73  LYS73      -0.2867
     52  CB         1.4320   -1.5250   -7.3950 C.3    73  LYS73       0.0271
     53  CG         0.6000   -2.7830   -7.1590 C.3    73  LYS73       0.0035
     54  CD         0.2490   -2.9910   -5.7090 C.3    73  LYS73       0.0206
     55  CE        -0.7110   -1.9730   -5.1950 C.3    73  LYS73       0.1093
     56  NZ        -1.0540   -2.3360   -3.7630 N.3    73  LYS73      -0.1314
     57  N         -8.3950    1.9330   -4.1790 N.3    91  GLU91      -0.1245
     58  CA        -7.0830    2.0430   -3.5420 C.3    91  GLU91       0.1567
     59  C         -6.4820    3.4210   -3.7740 C.2    91  GLU91       0.2260
     60  O         -5.8450    3.9870   -2.8850 O.2    91  GLU91      -0.2867
     61  CB        -6.1260    0.9710   -4.0510 C.3    91  GLU91       0.0388
     62  CG        -4.7790    0.9720   -3.3330 C.3    91  GLU91       0.1160
     63  CD        -3.8960   -0.2150   -3.7030 C.2    91  GLU91       0.3649
     64  OE1       -4.2870   -1.0090   -4.5860 O.co2  91  GLU91      -0.2457
     65  OE2       -2.7960   -0.3510   -3.1200 O.co2  91  GLU91      -0.2457
     66  N          3.3420    5.2530    3.0040 N.3   105  VAL105     -0.1245
     67  CA         3.9040    5.2260    1.6620 C.3   105  VAL105      0.1561
     68  C          3.1230    6.1830    0.7830 C.2   105  VAL105      0.2260
     69  O          1.9120    6.0610    0.6460 O.2   105  VAL105     -0.2867
     70  CB         3.8620    3.8310    1.0750 C.3   105  VAL105      0.0252
     71  CG1        4.3690    3.8250   -0.3870 C.3   105  VAL105      0.0019
     72  CG2        4.7170    2.8880    1.9090 C.3   105  VAL105      0.0019
     73  N         -0.2420    2.0040  -10.0200 N.3   119  LEU119     -0.1245
     74  CA         0.0180    2.9130   -8.8980 C.3   119  LEU119      0.1561
     75  C          1.5130    3.1560   -8.7660 C.2   119  LEU119      0.2260
     76  O          2.2660    2.2440   -8.4470 O.2   119  LEU119     -0.2867
     77  CB        -0.5180    2.3520   -7.5770 C.3   119  LEU119      0.0270
     78  CG        -1.9470    2.7350   -7.2150 C.3   119  LEU119      0.0019
     79  CD1       -2.9070    2.1470   -8.2120 C.3   119  LEU119      0.0001
     80  CD2       -2.2890    2.2910   -5.7950 C.3   119  LEU119      0.0001
     81  N          4.2760    4.7750   -6.6480 N.3   121  THR121     -0.1203
     82  CA         4.5490    5.2550   -5.2960 C.3   121  THR121      0.1994
     83  C          6.0130    5.6010   -5.1320 C.2   121  THR121      0.2618
     84  O          6.8610    5.2570   -5.9710 O.2   121  THR121     -0.2717
     85  CB         4.1980    4.2040   -4.1920 C.3   121  THR121      0.1784
     86  OG1        5.1310    3.1100   -4.2040 O.3   121  THR121     -0.2211
     87  CG2        2.7910    3.6660   -4.3270 C.3   121  THR121      0.0376
     88  N          6.3310    6.2660   -4.0330 N.am  122  GLU122     -0.1965
     89  CA         7.7240    6.3810   -3.6700 C.3   122  GLU122      0.1733
     90  C          8.3060    4.9660   -3.4980 C.2   122  GLU122      0.2616
     91  O          7.6010    4.0030   -3.1290 O.2   122  GLU122     -0.2715
     92  CB         7.8860    7.2000   -2.3900 C.3   122  GLU122      0.0429
     93  CG         7.2950    6.5540   -1.1680 C.3   122  GLU122      0.1163
     94  CD         7.5080    7.3870    0.0810 C.2   122  GLU122      0.3649
     95  OE1        8.6370    7.9150    0.2870 O.co2 122  GLU122     -0.2457
     96  OE2        6.5420    7.5140    0.8560 O.co2 122  GLU122     -0.2457
     97  N          9.5870    4.8390   -3.7900 N.am  123  LEU123     -0.1963
     98  CA        10.3100    3.6100   -3.5250 C.3   123  LEU123      0.1728
     99  C         10.7780    3.5870   -2.0690 C.2   123  LEU123      0.2616
    100  O         11.4240    4.5180   -1.5930 O.2   123  LEU123     -0.2715
    101  CB        11.5050    3.4750   -4.4650 C.3   123  LEU123      0.0311
    102  CG        12.4240    2.2620   -4.2700 C.3   123  LEU123      0.0022
    103  CD1       11.7320    0.9290   -4.5650 C.3   123  LEU123      0.0001
    104  CD2       13.6480    2.4290   -5.1680 C.3   123  LEU123      0.0001
    105  N         10.4270    2.5190   -1.3740 N.am  124  CYS124     -0.1954
    106  CA        10.8990    2.2840   -0.0150 C.3   124  CYS124      0.1843
    107  C         11.9010    1.1510    0.0270 C.2   124  CYS124      0.2626
    108  O         12.1920    0.4930   -0.9900 O.2   124  CYS124     -0.2714
    109  CB         9.7250    1.9720    0.9110 C.3   124  CYS124      0.0997
    110  SG         8.4530    3.2690    0.9160 S.3   124  CYS124     -0.0797
    111  N         12.4590    0.9480    1.2110 N.am  125  GLY125     -0.1940
    112  CA        13.2290   -0.2470    1.4840 C.3   125  GLY125      0.1998
    113  C         12.3400   -1.4770    1.6010 C.2   125  GLY125      0.2480
    114  O         11.1250   -1.4130    1.3980 O.2   125  GLY125     -0.2729
    115  N         12.9470   -2.6210    1.9100 N.am  126  PRO126     -0.2726
    116  CA        12.2330   -3.8870    2.0530 C.3   126  PRO126      0.1402
    117  C         11.1350   -3.8410    3.0980 C.2   126  PRO126      0.2269
    118  O         11.1060   -2.9470    3.9550 O.2   126  PRO126     -0.2865
    119  CB        13.3250   -4.8530    2.4950 C.3   126  PRO126      0.0296
    120  CG        14.5830   -4.2170    2.0990 C.3   126  PRO126      0.0237
    121  CD        14.3730   -2.7660    2.2200 C.3   126  PRO126      0.0939
    122  N         10.6340   -8.8920    5.3920 N.3   130  GLN130     -0.1245
    123  CA        11.8710   -9.2080    4.6790 C.3   130  GLN130      0.1566
    124  C         13.0980   -8.8470    5.4870 C.2   130  GLN130      0.2260
    125  O         14.1050   -9.5590    5.4580 O.2   130  GLN130     -0.2867
    126  CB        11.8750   -8.5010    3.3250 C.3   130  GLN130      0.0367
    127  CG        10.9160   -9.2050    2.3930 C.3   130  GLN130      0.0905
    128  CD        10.4540   -8.4020    1.2060 C.2   130  GLN130      0.2608
    129  OE1       10.3530   -7.1560    1.2340 O.2   130  GLN130     -0.2717
    130  NE2       10.1310   -9.1290    0.1320 N.am  130  GLN130     -0.0878
    131  N          3.4300   -5.4140    5.1250 N.3   172  ASN172     -0.1240
    132  CA         2.8680   -4.1620    4.6280 C.3   172  ASN172      0.1653
    133  C          3.4790   -2.9320    5.2920 C.2   172  ASN172      0.2266
    134  O          2.9650   -1.8200    5.1530 O.2   172  ASN172     -0.2867
    135  CB         1.3400   -4.1510    4.8030 C.3   172  ASN172      0.1155
    136  CG         0.6360   -5.0650    3.8120 C.2   172  ASN172      0.2627
    137  OD1        1.1970   -5.4210    2.7620 O.2   172  ASN172     -0.2716
    138  ND2       -0.5990   -5.4520    4.1320 N.am  172  ASN172     -0.0877
    139  N          7.1410   -0.9050    5.3480 N.3   174  PHE174     -0.1241
    140  CA         8.3480   -0.7940    4.5570 C.3   174  PHE174      0.1605
    141  C          9.3740    0.1240    5.1910 C.2   174  PHE174      0.2264
    142  O          9.0790    1.2230    5.6700 O.2   174  PHE174     -0.2867
    143  CB         7.9940   -0.3180    3.1350 C.3   174  PHE174      0.0534
    144  CG         7.0730   -1.2760    2.4280 C.ar  174  PHE174     -0.0203
    145  CD1        5.7020   -1.2370    2.6510 C.ar  174  PHE174     -0.0042
    146  CD2        7.5840   -2.2820    1.6230 C.ar  174  PHE174     -0.0042
    147  CE1        4.8670   -2.1340    2.0510 C.ar  174  PHE174     -0.0003
    148  CE2        6.7300   -3.2040    1.0140 C.ar  174  PHE174     -0.0003
    149  CZ         5.3850   -3.1240    1.2250 C.ar  174  PHE174     -0.0000
    150  N          2.1720    0.8350    4.2420 N.3   184  GLY184     -0.1210
    151  CA         1.7180    0.8110    2.8840 C.3   184  GLY184      0.1956
    152  C          0.5870   -0.1800    2.6560 C.2   184  GLY184      0.2611
    153  O          0.0330   -0.6850    3.5610 O.2   184  GLY184     -0.2717
    154  N          0.2750   -0.3730    1.3910 N.am  185  ASP185     -0.1973
    155  CA        -0.7610   -1.2500    0.9020 C.3   185  ASP185      0.1709
    156  C         -2.1410   -0.8970    1.3950 C.2   185  ASP185      0.2293
    157  O         -2.6400   -1.5010    2.2640 O.2   185  ASP185     -0.2864
    158  CB        -0.4610   -2.7050    1.1860 C.3   185  ASP185      0.1436
    159  CG        -1.3710   -3.6590    0.4070 C.2   185  ASP185      0.3671
    160  OD1       -2.2920   -3.1880   -0.2040 O.co2 185  ASP185     -0.2456
    161  OD2       -1.1400   -4.8530    0.4680 O.co2 185  ASP185     -0.2456
@<TRIPOS>BOND
     1    10     9    1
     2     7     8    1
     3     7     6    1
     4     9     8    2
     5     9    11    1
     6     1     2    1
     7     5     6    1
     8     5     2    1
     9    51    50    2
    10    73    74    1
    11    50    49    1
    12     2     3    1
    13    27    26    2
    14    74    75    1
    15    74    77    1
    16    48    49    1
    17    75    76    2
    18    49    52    1
    19    38    39    2
    20    38    37    1
    21    26    25    1
    22    36    37    1
    23    79    78    1
    24     3     4    2
    25     3    12   am
    26    45    46    2
    27    45    44    1
    28    37    40    1
    29    77    78    1
    30    12    13    1
    31    23    22    2
    32    52    53    1
    33    44    43    1
    34    44    47    1
    35    25    24    1
    36    25    28    1
    37    78    80    1
    38    53    54    1
    39    81    82    1
    40    40    41    1
    41    40    42    1
    42    30    32   ar
    43    30    29   ar
    44    22    21    1
    45    32    34   ar
    46    28    29    1
    47    17    18    1
    48    17    16    1
    49    17    19    1
    50    13    16    1
    51    13    14    1
    52    84    83    2
    53    20    21    1
    54    20    14   am
    55    29    31   ar
    56    54    55    1
    57    34    35    1
    58    34    33   ar
    59    82    83    1
    60    82    85    1
    61    14    15    2
    62    55    56    1
    63   104   102    1
    64    83    88   am
    65    31    33   ar
    66    64    63   ar
    67   103   102    1
    68   101   102    1
    69   101    98    1
    70    87    85    1
    71    86    85    1
    72    57    58    1
    73    61    58    1
    74    61    62    1
    75    88    89    1
    76    97    98    1
    77    97    90   am
    78    59    58    1
    79    59    60    2
    80    63    62    1
    81    63    65   ar
    82    89    90    1
    83    89    92    1
    84    98    99    1
    85    90    91    2
    86    92    93    1
    87    99   100    2
    88    99   105   am
    89   105   106    1
    90    93    94    1
    91   108   107    2
    92    71    70    1
    93   160   159   ar
    94   106   107    1
    95   106   109    1
    96   107   111   am
    97    94    95   ar
    98    94    96   ar
    99   130   128   am
   100   159   161   ar
   101   159   158    1
   102    69    68    2
   103    68    67    1
   104   155   158    1
   105   155   154    1
   106   155   156    1
   107   109   110    1
   108   148   149   ar
   109   148   146   ar
   110    70    67    1
   111    70    72    1
   112   128   129    2
   113   128   127    1
   114   111   112    1
   115   149   147   ar
   116   154   152   am
   117   156   157    2
   118   114   113    2
   119   112   113    1
   120   113   115   am
   121   146   144   ar
   122    67    66    1
   123   115   116    1
   124   115   121    1
   125   147   145   ar
   126   116   119    1
   127   116   117    1
   128   120   121    1
   129   120   119    1
   130   127   126    1
   131   144   145   ar
   132   144   143    1
   133   152   151    1
   134   152   153    2
   135   137   136    2
   136   151   150    1
   137   117   118    2
   138   143   140    1
   139   126   123    1
   140   136   138   am
   141   136   135    1
   142   140   141    1
   143   140   139    1
   144   132   135    1
   145   132   131    1
   146   132   133    1
   147   123   122    1
   148   123   124    1
   149   134   133    2
   150   141   142    2
   151   125   124    2
