@<TRIPOS>MOLECULE
tmp/5vd2A00.pdb
 168 159 0 0 0
SMALL
GASTEIGER

@<TRIPOS>ATOM
      1  N        -14.6350    3.0540    6.0670 N.3    11  GLU11      -0.1231
      2  CA       -13.8490    4.0340    5.3310 C.3    11  GLU11       0.1699
      3  C        -12.4180    3.5480    5.1640 C.2    11  GLU11       0.2592
      4  O        -11.8040    3.0920    6.1330 O.2    11  GLU11      -0.2718
      5  CB       -13.8650    5.3710    6.0760 C.3    11  GLU11       0.0402
      6  CG       -13.0010    6.4650    5.4650 C.3    11  GLU11       0.1161
      7  CD       -12.8220    7.6470    6.3960 C.2    11  GLU11       0.3649
      8  OE1      -13.5050    7.6890    7.4400 O.co2  11  GLU11      -0.2457
      9  OE2      -11.9940    8.5300    6.0870 O.co2  11  GLU11      -0.2457
     10  N        -11.8780    3.6350    3.9510 N.am   12  LYS12      -0.1966
     11  CA       -10.4550    3.4080    3.7540 C.3    12  LYS12       0.1728
     12  C         -9.6930    4.6270    4.2590 C.2    12  LYS12       0.2616
     13  O         -9.9650    5.7560    3.8400 O.2    12  LYS12      -0.2715
     14  CB       -10.1430    3.1510    2.2810 C.3    12  LYS12       0.0311
     15  CG        -8.6860    2.8090    2.0160 C.3    12  LYS12       0.0038
     16  CD        -8.3700    2.8210    0.5300 C.3    12  LYS12       0.0206
     17  CE        -9.1040    1.7180   -0.2100 C.3    12  LYS12       0.1093
     18  NZ        -8.7740    1.7210   -1.6580 N.3    12  LYS12      -0.1314
     19  N         -8.7520    4.4030    5.1760 N.am   13  ILE13      -0.1963
     20  CA        -8.0290    5.4990    5.8120 C.3    13  ILE13       0.1727
     21  C         -6.5580    5.5480    5.4210 C.2    13  ILE13       0.2616
     22  O         -5.8690    6.5080    5.8020 O.2    13  ILE13      -0.2715
     23  CB        -8.1770    5.4500    7.3480 C.3    13  ILE13       0.0290
     24  CG1       -7.6600    4.1200    7.9000 C.3    13  ILE13       0.0022
     25  CG2       -9.6470    5.6620    7.7260 C.3    13  ILE13       0.0023
     26  CD1       -7.7130    4.0100    9.4190 C.3    13  ILE13       0.0001
     27  N         -6.0560    4.5720    4.6680 N.am   14  GLY14      -0.1955
     28  CA        -4.6920    4.6410    4.1780 C.3    14  GLY14       0.1869
     29  C         -4.3950    3.5330    3.1940 C.2    14  GLY14       0.2309
     30  O         -5.1020    2.5220    3.1280 O.2    14  GLY14      -0.2863
     31  N          2.6150   -0.7360    2.7060 N.3    18  PHE18      -0.1241
     32  CA         2.1080   -1.5080    3.8360 C.3    18  PHE18       0.1605
     33  C          0.7860   -2.2050    3.5380 C.2    18  PHE18       0.2264
     34  O          0.3050   -2.9610    4.3870 O.2    18  PHE18      -0.2867
     35  CB         1.9350   -0.5930    5.0490 C.3    18  PHE18       0.0534
     36  CG         1.0500    0.6010    4.7920 C.ar   18  PHE18      -0.0203
     37  CD1       -0.3210    0.5230    4.9820 C.ar   18  PHE18      -0.0042
     38  CD2        1.5920    1.8080    4.3700 C.ar   18  PHE18      -0.0042
     39  CE1       -1.1320    1.6210    4.7500 C.ar   18  PHE18      -0.0003
     40  CE2        0.7850    2.9050    4.1370 C.ar   18  PHE18      -0.0003
     41  CZ        -0.5770    2.8110    4.3290 C.ar   18  PHE18      -0.0000
     42  N         -5.4920    0.1630    4.8410 N.3    21  VAL21      -0.1245
     43  CA        -6.0250    0.1320    6.1960 C.3    21  VAL21       0.1561
     44  C         -7.4330    0.7100    6.1690 C.2    21  VAL21       0.2260
     45  O         -7.6630    1.7620    5.5630 O.2    21  VAL21      -0.2867
     46  CB        -5.1280    0.9260    7.1630 C.3    21  VAL21       0.0252
     47  CG1       -5.6470    0.8220    8.5900 C.3    21  VAL21       0.0019
     48  CG2       -3.6830    0.4400    7.0780 C.3    21  VAL21       0.0019
     49  N        -10.9740    1.7500    8.4560 N.3    23  LYS23      -0.1245
     50  CA       -11.7230    1.9890    9.6830 C.3    23  LYS23       0.1561
     51  C        -12.9780    1.1180    9.6630 C.2    23  LYS23       0.2260
     52  O        -13.7690    1.1940    8.7180 O.2    23  LYS23      -0.2867
     53  CB       -12.0740    3.4730    9.7840 C.3    23  LYS23       0.0271
     54  CG       -12.9370    3.8720   10.9620 C.3    23  LYS23       0.0035
     55  CD       -13.3480    5.3350   10.8340 C.3    23  LYS23       0.0206
     56  CE       -14.4150    5.7270   11.8380 C.3    23  LYS23       0.1093
     57  NZ       -14.8140    7.1520   11.6740 N.3    23  LYS23      -0.1314
     58  N         -8.8760   -0.2050   13.3510 N.3    34  ALA34      -0.1245
     59  CA        -8.1620   -0.0160   12.0980 C.3    34  ALA34       0.1562
     60  C         -7.6310   -1.3740   11.6590 C.2    34  ALA34       0.2260
     61  O         -6.7860   -1.9620   12.3430 O.2    34  ALA34      -0.2867
     62  CB        -7.0280    0.9950   12.2630 C.3    34  ALA34       0.0290
     63  N         -5.7200   -3.6680    8.8600 N.3    36  LYS36      -0.1245
     64  CA        -4.7380   -3.5790    7.7860 C.3    36  LYS36       0.1561
     65  C         -4.8470   -4.8040    6.8900 C.2    36  LYS36       0.2260
     66  O         -4.8520   -5.9380    7.3790 O.2    36  LYS36      -0.2867
     67  CB        -3.3190   -3.4650    8.3470 C.3    36  LYS36       0.0271
     68  CG        -2.2670   -3.1930    7.2860 C.3    36  LYS36       0.0035
     69  CD        -0.9230   -2.8500    7.9060 C.3    36  LYS36       0.0206
     70  CE        -0.2660   -4.0590    8.5520 C.3    36  LYS36       0.1093
     71  NZ        -0.0110   -5.1560    7.5790 N.3    36  LYS36      -0.1314
     72  N          0.0760    1.6380   19.9190 N.3    68  VAL68      -0.1245
     73  CA        -1.1570    1.2600   19.2360 C.3    68  VAL68       0.1561
     74  C         -1.4250   -0.2170   19.4880 C.2    68  VAL68       0.2260
     75  O         -0.6040   -1.0790   19.1530 O.2    68  VAL68      -0.2867
     76  CB        -1.0580    1.5710   17.7370 C.3    68  VAL68       0.0252
     77  CG1       -2.3380    1.1640   17.0090 C.3    68  VAL68       0.0019
     78  CG2       -0.7750    3.0510   17.5160 C.3    68  VAL68       0.0019
     79  N         -6.1450   -3.5570   14.5180 N.3    84  ASN84      -0.1225
     80  CA        -5.4520   -2.6500   15.4180 C.3    84  ASN84       0.1785
     81  C         -6.4240   -1.6550   16.0370 C.2    84  ASN84       0.2597
     82  O         -7.5280   -1.4310   15.5350 O.2    84  ASN84      -0.2718
     83  CB        -4.3520   -1.8630   14.6920 C.3    84  ASN84       0.1169
     84  CG        -3.3540   -2.7550   13.9970 C.2    84  ASN84       0.2627
     85  OD1       -2.4090   -3.2430   14.6120 O.2    84  ASN84      -0.2716
     86  ND2       -3.5490   -2.9580   12.7000 N.am   84  ASN84      -0.0877
     87  N         -5.9820   -1.0630   17.1440 N.am   85  GLU85      -0.1965
     88  CA        -6.6280    0.1160   17.7000 C.3    85  GLU85       0.1733
     89  C         -6.7540    1.1990   16.6370 C.2    85  GLU85       0.2616
     90  O         -5.8420    1.4130   15.8340 O.2    85  GLU85      -0.2715
     91  CB        -5.8090    0.6290   18.8900 C.3    85  GLU85       0.0429
     92  CG        -6.1980    2.0000   19.4170 C.3    85  GLU85       0.1163
     93  CD        -5.3690    2.4100   20.6220 C.2    85  GLU85       0.3649
     94  OE1       -4.3560    1.7360   20.9080 O.co2  85  GLU85      -0.2457
     95  OE2       -5.7270    3.4060   21.2840 O.co2  85  GLU85      -0.2457
     96  N         -7.8960    1.8830   16.6320 N.am   86  TYR86      -0.1960
     97  CA        -8.1170    3.0220   15.7520 C.3    86  TYR86       0.1771
     98  C         -7.8040    4.3070   16.5050 C.2    86  TYR86       0.2620
     99  O         -8.3270    4.5360   17.6010 O.2    86  TYR86      -0.2715
    100  CB        -9.5550    3.0560   15.2290 C.3    86  TYR86       0.0574
    101  CG        -9.8580    4.2760   14.3840 C.ar   86  TYR86      -0.0198
    102  CD1       -9.2930    4.4290   13.1230 C.ar   86  TYR86      -0.0009
    103  CD2      -10.7100    5.2750   14.8470 C.ar   86  TYR86      -0.0009
    104  CE1       -9.5680    5.5390   12.3450 C.ar   86  TYR86       0.0417
    105  CE2      -10.9890    6.3920   14.0740 C.ar   86  TYR86       0.0417
    106  CZ       -10.4130    6.5140   12.8240 C.ar   86  TYR86       0.1957
    107  OH       -10.6790    7.6160   12.0480 O.3    86  TYR86      -0.2866
    108  N         -6.9470    5.1350   15.9150 N.am   87  CYS87      -0.1954
    109  CA        -6.5460    6.4170   16.4800 C.3    87  CYS87       0.1843
    110  C         -7.1920    7.5040   15.6290 C.2    87  CYS87       0.2625
    111  O         -6.8030    7.7080   14.4740 O.2    87  CYS87      -0.2714
    112  CB        -5.0230    6.5410   16.5000 C.3    87  CYS87       0.0997
    113  SG        -4.1900    5.2030   17.4000 S.3    87  CYS87      -0.0797
    114  N         -8.1760    8.2020   16.2000 N.am   88  ASN88      -0.1958
    115  CA        -9.0390    9.0730   15.4100 C.3    88  ASN88       0.1819
    116  C         -8.3310   10.3190   14.8970 C.2    88  ASN88       0.2622
    117  O         -8.8970   11.0230   14.0550 O.2    88  ASN88      -0.2715
    118  CB       -10.2690    9.4790   16.2290 C.3    88  ASN88       0.1195
    119  CG        -9.9120   10.1530   17.5380 C.2    88  ASN88       0.2630
    120  OD1       -8.7480   10.4420   17.8130 O.2    88  ASN88      -0.2716
    121  ND2      -10.9260   10.4200   18.3500 N.am   88  ASN88      -0.0877
    122  N         -7.1260   10.6120   15.3720 N.am   89  GLY89      -0.1940
    123  CA        -6.3710   11.7580   14.9130 C.3    89  GLY89       0.2014
    124  C         -5.4030   11.4830   13.7850 C.2    89  GLY89       0.2639
    125  O         -4.6770   12.3980   13.3790 O.2    89  GLY89      -0.2714
    126  N         -5.3670   10.2610   13.2570 N.am   90  GLY90      -0.1939
    127  CA        -4.4230    9.9470   12.2090 C.3    90  GLY90       0.2014
    128  C         -3.0090    9.8500   12.7490 C.2    90  GLY90       0.2639
    129  O         -2.7690    9.7100   13.9520 O.2    90  GLY90      -0.2714
    130  N         -2.0620    9.9130   11.8230 N.am   91  SER91      -0.1949
    131  CA        -0.6540    9.8870   12.1740 C.3    91  SER91       0.1924
    132  C         -0.1260   11.3060   12.3380 C.2    91  SER91       0.2314
    133  O         -0.7130   12.2760   11.8530 O.2    91  SER91      -0.2863
    134  CB         0.1560    9.1510   11.1090 C.3    91  SER91       0.2116
    135  OG         0.1960    9.8910    9.9010 O.3    91  SER91      -0.2180
    136  N          0.0840   12.9760    9.1890 N.3    94  ASP94      -0.1239
    137  CA        -1.1580   13.6220    8.7700 C.3    94  ASP94       0.1674
    138  C         -1.3490   14.9550    9.4790 C.2    94  ASP94       0.2266
    139  O         -1.7560   15.9450    8.8600 O.2    94  ASP94      -0.2867
    140  CB        -2.3530   12.7080    9.0440 C.3    94  ASP94       0.1410
    141  CG        -2.3340   11.4510    8.1990 C.2    94  ASP94       0.3668
    142  OD1       -1.8810   11.5220    7.0370 O.co2  94  ASP94      -0.2456
    143  OD2       -2.7710   10.3930    8.6990 O.co2  94  ASP94      -0.2456
    144  N          5.1050    9.1490   10.4670 N.3   138  SER138     -0.1217
    145  CA         4.0630    8.2780    9.9380 C.3   138  SER138      0.1889
    146  C          3.8450    7.0360   10.7930 C.2   138  SER138      0.2288
    147  O          2.9070    6.2780   10.5210 O.2   138  SER138     -0.2866
    148  CB         4.3910    7.8650    8.5010 C.3   138  SER138      0.2089
    149  OG         5.5190    7.0150    8.4520 O.3   138  SER138     -0.2183
    150  N          0.9210    7.9810   16.1290 N.3   141  PHE141     -0.1241
    151  CA        -0.5110    8.1400   15.9190 C.3   141  PHE141      0.1605
    152  C         -1.1120    8.9470   17.0570 C.2   141  PHE141      0.2264
    153  O         -0.5240    9.0850   18.1340 O.2   141  PHE141     -0.2867
    154  CB        -1.2070    6.7780   15.7780 C.3   141  PHE141      0.0534
    155  CG        -0.8230    6.0530   14.5280 C.ar  141  PHE141     -0.0203
    156  CD1        0.2730    5.2090   14.5090 C.ar  141  PHE141     -0.0042
    157  CD2       -1.5350    6.2490   13.3610 C.ar  141  PHE141     -0.0042
    158  CE1        0.6410    4.5570   13.3490 C.ar  141  PHE141     -0.0003
    159  CE2       -1.1750    5.6010   12.2000 C.ar  141  PHE141     -0.0003
    160  CZ        -0.0850    4.7520   12.1930 C.ar  141  PHE141     -0.0000
    161  N          3.1490    0.4750   14.2550 N.3   152  ASP152     -0.1239
    162  CA         3.9440   -0.2840   13.2910 C.3   152  ASP152      0.1674
    163  C          5.2130   -0.8490   13.9220 C.2   152  ASP152      0.2266
    164  O          6.3070   -0.3000   13.7530 O.2   152  ASP152     -0.2867
    165  CB         4.2690    0.5990   12.0870 C.3   152  ASP152      0.1410
    166  CG         3.0170    1.1790   11.4490 C.2   152  ASP152      0.3668
    167  OD1        1.9420    0.5550   11.5840 O.co2 152  ASP152     -0.2456
    168  OD2        3.0930    2.2560   10.8200 O.co2 152  ASP152     -0.2456
@<TRIPOS>BOND
     1    18    17    1
     2    17    16    1
     3    16    15    1
     4    15    14    1
     5    14    11    1
     6    31    32    1
     7    30    29    2
     8    29    28    1
     9    33    32    1
    10    33    34    2
    11    11    10    1
    12    11    12    1
    13    32    35    1
    14    13    12    2
    15    10     3   am
    16    40    41   ar
    17    40    38   ar
    18    28    27    1
    19    12    19   am
    20    41    39   ar
    21    38    36   ar
    22    27    21   am
    23    39    37   ar
    24    36    37   ar
    25    36    35    1
    26    42    43    1
    27     3     2    1
    28     3     4    2
    29    19    20    1
    30     2     1    1
    31     2     5    1
    32    21    22    2
    33    21    20    1
    34     6     5    1
    35     6     7    1
    36    45    44    2
    37    20    23    1
    38     9     7   ar
    39    44    43    1
    40    43    46    1
    41     7     8   ar
    42    65    66    2
    43    65    64    1
    44   142   141   ar
    45    48    46    1
    46    46    47    1
    47    68    69    1
    48    68    67    1
    49    23    25    1
    50    23    24    1
    51    71    70    1
    52    64    67    1
    53    64    63    1
    54    24    26    1
    55    69    70    1
    56   141   143   ar
    57   141   140    1
    58   149   148    1
    59    49    50    1
    60   148   145    1
    61    52    51    2
    62   137   140    1
    63   137   136    1
    64   137   138    1
    65   139   138    2
    66    51    50    1
    67    50    53    1
    68    53    54    1
    69   135   134    1
    70   145   144    1
    71   145   146    1
    72   147   146    2
    73   168   166   ar
    74    55    54    1
    75    55    56    1
    76   134   131    1
    77   166   167   ar
    78   166   165    1
    79    60    59    1
    80    60    61    2
    81    57    56    1
    82   130   131    1
    83   130   128   am
    84   133   132    2
    85   107   106    1
    86   165   162    1
    87    59    62    1
    88    59    58    1
    89   131   132    1
    90   160   159   ar
    91   160   158   ar
    92   159   157   ar
    93   127   128    1
    94   127   126    1
    95   104   106   ar
    96   104   102   ar
    97    86    84   am
    98   128   129    2
    99   106   105   ar
   100   102   101   ar
   101   126   124   am
   102   162   163    1
   103   162   161    1
   104   158   156   ar
   105   157   155   ar
   106   125   124    2
   107   164   163    2
   108   124   123    1
   109    84    85    2
   110    84    83    1
   111   117   116    2
   112   105   103   ar
   113   101   103   ar
   114   101   100    1
   115   111   110    2
   116   156   155   ar
   117    79    80    1
   118   155   154    1
   119    83    80    1
   120   116   122   am
   121   116   115    1
   122   123   122    1
   123   100    97    1
   124   115   114    1
   125   115   118    1
   126    80    81    1
   127    82    81    2
   128   110   114   am
   129   110   109    1
   130    97    98    1
   131    97    96    1
   132   154   151    1
   133    90    89    2
   134   108   109    1
   135   108    98   am
   136   151   150    1
   137   151   152    1
   138    81    87   am
   139   118   119    1
   140   109   112    1
   141   112   113    1
   142    98    99    2
   143    96    89   am
   144    89    88    1
   145    77    76    1
   146   152   153    2
   147    87    88    1
   148    78    76    1
   149   119   120    2
   150   119   121   am
   151    88    91    1
   152    76    73    1
   153    91    92    1
   154    75    74    2
   155    73    74    1
   156    73    72    1
   157    92    93    1
   158    93    94   ar
   159    93    95   ar
