@<TRIPOS>MOLECULE
tmp/5vd3A00.pdb
 208 198 0 0 0
SMALL
GASTEIGER

@<TRIPOS>ATOM
      1  N         -9.8760    4.7880   11.7280 N.3    47  SER47      -0.1217
      2  CA       -10.0390    6.0440   11.0100 C.3    47  SER47       0.1889
      3  C        -11.4840    6.1760   10.5590 C.2    47  SER47       0.2288
      4  O        -12.2310    5.1950   10.5060 O.2    47  SER47      -0.2866
      5  CB        -9.0970    6.1250    9.8050 C.3    47  SER47       0.2089
      6  OG        -9.4620    5.1710    8.8290 O.3    47  SER47      -0.2183
      7  N        -13.7500    6.7260    7.5060 N.3    49  LEU49      -0.1231
      8  CA       -13.7350    6.6170    6.0520 C.3    49  LEU49       0.1693
      9  C        -14.6980    7.5910    5.3890 C.2    49  LEU49       0.2593
     10  O        -14.4780    7.9850    4.2390 O.2    49  LEU49      -0.2718
     11  CB       -14.0830    5.1880    5.6370 C.3    49  LEU49       0.0284
     12  CG       -13.0770    4.1100    6.0450 C.3    49  LEU49       0.0019
     13  CD1      -13.6470    2.7320    5.7740 C.3    49  LEU49       0.0001
     14  CD2      -11.7610    4.2870    5.3060 C.3    49  LEU49       0.0001
     15  N        -15.7610    7.9810    6.0800 N.am   50  GLY50      -0.1942
     16  CA       -16.6900    8.9550    5.5390 C.3    50  GLY50       0.2014
     17  C        -17.6660    9.4130    6.5980 C.2    50  GLY50       0.2638
     18  O        -17.7710    8.8270    7.6810 O.2    50  GLY50      -0.2714
     19  N        -18.3750   10.4900    6.2680 N.am   51  HIS51      -0.1973
     20  CA       -19.3920   11.0300    7.1570 C.3    51  HIS51       0.1656
     21  C        -20.3960   11.8260    6.3390 C.2    51  HIS51       0.2291
     22  O        -20.0930   12.3160    5.2460 O.2    51  HIS51      -0.2864
     23  CB       -18.7800   11.9090    8.2510 C.3    51  HIS51       0.0771
     24  CG       -18.1600   13.1710    7.7370 C.ar   51  HIS51       0.0820
     25  ND1      -16.9600   13.1910    7.0580 N.ar   51  HIS51      -0.2267
     26  CD2      -18.5720   14.4580    7.8110 C.ar   51  HIS51       0.1154
     27  CE1      -16.6630   14.4370    6.7320 C.ar   51  HIS51       0.1986
     28  NE2      -17.6240   15.2250    7.1780 N.ar   51  HIS51      -0.2212
     29  N        -26.2390   10.7160    7.0720 N.3    54  TYR54      -0.1241
     30  CA       -26.5700    9.3490    7.4550 C.3    54  TYR54       0.1605
     31  C        -25.8660    8.9010    8.7280 C.2    54  TYR54       0.2264
     32  O        -26.3270    7.9550    9.3760 O.2    54  TYR54      -0.2867
     33  CB       -26.1860    8.3940    6.3280 C.3    54  TYR54       0.0534
     34  CG       -24.6910    8.3710    6.0740 C.ar   54  TYR54      -0.0201
     35  CD1      -23.8550    7.5480    6.8150 C.ar   54  TYR54      -0.0009
     36  CD2      -24.1170    9.1890    5.1100 C.ar   54  TYR54      -0.0009
     37  CE1      -22.4940    7.5320    6.6020 C.ar   54  TYR54       0.0417
     38  CE2      -22.7550    9.1770    4.8860 C.ar   54  TYR54       0.0417
     39  CZ       -21.9510    8.3470    5.6370 C.ar   54  TYR54       0.1957
     40  OH       -20.5970    8.3240    5.4280 O.3    54  TYR54      -0.2866
     41  N        -18.8560    6.2760    8.5840 N.3    57  VAL57      -0.1245
     42  CA       -18.2490    4.9910    8.2610 C.3    57  VAL57       0.1561
     43  C        -16.8390    4.9850    8.8330 C.2    57  VAL57       0.2260
     44  O        -16.0480    5.8950    8.5550 O.2    57  VAL57      -0.2867
     45  CB       -18.2070    4.7300    6.7440 C.3    57  VAL57       0.0252
     46  CG1      -17.5770    3.3700    6.4580 C.3    57  VAL57       0.0019
     47  CG2      -19.5980    4.8090    6.1480 C.3    57  VAL57       0.0019
     48  N        -13.1740    2.7730    9.5650 N.3    59  LYS59      -0.1245
     49  CA       -12.2720    1.6410    9.4180 C.3    59  LYS59       0.1561
     50  C        -11.9300    1.1390   10.8160 C.2    59  LYS59       0.2260
     51  O        -11.4900    1.9210   11.6640 O.2    59  LYS59      -0.2867
     52  CB       -11.0200    2.0660    8.6560 C.3    59  LYS59       0.0271
     53  CG        -9.9460    1.0040    8.5370 C.3    59  LYS59       0.0035
     54  CD        -8.7880    1.5360    7.6960 C.3    59  LYS59       0.0206
     55  CE        -7.6080    0.5910    7.6760 C.3    59  LYS59       0.1093
     56  NZ        -6.5260    1.1220    6.7920 N.3    59  LYS59      -0.1314
     57  N        -15.1490   -2.4290    7.7340 N.3    70  ALA70      -0.1231
     58  CA       -15.7950   -1.1260    7.6940 C.3    70  ALA70       0.1694
     59  C        -17.1020   -1.2240    8.4660 C.2    70  ALA70       0.2592
     60  O        -17.9070   -2.1290    8.2160 O.2    70  ALA70      -0.2718
     61  CB       -16.0490   -0.6770    6.2520 C.3    70  ALA70       0.0304
     62  N        -17.3010   -0.3200    9.4210 N.am   71  VAL71      -0.1966
     63  CA       -18.5560   -0.2400   10.1650 C.3    71  VAL71       0.1727
     64  C        -19.2010    1.1040    9.8690 C.2    71  VAL71       0.2616
     65  O        -18.5890    2.1570   10.0910 O.2    71  VAL71      -0.2715
     66  CB       -18.3530   -0.4210   11.6780 C.3    71  VAL71       0.0290
     67  CG1      -19.6840   -0.2320   12.4240 C.3    71  VAL71       0.0023
     68  CG2      -17.7790   -1.7940   11.9730 C.3    71  VAL71       0.0023
     69  N        -20.4380    1.0670    9.3840 N.am   72  LYS72      -0.1977
     70  CA       -21.2530    2.2630    9.2330 C.3    72  LYS72       0.1596
     71  C        -22.1810    2.3820   10.4330 C.2    72  LYS72       0.2287
     72  O        -22.8380    1.4080   10.8190 O.2    72  LYS72      -0.2864
     73  CB       -22.0600    2.2270    7.9370 C.3    72  LYS72       0.0298
     74  CG       -22.9250    3.4650    7.7260 C.3    72  LYS72       0.0038
     75  CD       -23.4090    3.5740    6.2870 C.3    72  LYS72       0.0206
     76  CE       -24.3510    2.4450    5.9330 C.3    72  LYS72       0.1093
     77  NZ       -25.6260    2.5550    6.6720 N.3    72  LYS72      -0.1314
     78  N        -31.5370   -1.7350    4.7080 N.3    90  GLU90      -0.1245
     79  CA       -30.2130   -1.9280    4.1260 C.3    90  GLU90       0.1567
     80  C        -29.6700   -3.3100    4.4600 C.2    90  GLU90       0.2260
     81  O        -29.0360   -3.9580    3.6170 O.2    90  GLU90      -0.2867
     82  CB       -29.2520   -0.8450    4.6210 C.3    90  GLU90       0.0388
     83  CG       -27.8680   -0.9230    3.9850 C.3    90  GLU90       0.1160
     84  CD       -26.9410    0.1860    4.4450 C.2    90  GLU90       0.3649
     85  OE1      -27.3040    0.9160    5.3900 O.co2  90  GLU90      -0.2457
     86  OE2      -25.8460    0.3280    3.8600 O.co2  90  GLU90      -0.2457
     87  N        -28.8280   -6.2340    1.7540 N.3    94  HIS94      -0.1241
     88  CA       -27.5460   -6.9330    1.7540 C.3    94  HIS94       0.1621
     89  C        -27.7460   -8.4410    1.7990 C.2    94  HIS94       0.2264
     90  O        -27.0190   -9.1930    1.1380 O.2    94  HIS94      -0.2867
     91  CB       -26.7030   -6.4840    2.9490 C.3    94  HIS94       0.0745
     92  CG       -25.4570   -5.7440    2.5750 C.ar   94  HIS94       0.0817
     93  ND1      -24.4030   -6.3430    1.9190 N.ar   94  HIS94      -0.2268
     94  CD2      -25.0870   -4.4580    2.7850 C.ar   94  HIS94       0.1154
     95  CE1      -23.4420   -5.4570    1.7350 C.ar   94  HIS94       0.1986
     96  NE2      -23.8310   -4.3060    2.2500 N.ar   94  HIS94      -0.2212
     97  N        -20.2790   -6.3230   -2.2220 N.3   104  VAL104     -0.1245
     98  CA       -19.7110   -6.1720   -0.8880 C.3   104  VAL104      0.1561
     99  C        -20.4090   -7.1220    0.0730 C.2   104  VAL104      0.2260
    100  O        -21.6420   -7.2500    0.0760 O.2   104  VAL104     -0.2867
    101  CB       -19.8230   -4.7130   -0.4150 C.3   104  VAL104      0.0252
    102  CG1      -19.3780   -4.5780    1.0450 C.3   104  VAL104      0.0019
    103  CG2      -18.9860   -3.8080   -1.2940 C.3   104  VAL104      0.0019
    104  N        -23.6340   -1.3200   10.7400 N.3   118  LEU118     -0.1245
    105  CA       -23.4930   -2.2160    9.5980 C.3   118  LEU118      0.1561
    106  C        -22.0120   -2.5300    9.4210 C.2   118  LEU118      0.2260
    107  O        -21.2340   -1.6450    9.0490 O.2   118  LEU118     -0.2867
    108  CB       -24.0620   -1.5760    8.3310 C.3   118  LEU118      0.0270
    109  CG       -24.3800   -2.5030    7.1590 C.3   118  LEU118      0.0019
    110  CD1      -25.7210   -3.1720    7.3740 C.3   118  LEU118      0.0001
    111  CD2      -24.3710   -1.7300    5.8490 C.3   118  LEU118      0.0001
    112  N        -19.2980   -4.4730    7.3400 N.3   120  THR120     -0.1203
    113  CA       -18.9900   -5.1510    6.0870 C.3   120  THR120      0.1994
    114  C        -17.4930   -5.3940    5.9930 C.2   120  THR120      0.2618
    115  O        -16.6990   -4.8790    6.7840 O.2   120  THR120     -0.2717
    116  CB       -19.4400   -4.3410    4.8590 C.3   120  THR120      0.1784
    117  OG1      -18.6250   -3.1670    4.7260 O.3   120  THR120     -0.2211
    118  CG2      -20.8940   -3.9320    4.9770 C.3   120  THR120      0.0376
    119  N        -17.1050   -6.1850    5.0010 N.am  121  GLU121     -0.1965
    120  CA       -15.6940   -6.2690    4.6760 C.3   121  GLU121      0.1733
    121  C        -15.1710   -4.8740    4.3630 C.2   121  GLU121      0.2616
    122  O        -15.8980   -4.0110    3.8610 O.2   121  GLU121     -0.2715
    123  CB       -15.4650   -7.1990    3.4850 C.3   121  GLU121      0.0429
    124  CG       -16.2060   -6.7860    2.2250 C.3   121  GLU121      0.1163
    125  CD       -15.9280   -7.7150    1.0630 C.2   121  GLU121      0.3649
    126  OE1      -14.7760   -8.1810    0.9340 O.co2 121  GLU121     -0.2457
    127  OE2      -16.8620   -7.9850    0.2870 O.co2 121  GLU121     -0.2457
    128  N        -13.9080   -4.6430    4.7050 N.am  122  LEU122     -0.1963
    129  CA       -13.2340   -3.4150    4.3140 C.3   122  LEU122      0.1728
    130  C        -12.7280   -3.5850    2.8940 C.2   122  LEU122      0.2616
    131  O        -11.9550   -4.5050    2.6160 O.2   122  LEU122     -0.2715
    132  CB       -12.0750   -3.0970    5.2510 C.3   122  LEU122      0.0311
    133  CG       -11.2170   -1.8950    4.8410 C.3   122  LEU122      0.0022
    134  CD1      -12.0130   -0.6040    4.9240 C.3   122  LEU122      0.0001
    135  CD2       -9.9750   -1.8230    5.7160 C.3   122  LEU122      0.0001
    136  N        -13.1580   -2.7060    2.0040 N.am  123  CYS123     -0.1954
    137  CA       -12.7440   -2.7530    0.6120 C.3   123  CYS123      0.1843
    138  C        -11.6040   -1.7760    0.3610 C.2   123  CYS123      0.2626
    139  O        -11.2360   -0.9630    1.2160 O.2   123  CYS123     -0.2714
    140  CB       -13.9220   -2.4270   -0.3050 C.3   123  CYS123      0.0997
    141  SG       -15.3230   -3.5320   -0.1130 S.3   123  CYS123     -0.0797
    142  N        -11.0360   -1.8770   -0.8370 N.am  124  GLY124     -0.1940
    143  CA       -10.1290   -0.8760   -1.3320 C.3   124  GLY124      0.1998
    144  C        -10.8670    0.4220   -1.5820 C.2   124  GLY124      0.2481
    145  O        -12.0580    0.5540   -1.2770 O.2   124  GLY124     -0.2729
    146  N        -10.1740    1.4120   -2.1360 N.am  125  PRO125     -0.2715
    147  CA       -10.8160    2.7120   -2.3560 C.3   125  PRO125      0.1536
    148  C        -11.9550    2.6040   -3.3590 C.2   125  PRO125      0.2599
    149  O        -11.9620    1.7400   -4.2370 O.2   125  PRO125     -0.2715
    150  CB        -9.6750    3.5890   -2.8880 C.3   125  PRO125      0.0310
    151  CG        -8.6710    2.6270   -3.4350 C.3   125  PRO125      0.0237
    152  CD        -8.7780    1.3880   -2.6070 C.3   125  PRO125      0.0939
    153  N        -12.9370    3.4880   -3.2070 N.am  126  SER126     -0.1950
    154  CA       -13.9750    3.6120   -4.2160 C.3   126  SER126      0.1924
    155  C        -13.3710    4.1160   -5.5230 C.2   126  SER126      0.2314
    156  O        -12.2740    4.6810   -5.5530 O.2   126  SER126     -0.2863
    157  CB       -15.0690    4.5690   -3.7520 C.3   126  SER126      0.2116
    158  OG       -14.5770    5.8970   -3.6830 O.3   126  SER126     -0.2180
    159  N        -14.3990    6.6160   -7.0940 N.3   128  GLN128     -0.1231
    160  CA       -14.2880    8.0590   -6.9270 C.3   128  GLN128      0.1698
    161  C        -12.9590    8.4270   -6.2820 C.2   128  GLN128      0.2592
    162  O        -12.2590    9.3330   -6.7470 O.2   128  GLN128     -0.2718
    163  CB       -15.4540    8.5770   -6.0900 C.3   128  GLN128      0.0381
    164  CG       -15.4110   10.0710   -5.8240 C.3   128  GLN128      0.0905
    165  CD       -16.6680   10.5620   -5.1420 C.2   128  GLN128      0.2608
    166  OE1      -17.6230   10.9830   -5.7950 O.2   128  GLN128     -0.2717
    167  NE2      -16.6810   10.4940   -3.8230 N.am  128  GLN128     -0.0878
    168  N        -12.5980    7.7280   -5.2010 N.am  129  GLN129     -0.1979
    169  CA       -11.3320    7.9850   -4.5220 C.3   129  GLN129      0.1601
    170  C        -10.1450    7.6320   -5.4070 C.2   129  GLN129      0.2287
    171  O         -9.1370    8.3490   -5.4210 O.2   129  GLN129     -0.2864
    172  CB       -11.2830    7.1950   -3.2140 C.3   129  GLN129      0.0394
    173  CG       -12.2410    7.7160   -2.1700 C.3   129  GLN129      0.0908
    174  CD       -12.3810    6.7900   -0.9730 C.2   129  GLN129      0.2608
    175  OE1      -12.6400    5.5960   -1.1210 O.2   129  GLN129     -0.2717
    176  NE2      -12.2180    7.3430    0.2210 N.am  129  GLN129     -0.0878
    177  N        -18.6960    6.4220   -6.0990 N.3   170  ALA170     -0.1231
    178  CA       -18.3940    6.3930   -4.6750 C.3   170  ALA170      0.1694
    179  C        -18.7910    5.0910   -3.9840 C.2   170  ALA170      0.2592
    180  O        -18.4250    4.9080   -2.8190 O.2   170  ALA170     -0.2718
    181  CB       -19.0820    7.5680   -3.9770 C.3   170  ALA170      0.0304
    182  N        -19.5330    4.1860   -4.6420 N.am  171  ASN171     -0.1974
    183  CA       -19.8650    2.9090   -4.0110 C.3   171  ASN171      0.1688
    184  C        -19.5000    1.7100   -4.8840 C.2   171  ASN171      0.2292
    185  O        -20.0710    0.6280   -4.7130 O.2   171  ASN171     -0.2864
    186  CB       -21.3440    2.8540   -3.5890 C.3   171  ASN171      0.1181
    187  CG       -22.3170    3.1660   -4.7140 C.2   171  ASN171      0.2629
    188  OD1      -22.0120    3.0090   -5.8960 O.2   171  ASN171     -0.2716
    189  ND2      -23.5220    3.5970   -4.3350 N.am  171  ASN171     -0.0877
    190  N        -16.0050   -0.3460   -5.3230 N.3   173  PHE173     -0.1241
    191  CA       -14.7630   -0.4010   -4.5630 C.3   173  PHE173      0.1605
    192  C        -13.7500   -1.3110   -5.2390 C.2   173  PHE173      0.2264
    193  O        -14.0720   -2.4490   -5.5970 O.2   173  PHE173     -0.2867
    194  CB       -15.0240   -0.8910   -3.1400 C.3   173  PHE173      0.0534
    195  CG       -15.9270    0.0080   -2.3600 C.ar  173  PHE173     -0.0203
    196  CD1      -15.4160    1.1160   -1.7100 C.ar  173  PHE173     -0.0042
    197  CD2      -17.2870   -0.2410   -2.2890 C.ar  173  PHE173     -0.0042
    198  CE1      -16.2400    1.9530   -0.9940 C.ar  173  PHE173     -0.0003
    199  CE2      -18.1230    0.5970   -1.5720 C.ar  173  PHE173     -0.0003
    200  CZ       -17.6000    1.6950   -0.9240 C.ar  173  PHE173     -0.0000
    201  N        -23.1540   -0.4120   -0.8890 N.3   184  ASP184     -0.1239
    202  CA       -24.0250    0.7160   -0.5670 C.3   184  ASP184      0.1674
    203  C        -25.4660    0.4270   -0.9790 C.2   184  ASP184      0.2266
    204  O        -26.0110    1.0790   -1.8760 O.2   184  ASP184     -0.2867
    205  CB       -23.5030    1.9820   -1.2490 C.3   184  ASP184      0.1410
    206  CG       -24.0710    3.2500   -0.6540 C.2   184  ASP184      0.3668
    207  OD1      -24.5100    3.2270    0.5150 O.co2 184  ASP184     -0.2456
    208  OD2      -24.0720    4.2760   -1.3620 O.co2 184  ASP184     -0.2456
@<TRIPOS>BOND
     1   159   160    1
     2   160   161    1
     3   160   163    1
     4   162   161    2
     5   161   168   am
     6   177   178    1
     7   163   164    1
     8   188   187    2
     9   164   165    1
    10   166   165    2
    11   193   192    2
    12   156   155    2
    13   155   154    1
    14   171   170    2
    15   170   169    1
    16   190   191    1
    17   192   191    1
    18   168   169    1
    19   165   167   am
    20   184   185    2
    21   184   183    1
    22   187   189   am
    23   187   186    1
    24   178   179    1
    25   178   181    1
    26   182   183    1
    27   182   179   am
    28   191   194    1
    29   169   172    1
    30   149   148    2
    31   154   157    1
    32   154   153    1
    33   183   186    1
    34   179   180    2
    35   157   158    1
    36   151   150    1
    37   151   152    1
    38   148   153   am
    39   148   147    1
    40   172   173    1
    41   194   195    1
    42   150   147    1
    43   152   146    1
    44   195   197   ar
    45   195   196   ar
    46   147   146    1
    47   197   199   ar
    48    97    98    1
    49   173   174    1
    50   146   144   am
    51   204   203    2
    52   196   198   ar
    53   144   143    1
    54   144   145    2
    55   199   200   ar
    56   208   206   ar
    57   143   142    1
    58   103   101    1
    59   205   206    1
    60   205   202    1
    61   175   174    2
    62   198   200   ar
    63   203   202    1
    64   174   176   am
    65   201   202    1
    66    98   101    1
    67    98    99    1
    68   142   138   am
    69   206   207   ar
    70   101   102    1
    71   140   141    1
    72   140   137    1
    73    99   100    2
    74   127   125   ar
    75   138   137    1
    76   138   139    2
    77   137   136    1
    78   126   125   ar
    79   125   124    1
    80    90    89    2
    81    95    93   ar
    82    95    96   ar
    83    87    88    1
    84    88    89    1
    85    88    91    1
    86    93    92   ar
    87   136   130   am
    88   124   123    1
    89    96    94   ar
    90    92    94   ar
    91    92    91    1
    92   131   130    2
    93   130   129    1
    94   123   120    1
    95    81    80    2
    96    86    84   ar
    97   122   121    2
    98    83    84    1
    99    83    82    1
   100    79    80    1
   101    79    82    1
   102    79    78    1
   103    10     9    2
   104   129   128    1
   105   129   132    1
   106   121   120    1
   107   121   128   am
   108    84    85   ar
   109   120   119    1
   110   117   116    1
   111   133   134    1
   112   133   132    1
   113   133   135    1
   114   116   118    1
   115   116   113    1
   116    38    36   ar
   117    38    39   ar
   118   119   114   am
   119    36    34   ar
   120    22    21    2
   121    14    12    1
   122     9     8    1
   123     9    15   am
   124    40    39    1
   125    16    15    1
   126    16    17    1
   127    39    37   ar
   128    11    12    1
   129    11     8    1
   130    13    12    1
   131   111   109    1
   132    76    75    1
   133    76    77    1
   134   114   113    1
   135   114   115    2
   136     8     7    1
   137    34    33    1
   138    34    35   ar
   139   113   112    1
   140    47    45    1
   141    61    58    1
   142    19    17   am
   143    19    20    1
   144    75    74    1
   145    33    30    1
   146    21    20    1
   147    46    45    1
   148    17    18    2
   149    37    35   ar
   150    27    25   ar
   151    27    28   ar
   152    45    42    1
   153    56    55    1
   154    25    24   ar
   155    29    30    1
   156    20    23    1
   157   109   110    1
   158   109   108    1
   159    28    26   ar
   160    30    31    1
   161    55    54    1
   162    58    57    1
   163    58    59    1
   164    54    53    1
   165    74    73    1
   166    24    26   ar
   167    24    23    1
   168    73    70    1
   169    60    59    2
   170    42    41    1
   171    42    43    1
   172   108   105    1
   173    59    62   am
   174    53    52    1
   175    44    43    2
   176    52    49    1
   177    31    32    2
   178     6     5    1
   179   107   106    2
   180    70    69    1
   181    70    71    1
   182    69    64   am
   183    49    48    1
   184    49    50    1
   185    62    63    1
   186   106   105    1
   187   105   104    1
   188     5     2    1
   189    64    65    2
   190    64    63    1
   191    63    66    1
   192    71    72    2
   193     4     3    2
   194     3     2    1
   195    50    51    2
   196     2     1    1
   197    66    68    1
   198    66    67    1
