@<TRIPOS>MOLECULE
tmp/5vd4A00.pdb
 189 177 0 0 0
SMALL
GASTEIGER

@<TRIPOS>ATOM
      1  N        -15.1200    3.8740    6.9120 N.3    11  GLU11      -0.1231
      2  CA       -14.2580    4.8720    6.2980 C.3    11  GLU11       0.1699
      3  C        -12.8590    4.3130    6.0790 C.2    11  GLU11       0.2592
      4  O        -12.3040    3.6580    6.9590 O.2    11  GLU11      -0.2718
      5  CB       -14.2040    6.1210    7.1840 C.3    11  GLU11       0.0402
      6  CG       -13.2440    7.2110    6.7210 C.3    11  GLU11       0.1161
      7  CD       -13.1370    8.3480    7.7220 C.2    11  GLU11       0.3649
      8  OE1      -12.2060    9.1700    7.5940 O.co2  11  GLU11      -0.2457
      9  OE2      -13.9830    8.4190    8.6400 O.co2  11  GLU11      -0.2457
     10  N        -12.2990    4.5580    4.8990 N.am   12  LYS12      -0.1966
     11  CA       -10.8930    4.2670    4.6600 C.3    12  LYS12       0.1728
     12  C        -10.0910    5.3970    5.2870 C.2    12  LYS12       0.2616
     13  O        -10.2950    6.5640    4.9480 O.2    12  LYS12      -0.2715
     14  CB       -10.5920    4.1390    3.1650 C.3    12  LYS12       0.0311
     15  CG        -9.2240    3.5320    2.8630 C.3    12  LYS12       0.0038
     16  CD        -8.8970    3.5700    1.3740 C.3    12  LYS12       0.0206
     17  CE        -9.4750    2.3740    0.6290 C.3    12  LYS12       0.1093
     18  NZ        -9.3830    2.5390   -0.8520 N.3    12  LYS12      -0.1314
     19  N         -9.2050    5.0550    6.2190 N.am   13  ILE13      -0.1963
     20  CA        -8.4350    6.0600    6.9530 C.3    13  ILE13       0.1727
     21  C         -6.9410    5.9890    6.6340 C.2    13  ILE13       0.2617
     22  O         -6.1770    6.8670    7.0310 O.2    13  ILE13      -0.2715
     23  CB        -8.6450    5.9170    8.4790 C.3    13  ILE13       0.0290
     24  CG1       -8.1920    4.5330    8.9680 C.3    13  ILE13       0.0022
     25  CG2      -10.1130    6.1990    8.8230 C.3    13  ILE13       0.0023
     26  CD1       -8.4190    4.2780   10.4610 C.3    13  ILE13       0.0001
     27  N         -6.5300    4.9490    5.9150 N.am   14  GLY14      -0.1940
     28  CA        -5.1500    4.8350    5.4750 C.3    14  GLY14       0.2014
     29  C         -4.9920    3.9220    4.2780 C.2    14  GLY14       0.2639
     30  O         -5.8570    3.0940    3.9940 O.2    14  GLY14      -0.2714
     31  N         -3.8780    4.0810    3.5700 N.am   15  SER15      -0.1949
     32  CA        -3.5860    3.2510    2.4090 C.3    15  SER15       0.1924
     33  C         -2.0980    3.2550    2.0750 C.2    15  SER15       0.2314
     34  O         -1.3630    4.1700    2.4470 O.2    15  SER15      -0.2863
     35  CB        -4.3870    3.7260    1.1950 C.3    15  SER15       0.2116
     36  OG        -4.0220    5.0450    0.8320 O.3    15  SER15      -0.2180
     37  N          0.7730   -1.9240    0.5330 N.3    18  PHE18      -0.1241
     38  CA         0.3240   -3.1050    1.2660 C.3    18  PHE18       0.1605
     39  C         -1.1690   -3.3660    1.0920 C.2    18  PHE18       0.2264
     40  O         -1.5970   -4.5130    0.9570 O.2    18  PHE18      -0.2867
     41  CB         0.6430   -2.9530    2.7570 C.3    18  PHE18       0.0534
     42  CG        -0.0500   -1.7870    3.4110 C.ar   18  PHE18      -0.0203
     43  CD1        0.5210   -0.5240    3.3920 C.ar   18  PHE18      -0.0042
     44  CD2       -1.2710   -1.9550    4.0430 C.ar   18  PHE18      -0.0042
     45  CE1       -0.1140    0.5470    3.9910 C.ar   18  PHE18      -0.0003
     46  CE2       -1.9100   -0.8870    4.6420 C.ar   18  PHE18      -0.0003
     47  CZ        -1.3320    0.3650    4.6160 C.ar   18  PHE18      -0.0000
     48  N         -6.2120    0.6740    5.4710 N.3    21  VAL21      -0.1245
     49  CA        -6.6900    0.6520    6.8520 C.3    21  VAL21       0.1561
     50  C         -8.1010    1.2250    6.8920 C.2    21  VAL21       0.2260
     51  O         -8.3530    2.2920    6.3340 O.2    21  VAL21      -0.2867
     52  CB        -5.7850    1.4680    7.8050 C.3    21  VAL21       0.0252
     53  CG1       -6.3020    1.3710    9.2560 C.3    21  VAL21       0.0019
     54  CG2       -4.3160    1.0220    7.6780 C.3    21  VAL21       0.0019
     55  N         -9.6200    0.1390   14.2210 N.3    34  ALA34      -0.1245
     56  CA        -8.8450    0.3860   13.0150 C.3    34  ALA34       0.1562
     57  C         -8.3500   -0.9530   12.4870 C.2    34  ALA34       0.2260
     58  O         -7.5680   -1.6380   13.1500 O.2    34  ALA34      -0.2867
     59  CB        -7.6860    1.3220   13.2990 C.3    34  ALA34       0.0290
     60  N         -6.4160   -2.9300    9.5130 N.3    36  LYS36      -0.1245
     61  CA        -5.5350   -2.9070    8.3600 C.3    36  LYS36       0.1561
     62  C         -5.6910   -4.2000    7.5790 C.2    36  LYS36       0.2260
     63  O         -5.6050   -5.2940    8.1340 O.2    36  LYS36      -0.2867
     64  CB        -4.0870   -2.7070    8.7930 C.3    36  LYS36       0.0271
     65  CG        -3.0710   -2.8690    7.6810 C.3    36  LYS36       0.0035
     66  CD        -1.7460   -2.2050    8.0340 C.3    36  LYS36       0.0206
     67  CE        -1.3310   -2.4530    9.4840 C.3    36  LYS36       0.1093
     68  NZ        -0.0840   -1.7290    9.8380 N.3    36  LYS36      -0.1314
     69  N          4.8960   -7.6600   13.7660 N.3    54  GLU54      -0.1245
     70  CA         3.7650   -6.9310   14.3240 C.3    54  GLU54       0.1567
     71  C          2.9450   -7.7950   15.2830 C.2    54  GLU54       0.2260
     72  O          2.5640   -7.3420   16.3620 O.2    54  GLU54      -0.2867
     73  CB         2.8780   -6.4050   13.1940 C.3    54  GLU54       0.0388
     74  CG         1.9520   -5.2740   13.6030 C.3    54  GLU54       0.1160
     75  CD         1.2750   -4.6210   12.4120 C.2    54  GLU54       0.3649
     76  OE1        1.1920   -5.2680   11.3460 O.co2  54  GLU54      -0.2457
     77  OE2        0.8340   -3.4580   12.5380 O.co2  54  GLU54      -0.2457
     78  N         -0.6020    1.3320   20.9250 N.3    68  VAL68      -0.1245
     79  CA        -1.8620    1.0290   20.2630 C.3    68  VAL68       0.1561
     80  C         -2.1920   -0.4330   20.5050 C.2    68  VAL68       0.2260
     81  O         -1.3650   -1.3130   20.2660 O.2    68  VAL68      -0.2867
     82  CB        -1.8100    1.3030   18.7550 C.3    68  VAL68       0.0252
     83  CG1       -3.1010    0.8550   18.0960 C.3    68  VAL68       0.0019
     84  CG2       -1.5770    2.7780   18.4900 C.3    68  VAL68       0.0019
     85  N         -5.3710   -7.1470   10.5040 N.3    82  ILE82      -0.1245
     86  CA        -5.0660   -6.8980   11.9060 C.3    82  ILE82       0.1561
     87  C         -6.0400   -5.8770   12.4750 C.2    82  ILE82       0.2260
     88  O         -6.2380   -4.8020   11.9120 O.2    82  ILE82      -0.2867
     89  CB        -3.6070   -6.4220   12.1090 C.3    82  ILE82       0.0252
     90  CG1       -3.3250   -6.1990   13.5950 C.3    82  ILE82       0.0019
     91  CG2       -3.3000   -5.1510   11.3260 C.3    82  ILE82       0.0019
     92  CD1       -1.9330   -6.6150   13.9840 C.3    82  ILE82       0.0001
     93  N         -6.9320   -3.3890   15.3220 N.3    84  ASN84      -0.1225
     94  CA        -6.3680   -2.5680   16.3840 C.3    84  ASN84       0.1785
     95  C         -7.3580   -1.5680   16.9510 C.2    84  ASN84       0.2597
     96  O         -8.3900   -1.2710   16.3480 O.2    84  ASN84      -0.2718
     97  CB        -5.1340   -1.8120   15.8800 C.3    84  ASN84       0.1169
     98  CG        -3.9450   -2.7260   15.6370 C.2    84  ASN84       0.2627
     99  OD1       -3.9450   -3.8900   16.0400 O.2    84  ASN84      -0.2716
    100  ND2       -2.9200   -2.1970   14.9850 N.am   84  ASN84      -0.0877
    101  N         -7.0190   -1.0810   18.1380 N.am   85  GLU85      -0.1965
    102  CA        -7.6490    0.0750   18.7530 C.3    85  GLU85       0.1733
    103  C         -7.8270    1.1960   17.7390 C.2    85  GLU85       0.2616
    104  O         -6.9480    1.4190   16.9130 O.2    85  GLU85      -0.2715
    105  CB        -6.7810    0.5420   19.9240 C.3    85  GLU85       0.0429
    106  CG        -7.2240    1.8010   20.6320 C.3    85  GLU85       0.1163
    107  CD        -6.2790    2.1750   21.7580 C.2    85  GLU85       0.3649
    108  OE1       -6.5850    3.1320   22.4970 O.co2  85  GLU85      -0.2457
    109  OE2       -5.2280    1.5110   21.9020 O.co2  85  GLU85      -0.2457
    110  N         -8.9650    1.8850   17.7880 N.am   86  TYR86      -0.1960
    111  CA        -9.1670    3.0870   16.9840 C.3    86  TYR86       0.1771
    112  C         -8.8970    4.3330   17.8220 C.2    86  TYR86       0.2620
    113  O         -9.6060    4.6140   18.7880 O.2    86  TYR86      -0.2715
    114  CB       -10.5840    3.1500   16.4080 C.3    86  TYR86       0.0574
    115  CG       -10.8350    4.4000   15.5880 C.ar   86  TYR86      -0.0198
    116  CD1      -10.3220    4.5240   14.3050 C.ar   86  TYR86      -0.0009
    117  CD2      -11.5790    5.4550   16.1000 C.ar   86  TYR86      -0.0009
    118  CE1      -10.5390    5.6620   13.5530 C.ar   86  TYR86       0.0417
    119  CE2      -11.8080    6.5970   15.3530 C.ar   86  TYR86       0.0417
    120  CZ       -11.2820    6.6960   14.0810 C.ar   86  TYR86       0.1957
    121  OH       -11.5010    7.8280   13.3330 O.3    86  TYR86      -0.2866
    122  N         -7.8640    5.0720   17.4340 N.am   87  CYS87      -0.1954
    123  CA        -7.5080    6.3280   18.0740 C.3    87  CYS87       0.1843
    124  C         -8.1240    7.4730   17.2620 C.2    87  CYS87       0.2625
    125  O         -7.6830    7.7620   16.1500 O.2    87  CYS87      -0.2714
    126  CB        -5.9830    6.4620   18.1680 C.3    87  CYS87       0.0997
    127  SG        -5.1610    5.0560   18.9560 S.3    87  CYS87      -0.0797
    128  N         -9.1490    8.1120   17.8220 N.am   88  ASN88      -0.1972
    129  CA        -9.9920    9.0390   17.0680 C.3    88  ASN88       0.1688
    130  C         -9.2950   10.3220   16.6150 C.2    88  ASN88       0.2292
    131  O         -9.8330   11.0630   15.7890 O.2    88  ASN88      -0.2864
    132  CB       -11.2290    9.4040   17.8990 C.3    88  ASN88       0.1181
    133  CG       -10.8730   10.0130   19.2440 C.2    88  ASN88       0.2629
    134  OD1       -9.7150   10.0100   19.6510 O.2    88  ASN88      -0.2716
    135  ND2      -11.8750   10.5270   19.9450 N.am   88  ASN88      -0.0877
    136  N         -6.3120   10.3850   15.1120 N.3    90  GLY90      -0.1225
    137  CA        -5.3770   10.0880   14.0430 C.3    90  GLY90       0.1811
    138  C         -3.9510    9.9790   14.5410 C.2    90  GLY90       0.2280
    139  O         -3.7150    9.6930   15.7160 O.2    90  GLY90      -0.2866
    140  N         -0.9340   13.6010   11.2090 N.3    94  ASP94      -0.1239
    141  CA        -2.1910   14.2520   10.8540 C.3    94  ASP94       0.1674
    142  C         -2.3620   15.5240   11.6690 C.2    94  ASP94       0.2266
    143  O         -2.7020   16.5770   11.1330 O.2    94  ASP94      -0.2867
    144  CB        -3.3770   13.3150   11.0900 C.3    94  ASP94       0.1410
    145  CG        -3.3120   12.0670   10.2340 C.2    94  ASP94       0.3668
    146  OD1       -3.1140   12.1970    9.0070 O.co2  94  ASP94      -0.2456
    147  OD2       -3.4480   10.9570   10.7900 O.co2  94  ASP94      -0.2456
    148  N         -2.4450   19.1510   10.2100 N.3    98  GLU98      -0.1245
    149  CA        -3.6260   19.9610   10.4790 C.3    98  GLU98       0.1567
    150  C         -3.2500   21.2550   11.1910 C.2    98  GLU98       0.2260
    151  O         -3.9600   22.2520   11.0900 O.2    98  GLU98      -0.2867
    152  CB        -4.6380   19.1700   11.3090 C.3    98  GLU98       0.0388
    153  CG        -5.5080   18.2280   10.4860 C.3    98  GLU98       0.1160
    154  CD        -6.4690   18.9620    9.5640 C.2    98  GLU98       0.3649
    155  OE1       -7.1160   18.2950    8.7280 O.co2  98  GLU98      -0.2457
    156  OE2       -6.5830   20.2020    9.6750 O.co2  98  GLU98      -0.2457
    157  N          4.0630    9.7680   12.2040 N.3   138  SER138     -0.1202
    158  CA         2.9990    9.0160   11.5410 C.3   138  SER138      0.2020
    159  C          2.7240    7.6750   12.2310 C.2   138  SER138      0.2618
    160  O          1.7220    7.0170   11.9430 O.2   138  SER138     -0.2717
    161  CB         3.3450    8.7840   10.0660 C.3   138  SER138      0.2103
    162  OG         4.5200    8.0110    9.9230 O.3   138  SER138     -0.2182
    163  N          3.6110    7.2800   13.1410 N.am  139  ASN139     -0.1974
    164  CA         3.4450    6.0380   13.8960 C.3   139  ASN139      0.1688
    165  C          3.1060    6.2930   15.3630 C.2   139  ASN139      0.2292
    166  O          3.1030    5.3670   16.1790 O.2   139  ASN139     -0.2864
    167  CB         4.7090    5.1810   13.7990 C.3   139  ASN139      0.1181
    168  CG         4.9370    4.6320   12.4070 C.2   139  ASN139      0.2629
    169  OD1        4.0220    4.5860   11.5900 O.2   139  ASN139     -0.2716
    170  ND2        6.1610    4.2020   12.1340 N.am  139  ASN139     -0.0877
    171  N         -0.0560    7.6040   17.5050 N.3   141  PHE141     -0.1241
    172  CA        -1.4910    7.8350   17.3560 C.3   141  PHE141      0.1605
    173  C         -2.0820    8.5160   18.5820 C.2   141  PHE141      0.2264
    174  O         -1.5430    8.4210   19.6830 O.2   141  PHE141     -0.2867
    175  CB        -2.2040    6.5160   17.0600 C.3   141  PHE141      0.0534
    176  CG        -1.7960    5.9050   15.7510 C.ar  141  PHE141     -0.0203
    177  CD1       -0.7070    5.0550   15.6760 C.ar  141  PHE141     -0.0042
    178  CD2       -2.4810    6.2080   14.5890 C.ar  141  PHE141     -0.0042
    179  CE1       -0.3220    4.5050   14.4690 C.ar  141  PHE141     -0.0003
    180  CE2       -2.0980    5.6620   13.3780 C.ar  141  PHE141     -0.0003
    181  CZ        -1.0170    4.8090   13.3200 C.ar  141  PHE141     -0.0000
    182  N          2.0000    0.8640   14.7580 N.3   153  ASP153     -0.1239
    183  CA         2.7460    0.3620   13.6080 C.3   153  ASP153      0.1674
    184  C          4.0220   -0.3350   14.0670 C.2   153  ASP153      0.2266
    185  O          5.1280    0.1760   13.8960 O.2   153  ASP153     -0.2867
    186  CB         3.0450    1.5030   12.6330 C.3   153  ASP153      0.1410
    187  CG         1.7860    2.0280   11.9600 C.2   153  ASP153      0.3668
    188  OD1        0.8580    1.2240   11.7310 O.co2 153  ASP153     -0.2456
    189  OD2        1.7140    3.2370   11.6640 O.co2 153  ASP153     -0.2456
@<TRIPOS>BOND
     1    18    17    1
     2    37    38    1
     3    17    16    1
     4    36    35    1
     5    40    39    2
     6    39    38    1
     7    35    32    1
     8    38    41    1
     9    16    15    1
    10    33    32    1
    11    33    34    2
    12    32    31    1
    13    41    42    1
    14    15    14    1
    15    14    11    1
    16    43    42   ar
    17    43    45   ar
    18    42    44   ar
    19    31    29   am
    20    45    47   ar
    21    30    29    2
    22    44    46   ar
    23    29    28    1
    24    47    46   ar
    25    11    10    1
    26    11    12    1
    27    10     3   am
    28    13    12    2
    29    12    19   am
    30    48    49    1
    31    28    27    1
    32    27    21   am
    33     3     2    1
    34     3     4    2
    35    19    20    1
    36     2     1    1
    37     2     5    1
    38    51    50    2
    39    21    20    1
    40    21    22    2
    41     6     5    1
    42     6     7    1
    43    49    50    1
    44    49    52    1
    45    20    23    1
    46    62    63    2
    47    62    61    1
    48     8     7   ar
    49    54    52    1
    50    65    66    1
    51    65    64    1
    52     7     9   ar
    53    52    53    1
    54    66    67    1
    55    61    64    1
    56    61    60    1
    57    23    25    1
    58    23    24    1
    59   155   154   ar
    60    24    26    1
    61   146   145   ar
    62    67    68    1
    63   154   156   ar
    64   154   153    1
    65   162   161    1
    66   161   158    1
    67   148   149    1
    68   145   147   ar
    69   145   144    1
    70   149   150    1
    71   149   152    1
    72   153   152    1
    73    85    86    1
    74   141   144    1
    75   141   140    1
    76   141   142    1
    77   151   150    2
    78   143   142    2
    79    91    89    1
    80    76    75   ar
    81   158   157    1
    82   158   159    1
    83   169   168    2
    84   189   187   ar
    85   188   187   ar
    86    86    89    1
    87    86    87    1
    88    88    87    2
    89   160   159    2
    90   187   186    1
    91    89    90    1
    92   170   168   am
    93   159   163   am
    94   168   167    1
    95    75    77   ar
    96    75    74    1
    97    57    56    1
    98    57    58    2
    99   186   183    1
   100    56    59    1
   101    56    55    1
   102   163   164    1
   103    73    74    1
   104    73    70    1
   105   181   180   ar
   106   181   179   ar
   107   121   120    1
   108   180   178   ar
   109   118   120   ar
   110   118   116   ar
   111    90    92    1
   112   183   184    1
   113   183   182    1
   114    69    70    1
   115   167   164    1
   116   164   165    1
   117   185   184    2
   118   137   138    1
   119   137   136    1
   120   120   119   ar
   121   116   115   ar
   122    70    71    1
   123   179   177   ar
   124   138   139    2
   125   178   176   ar
   126   100    98   am
   127    71    72    2
   128    93    94    1
   129   119   117   ar
   130   165   166    2
   131   115   117   ar
   132   115   114    1
   133    98    97    1
   134    98    99    2
   135   177   176   ar
   136   176   175    1
   137   131   130    2
   138    97    94    1
   139   125   124    2
   140    96    95    2
   141    94    95    1
   142   114   111    1
   143   130   129    1
   144   104   103    2
   145    95   101   am
   146   111   110    1
   147   111   112    1
   148   175   172    1
   149   129   128    1
   150   129   132    1
   151   124   128   am
   152   124   123    1
   153   172   171    1
   154   172   173    1
   155   122   112   am
   156   122   123    1
   157   103   110   am
   158   103   102    1
   159   112   113    2
   160   132   133    1
   161   123   126    1
   162    83    82    1
   163   101   102    1
   164   126   127    1
   165    84    82    1
   166   173   174    2
   167   102   105    1
   168    82    79    1
   169   133   134    2
   170   133   135   am
   171   105   106    1
   172    79    80    1
   173    79    78    1
   174    81    80    2
   175   106   107    1
   176   107   109   ar
   177   107   108   ar
