@<TRIPOS>MOLECULE
tmp/5vd5A00.pdb
 174 163 0 0 0
SMALL
GASTEIGER

@<TRIPOS>ATOM
      1  N        -14.9620    3.7350    6.8810 N.3    11  GLU11      -0.1231
      2  CA       -14.1510    4.7730    6.2650 C.3    11  GLU11       0.1699
      3  C        -12.7230    4.2770    6.0840 C.2    11  GLU11       0.2592
      4  O        -12.1550    3.6680    6.9900 O.2    11  GLU11      -0.2718
      5  CB       -14.1800    6.0370    7.1330 C.3    11  GLU11       0.0402
      6  CG       -13.1610    7.1050    6.7630 C.3    11  GLU11       0.1161
      7  CD       -13.2660    8.3370    7.6450 C.2    11  GLU11       0.3649
      8  OE1      -14.1900    8.3940    8.4850 O.co2  11  GLU11      -0.2457
      9  OE2      -12.4240    9.2490    7.5020 O.co2  11  GLU11      -0.2457
     10  N        -12.1510    4.5200    4.9100 N.am   12  LYS12      -0.1966
     11  CA       -10.7420    4.2340    4.6900 C.3    12  LYS12       0.1728
     12  C         -9.9260    5.3670    5.2970 C.2    12  LYS12       0.2616
     13  O        -10.1570    6.5360    4.9880 O.2    12  LYS12      -0.2715
     14  CB       -10.4290    4.0780    3.2030 C.3    12  LYS12       0.0311
     15  CG        -9.0160    3.5740    2.9420 C.3    12  LYS12       0.0038
     16  CD        -8.6960    3.4650    1.4620 C.3    12  LYS12       0.0206
     17  CE        -9.2960    2.2160    0.8410 C.3    12  LYS12       0.1093
     18  NZ        -8.7880    2.0020   -0.5420 N.3    12  LYS12      -0.1314
     19  N         -8.9850    5.0200    6.1710 N.am   13  ILE13      -0.1963
     20  CA        -8.1910    6.0260    6.8750 C.3    13  ILE13       0.1727
     21  C         -6.7040    5.9350    6.5340 C.2    13  ILE13       0.2616
     22  O         -5.9150    6.7820    6.9530 O.2    13  ILE13      -0.2715
     23  CB        -8.3780    5.9090    8.4010 C.3    13  ILE13       0.0290
     24  CG1       -8.0230    4.5020    8.8840 C.3    13  ILE13       0.0022
     25  CG2       -9.8160    6.2680    8.7740 C.3    13  ILE13       0.0023
     26  CD1       -8.0880    4.3310   10.3890 C.3    13  ILE13       0.0001
     27  N         -6.3290    4.9190    5.7600 N.am   14  GLY14      -0.1955
     28  CA        -4.9580    4.7720    5.3040 C.3    14  GLY14       0.1869
     29  C         -4.8420    3.9160    4.0560 C.2    14  GLY14       0.2309
     30  O         -5.6710    3.0410    3.8150 O.2    14  GLY14      -0.2863
     31  N          1.4230   -0.9910    1.7580 N.3    18  PHE18      -0.1241
     32  CA         1.0320   -1.9190    2.8180 C.3    18  PHE18       0.1605
     33  C         -0.3970   -2.4350    2.6520 C.2    18  PHE18       0.2264
     34  O         -0.8390   -3.2970    3.4110 O.2    18  PHE18      -0.2867
     35  CB         1.1570   -1.2380    4.1840 C.3    18  PHE18       0.0534
     36  CG         0.2700   -0.0340    4.3390 C.ar   18  PHE18      -0.0203
     37  CD1       -1.0510   -0.1750    4.7310 C.ar   18  PHE18      -0.0042
     38  CD2        0.7540    1.2380    4.0810 C.ar   18  PHE18      -0.0042
     39  CE1       -1.8710    0.9270    4.8660 C.ar   18  PHE18      -0.0003
     40  CE2       -0.0630    2.3460    4.2160 C.ar   18  PHE18      -0.0003
     41  CZ        -1.3770    2.1890    4.6090 C.ar   18  PHE18      -0.0000
     42  N         -5.9370    0.6860    5.4720 N.3    21  VAL21      -0.1245
     43  CA        -6.4500    0.6450    6.8360 C.3    21  VAL21       0.1561
     44  C         -7.8530    1.2390    6.8600 C.2    21  VAL21       0.2260
     45  O         -8.1130    2.2620    6.2320 O.2    21  VAL21      -0.2867
     46  CB        -5.5490    1.4140    7.8190 C.3    21  VAL21       0.0252
     47  CG1       -6.0750    1.2540    9.2580 C.3    21  VAL21       0.0019
     48  CG2       -4.0860    0.9510    7.6920 C.3    21  VAL21       0.0019
     49  N         -9.3120    0.2150   14.2230 N.3    34  ALA34      -0.1245
     50  CA        -8.5510    0.4360   13.0040 C.3    34  ALA34       0.1562
     51  C         -8.0620   -0.9190   12.5260 C.2    34  ALA34       0.2260
     52  O         -7.3250   -1.6110   13.2390 O.2    34  ALA34      -0.2867
     53  CB        -7.3810    1.3960   13.2430 C.3    34  ALA34       0.0290
     54  N         -6.1210   -2.9930    9.5420 N.3    36  LYS36      -0.1245
     55  CA        -5.2460   -2.9850    8.3770 C.3    36  LYS36       0.1561
     56  C         -5.4690   -4.2430    7.5660 C.2    36  LYS36       0.2260
     57  O         -5.4800   -5.3360    8.1130 O.2    36  LYS36      -0.2867
     58  CB        -3.7760   -2.8980    8.7890 C.3    36  LYS36       0.0271
     59  CG        -2.8200   -2.6770    7.6200 C.3    36  LYS36       0.0035
     60  CD        -1.4300   -2.2630    8.0900 C.3    36  LYS36       0.0206
     61  CE        -0.6760   -3.4110    8.7360 C.3    36  LYS36       0.1093
     62  NZ         0.6520   -2.9680    9.2530 N.3    36  LYS36      -0.1314
     63  N          5.5060   -7.6820   13.8690 N.3    54  GLU54      -0.1245
     64  CA         4.3580   -7.0540   14.5230 C.3    54  GLU54       0.1567
     65  C          3.5440   -8.0300   15.3920 C.2    54  GLU54       0.2260
     66  O          3.2600   -7.7270   16.5500 O.2    54  GLU54      -0.2867
     67  CB         3.4380   -6.3970   13.4880 C.3    54  GLU54       0.0388
     68  CG         2.3040   -5.6050   14.1220 C.3    54  GLU54       0.1160
     69  CD         1.7630   -4.5060   13.2220 C.2    54  GLU54       0.3649
     70  OE1        1.8300   -4.6570   11.9830 O.co2  54  GLU54      -0.2457
     71  OE2        1.2760   -3.4870   13.7580 O.co2  54  GLU54      -0.2457
     72  N         -0.5210    1.7260   20.9690 N.3    68  VAL68      -0.1245
     73  CA        -1.7810    1.4030   20.3160 C.3    68  VAL68       0.1561
     74  C         -2.0870   -0.0560   20.5980 C.2    68  VAL68       0.2260
     75  O         -1.2710   -0.9360   20.3280 O.2    68  VAL68      -0.2867
     76  CB        -1.7230    1.6670   18.7950 C.3    68  VAL68       0.0252
     77  CG1       -3.0220    1.2150   18.1050 C.3    68  VAL68       0.0019
     78  CG2       -1.4090    3.1470   18.5290 C.3    68  VAL68       0.0019
     79  N         -5.0910   -7.0470   10.5920 N.3    82  ILE82      -0.1245
     80  CA        -4.7750   -6.7820   11.9900 C.3    82  ILE82       0.1561
     81  C         -5.7200   -5.7260   12.5460 C.2    82  ILE82       0.2260
     82  O         -5.9200   -4.6680   11.9520 O.2    82  ILE82      -0.2867
     83  CB        -3.3010   -6.3410   12.1800 C.3    82  ILE82       0.0252
     84  CG1       -3.0600   -5.8750   13.6190 C.3    82  ILE82       0.0019
     85  CG2       -2.9350   -5.2410   11.2090 C.3    82  ILE82       0.0019
     86  CD1       -1.5920   -5.7380   13.9860 C.3    82  ILE82       0.0001
     87  N         -6.5670   -3.1790   15.3790 N.3    84  ASN84      -0.1225
     88  CA        -5.9850   -2.3300   16.4060 C.3    84  ASN84       0.1785
     89  C         -6.9990   -1.3510   16.9720 C.2    84  ASN84       0.2597
     90  O         -8.0460   -1.1000   16.3770 O.2    84  ASN84      -0.2718
     91  CB        -4.7880   -1.5500   15.8400 C.3    84  ASN84       0.1169
     92  CG        -3.5330   -2.4020   15.7150 C.2    84  ASN84       0.2627
     93  OD1       -3.3810   -3.4150   16.3930 O.2    84  ASN84      -0.2716
     94  ND2       -2.6260   -1.9850   14.8440 N.am   84  ASN84      -0.0877
     95  N         -6.6680   -0.8190   18.1400 N.am   85  GLU85      -0.1965
     96  CA        -7.3570    0.3190   18.7230 C.3    85  GLU85       0.1733
     97  C         -7.5010    1.4270   17.6840 C.2    85  GLU85       0.2616
     98  O         -6.5840    1.6510   16.9020 O.2    85  GLU85      -0.2715
     99  CB        -6.5620    0.8060   19.9380 C.3    85  GLU85       0.0429
    100  CG        -7.1190    2.0060   20.6600 C.3    85  GLU85       0.1163
    101  CD        -6.1850    2.4950   21.7560 C.2    85  GLU85       0.3649
    102  OE1       -5.1450    1.8410   22.0050 O.co2  85  GLU85      -0.2457
    103  OE2       -6.4900    3.5370   22.3680 O.co2  85  GLU85      -0.2457
    104  N         -8.6520    2.0940   17.6590 N.am   86  TYR86      -0.1960
    105  CA        -8.8430    3.2740   16.8170 C.3    86  TYR86       0.1771
    106  C         -8.6290    4.5610   17.6030 C.2    86  TYR86       0.2620
    107  O         -9.3750    4.8730   18.5290 O.2    86  TYR86      -0.2715
    108  CB       -10.2420    3.2840   16.1940 C.3    86  TYR86       0.0574
    109  CG       -10.5450    4.5310   15.3840 C.ar   86  TYR86      -0.0198
    110  CD1      -10.0470    4.6830   14.0970 C.ar   86  TYR86      -0.0009
    111  CD2      -11.3380    5.5490   15.9030 C.ar   86  TYR86      -0.0009
    112  CE1      -10.3220    5.8100   13.3480 C.ar   86  TYR86       0.0417
    113  CE2      -11.6240    6.6850   15.1570 C.ar   86  TYR86       0.0417
    114  CZ       -11.1100    6.8100   13.8810 C.ar   86  TYR86       0.1957
    115  OH       -11.3790    7.9310   13.1260 O.3    86  TYR86      -0.2866
    116  N         -7.6050    5.3050   17.2020 N.am   87  CYS87      -0.1954
    117  CA        -7.2920    6.5980   17.7820 C.3    87  CYS87       0.1843
    118  C         -7.9220    7.6820   16.9160 C.2    87  CYS87       0.2625
    119  O         -7.5440    7.8640   15.7570 O.2    87  CYS87      -0.2714
    120  CB        -5.7760    6.7740   17.8860 C.3    87  CYS87       0.0997
    121  SG        -4.9520    5.4730   18.8550 S.3    87  CYS87      -0.0797
    122  N         -8.8840    8.3990   17.4900 N.am   88  ASN88      -0.1972
    123  CA        -9.7570    9.2760   16.7230 C.3    88  ASN88       0.1688
    124  C         -9.0980   10.5720   16.2590 C.2    88  ASN88       0.2292
    125  O         -9.6700   11.3070   15.4540 O.2    88  ASN88      -0.2864
    126  CB       -11.0120    9.6070   17.5460 C.3    88  ASN88       0.1181
    127  CG       -10.6910   10.2870   18.8740 C.2    88  ASN88       0.2629
    128  OD1       -9.5420   10.5990   19.1670 O.2    88  ASN88      -0.2716
    129  ND2      -11.7210   10.5230   19.6780 N.am   88  ASN88      -0.0877
    130  N         -6.1790   10.6840   14.6820 N.3    90  GLY90      -0.1225
    131  CA        -5.2550   10.4000   13.6030 C.3    90  GLY90       0.1811
    132  C         -3.8360   10.3030   14.1250 C.2    90  GLY90       0.2280
    133  O         -3.6210   10.0510   15.3100 O.2    90  GLY90      -0.2866
    134  N         -0.5970   13.7340   10.6750 N.3    94  ASP94      -0.1239
    135  CA        -1.8270   14.3820   10.2290 C.3    94  ASP94       0.1674
    136  C         -2.0430   15.6820   10.9880 C.2    94  ASP94       0.2266
    137  O         -2.4510   16.6870   10.4150 O.2    94  ASP94      -0.2867
    138  CB        -3.0350   13.4600   10.4290 C.3    94  ASP94       0.1410
    139  CG        -2.9220   12.1630    9.6500 C.2    94  ASP94       0.3668
    140  OD1       -2.7660   12.2220    8.4130 O.co2  94  ASP94      -0.2456
    141  OD2       -2.9820   11.0840   10.2780 O.co2  94  ASP94      -0.2456
    142  N          4.2960    9.8230   11.8040 N.3   138  SER138     -0.1202
    143  CA         3.2340    9.0280   11.1940 C.3   138  SER138      0.2020
    144  C          2.9180    7.7550   11.9890 C.2   138  SER138      0.2618
    145  O          1.8910    7.1170   11.7570 O.2   138  SER138     -0.2717
    146  CB         3.6020    8.6660    9.7470 C.3   138  SER138      0.2103
    147  OG         4.8370    7.9770    9.6700 O.3   138  SER138     -0.2182
    148  N          3.7840    7.4010   12.9360 N.am  139  ASN139     -0.1974
    149  CA         3.6010    6.1910   13.7380 C.3   139  ASN139      0.1688
    150  C          3.2040    6.4930   15.1780 C.2   139  ASN139      0.2292
    151  O          3.1230    5.5880   16.0150 O.2   139  ASN139     -0.2864
    152  CB         4.8770    5.3450   13.7150 C.3   139  ASN139      0.1181
    153  CG         5.0680    4.6250   12.3930 C.2   139  ASN139      0.2629
    154  OD1        4.1120    4.4170   11.6510 O.2   139  ASN139     -0.2716
    155  ND2        6.3000    4.2380   12.0940 N.am  139  ASN139     -0.0877
    156  N          0.0720    7.9970   17.2980 N.3   141  PHE141     -0.1241
    157  CA        -1.3610    8.2010   17.1030 C.3   141  PHE141      0.1605
    158  C         -1.9720    8.9450   18.2770 C.2   141  PHE141      0.2264
    159  O         -1.4450    8.9060   19.3880 O.2   141  PHE141     -0.2867
    160  CB        -2.0520    6.8570   16.8760 C.3   141  PHE141      0.0534
    161  CG        -1.6940    6.2310   15.5650 C.ar  141  PHE141     -0.0203
    162  CD1       -2.3640    6.5940   14.4110 C.ar  141  PHE141     -0.0042
    163  CD2       -0.6580    5.3150   15.4700 C.ar  141  PHE141     -0.0042
    164  CE1       -2.0260    6.0430   13.1940 C.ar  141  PHE141     -0.0003
    165  CE2       -0.3170    4.7630   14.2530 C.ar  141  PHE141     -0.0003
    166  CZ        -1.0030    5.1270   13.1150 C.ar  141  PHE141     -0.0000
    167  N          2.3100    1.0410   14.7930 N.3   152  ASP152     -0.1239
    168  CA         3.0950    0.4540   13.7030 C.3   152  ASP152      0.1674
    169  C          4.3350   -0.2890   14.2050 C.2   152  ASP152      0.2266
    170  O          5.4550    0.2000   14.0960 O.2   152  ASP152     -0.2867
    171  CB         3.5070    1.5270   12.6920 C.3   152  ASP152      0.1410
    172  CG         3.9160    0.9370   11.3500 C.2   152  ASP152      0.3668
    173  OD1        4.1630   -0.2860   11.2800 O.co2 152  ASP152     -0.2456
    174  OD2        3.9920    1.6990   10.3640 O.co2 152  ASP152     -0.2456
@<TRIPOS>BOND
     1    18    17    1
     2    17    16    1
     3    16    15    1
     4    31    32    1
     5    33    32    1
     6    33    34    2
     7    32    35    1
     8    15    14    1
     9    14    11    1
    10    30    29    2
    11    29    28    1
    12    38    40   ar
    13    38    36   ar
    14    35    36    1
    15    40    41   ar
    16    36    37   ar
    17    41    39   ar
    18    11    10    1
    19    11    12    1
    20    37    39   ar
    21    10     3   am
    22    13    12    2
    23    12    19   am
    24    28    27    1
    25    42    43    1
    26    27    21   am
    27     3     2    1
    28     3     4    2
    29    19    20    1
    30    45    44    2
    31     2     1    1
    32     2     5    1
    33    21    20    1
    34    21    22    2
    35     6     5    1
    36     6     7    1
    37    43    44    1
    38    43    46    1
    39    20    23    1
    40     9     7   ar
    41    56    57    2
    42    56    55    1
    43    59    60    1
    44    59    58    1
    45     7     8   ar
    46    48    46    1
    47    46    47    1
    48    60    61    1
    49    55    58    1
    50    55    54    1
    51    23    25    1
    52    23    24    1
    53   140   139   ar
    54    61    62    1
    55    24    26    1
    56   139   141   ar
    57   139   138    1
    58   147   146    1
    59   146   143    1
    60   135   138    1
    61   135   134    1
    62   135   136    1
    63   174   172   ar
    64   137   136    2
    65    79    80    1
    66   143   142    1
    67   143   144    1
    68    85    83    1
    69   173   172   ar
    70   172   171    1
    71   154   153    2
    72   145   144    2
    73    82    81    2
    74    70    69   ar
    75   144   148   am
    76    80    83    1
    77    80    81    1
    78   155   153   am
    79    83    84    1
    80   153   152    1
    81    51    50    1
    82    51    52    2
    83   171   168    1
    84   148   149    1
    85    50    53    1
    86    50    49    1
    87   166   164   ar
    88   166   165   ar
    89   115   114    1
    90   164   162   ar
    91    69    71   ar
    92    69    68    1
    93   112   114   ar
    94   112   110   ar
    95    67    68    1
    96    67    64    1
    97   131   132    1
    98   131   130    1
    99    84    86    1
   100   168   169    1
   101   168   167    1
   102   152   149    1
   103   149   150    1
   104    63    64    1
   105   114   113   ar
   106   170   169    2
   107   110   109   ar
   108   132   133    2
   109   165   163   ar
   110   162   161   ar
   111    64    65    1
   112    94    92   am
   113   113   111   ar
   114   150   151    2
   115    87    88    1
   116   109   111   ar
   117   109   108    1
   118    65    66    2
   119   125   124    2
   120   163   161   ar
   121   161   160    1
   122    92    91    1
   123    92    93    2
   124   119   118    2
   125    91    88    1
   126   108   105    1
   127   124   123    1
   128    90    89    2
   129    88    89    1
   130   123   122    1
   131   123   126    1
   132   105   106    1
   133   105   104    1
   134   160   157    1
   135    98    97    2
   136   118   122   am
   137   118   117    1
   138    89    95   am
   139   157   156    1
   140   157   158    1
   141   116   106   am
   142   116   117    1
   143   126   127    1
   144   106   107    2
   145   104    97   am
   146    97    96    1
   147   117   120    1
   148   120   121    1
   149    77    76    1
   150    95    96    1
   151   158   159    2
   152    78    76    1
   153    96    99    1
   154    76    73    1
   155   127   128    2
   156   127   129   am
   157    99   100    1
   158    73    74    1
   159    73    72    1
   160    75    74    2
   161   100   101    1
   162   101   102   ar
   163   101   103   ar
